@<TRIPOS>MOLECULE
3R207
157   159    1
SMALL
USER_CHARGES


@<TRIPOS>ATOM
      1 CA        -49.1895  -25.3304    3.0449 C.3       0 UNK        -0.1975 
      2 C         -49.7494  -25.1751    4.4511 C.2       0 UNK         0.4852 
      3 O         -49.8462  -24.0503    4.9451 O.2       0 UNK        -0.5216 
      4 N         -50.1151  -26.2976    5.0880 N.am      1 UNK        -0.4461 
      5 CA        -50.6937  -26.4165    6.4331 C.3       1 UNK         0.0864 
      6 C6        -50.8236  -27.9014    6.8481 C.3       14 UNK        -0.0898 
      7 S7        -52.2030  -28.7508    6.0142 S.3       14 UNK        -0.2598 
      8 C8        -51.7848  -30.5058    6.2901 C.3       14 UNK         0.0286 
      9 C9        -51.4497  -30.8081    7.7459 C.ar      14 UNK        -0.0844 
     10 C10       -50.1137  -30.9080    8.1437 C.ar      14 UNK        -0.0881 
     11 C11       -49.7836  -31.1533    9.4782 C.ar      14 UNK        -0.0643 
     12 C12       -50.8024  -31.3233   10.4189 C.ar      14 UNK        -0.0930 
     13 C13       -52.1445  -31.2322   10.0339 C.ar      14 UNK        -0.0827 
     14 C14       -52.4631  -30.9741    8.6955 C.ar      14 UNK        -0.1249 
     15 C15       -53.2442  -31.3936   11.0726 C.3       14 UNK         0.0141 
     16 S16       -53.3151  -29.9348   12.1507 S.3       14 UNK        -0.2313 
     17 C17       -54.7649  -30.2898   13.1948 C.3       14 UNK        -0.0915 
     18 CA        -56.0347  -29.5283   12.7347 C.3       13 UNK         0.0968 
     19 C         -57.2437  -29.8908   13.6379 C.2       13 UNK         0.5732 
     20 N         -58.0350  -30.8815   13.2484 N.am      13 UNK        -0.7310 
     21 O         -57.4431  -29.3183   14.7076 O.2       13 UNK        -0.5035 
     22 N         -55.8118  -28.0763   12.6479 N.am      13 UNK        -0.4233 
     23 C         -56.6314  -27.2251   12.0166 C.2       13 UNK         0.4989 
     24 O         -57.6673  -27.5812   11.4504 O.2       13 UNK        -0.4996 
     25 CA        -56.2106  -25.7422   11.9445 C.3       12 UNK         0.0216 
     26 CB        -57.4061  -24.7867   11.7362 C.3       12 UNK        -0.1964 
     27 N         -55.3679  -25.2935   13.0567 N.am      12 UNK        -0.4276 
     28 C         -55.6933  -25.1977   14.3527 C.2       12 UNK         0.5020 
     29 O         -56.7928  -25.4934   14.8259 O.2       12 UNK        -0.5489 
     30 CA        -54.5782  -24.6700   15.2762 C.3       11 UNK         0.0294 
     31 CB        -55.1282  -23.6510   16.2897 C.3       11 UNK        -0.2019 
     32 N         -53.8315  -25.7029   16.0036 N.am      11 UNK        -0.4493 
     33 C         -53.3836  -26.8795   15.5424 C.2       11 UNK         0.4932 
     34 O         -53.6444  -27.3480   14.4359 O.2       11 UNK        -0.5029 
     35 CA        -52.3905  -27.6066   16.4588 C.3       10 UNK         0.0280 
     36 CB        -52.2067  -29.0889   16.0839 C.3       10 UNK        -0.1976 
     37 N         -51.1079  -26.9167   16.3415 N.am      10 UNK        -0.4242 
     38 C         -50.7126  -25.9030   17.1228 C.2       10 UNK         0.5072 
     39 O         -51.3257  -25.5316   18.1250 O.2       10 UNK        -0.5224 
     40 CA        -49.4532  -25.1407   16.6797 C.3       9 UNK         0.0343 
     41 CB        -48.1947  -26.0156   16.8067 C.3       9 UNK        -0.2003 
     42 N         -49.5662  -24.6419   15.3081 N.am      9 UNK        -0.4272 
     43 C         -50.4397  -23.7133   14.8854 C.2       9 UNK         0.4988 
     44 O         -51.2184  -23.1103   15.6235 O.2       9 UNK        -0.5108 
     45 CA        -50.4638  -23.4290   13.3753 C.3       8 UNK         0.0248 
     46 CB        -49.2905  -22.5254   12.9578 C.3       8 UNK        -0.2001 
     47 N         -50.4273  -24.6906   12.6337 N.am      8 UNK        -0.4140 
     48 C         -51.5226  -25.3961   12.3180 C.2       8 UNK         0.5028 
     49 O         -52.6668  -24.9522   12.4258 O.2       8 UNK        -0.5428 
     50 CA        -51.3352  -26.8334   11.7992 C.3       7 UNK         0.0264 
     51 CB        -51.9628  -27.0099   10.4106 C.3       7 UNK        -0.1988 
     52 N         -49.9409  -27.2931   11.7812 N.am      7 UNK        -0.4454 
     53 C         -49.3049  -27.7615   12.8641 C.2       7 UNK         0.5027 
     54 O         -49.8177  -27.8207   13.9817 O.2       7 UNK        -0.5083 
     55 CA        -47.8194  -28.1449   12.7059 C.3       6 UNK         0.0844 
     56 C56       -47.6270  -29.5447   12.0677 C.3       14 UNK        -0.0967 
     57 S57       -47.6728  -29.5561   10.2407 S.3       14 UNK        -0.2604 
     58 C58       -48.3231  -31.2187    9.8903 C.3       14 UNK         0.0134 
     59 N         -47.0121  -27.1023   12.0616 N.am      6 UNK        -0.4116 
     60 C         -46.9236  -25.8255   12.4510 C.2       5 UNK         0.5034 
     61 O         -47.5567  -25.3666   13.4015 O.2       5 UNK        -0.5045 
     62 CA        -46.0136  -24.8773   11.6520 C.3       5 UNK         0.0224 
     63 CB        -44.6322  -24.7477   12.3214 C.3       5 UNK        -0.1978 
     64 N         -45.8948  -25.1698   10.2153 N.am      5 UNK        -0.4737 
     65 C         -45.2991  -26.2045    9.6012 C.2       4 UNK         0.5027 
     66 O         -44.7783  -27.1393   10.2091 O.2       4 UNK        -0.5211 
     67 CA        -45.2984  -26.2217    8.0588 C.3       4 UNK         0.0297 
     68 CB        -45.8135  -27.5671    7.5164 C.3       4 UNK        -0.1993 
     69 N         -46.1053  -25.1386    7.4899 N.am      4 UNK        -0.4486 
     70 C         -45.6378  -23.9280    7.1478 C.2       3 UNK         0.4961 
     71 O         -44.4463  -23.6216    7.1915 O.2       3 UNK        -0.5105 
     72 CA        -46.6631  -22.8624    6.7065 C.3       3 UNK         0.0299 
     73 CB        -46.6943  -22.7545    5.1743 C.3       3 UNK        -0.1972 
     74 N         -48.0210  -23.1037    7.2063 N.am      3 UNK        -0.4305 
     75 C         -48.3661  -23.0930    8.5041 C.2       2 UNK         0.5006 
     76 O         -47.5894  -22.7915    9.4100 O.2       2 UNK        -0.5106 
     77 CA        -49.7855  -23.5634    8.8740 C.3       2 UNK         0.0296 
     78 CB        -50.7144  -22.3618    9.1078 C.3       2 UNK        -0.2002 
     79 N         -50.3994  -24.4679    7.8966 N.am      2 UNK        -0.4032 
     80 C         -49.8866  -25.6398    7.4927 C.2       1 UNK         0.5000 
     81 O         -48.8192  -26.0962    7.9058 O.2       1 UNK        -0.5238 
     82 H82       -49.2209  -26.3654    2.7049 H         1 UNK         0.0889 
     83 H83       -48.1542  -24.9939    3.0103 H         1 UNK         0.0889 
     84 H84       -49.7667  -24.7274    2.3446 H         1 UNK         0.0889 
     85 H85       -50.0002  -27.1785    4.6078 H         1 UNK         0.3028 
     86 H86       -51.6948  -25.9822    6.3946 H         1 UNK         0.0864 
     87 H87       -50.9999  -27.9983    7.9193 H         1 UNK         0.0720 
     88 H88       -49.8908  -28.4328    6.6503 H         1 UNK         0.0720 
     89 H89       -52.6251  -31.1245    5.9719 H         1 UNK         0.0814 
     90 H90       -50.9488  -30.7761    5.6430 H         1 UNK         0.0814 
     91 H91       -49.3239  -30.7713    7.4176 H         1 UNK         0.1469 
     92 H92       -50.5537  -31.5065   11.4552 H         1 UNK         0.1381 
     93 H93       -53.4979  -30.8880    8.3929 H         1 UNK         0.1206 
     94 H94       -54.2131  -31.5354   10.5913 H         1 UNK         0.0813 
     95 H95       -53.0571  -32.2845   11.6737 H         1 UNK         0.0813 
     96 H96       -54.5114  -30.0148   14.2194 H         1 UNK         0.0638 
     97 H97       -54.9415  -31.3669   13.2039 H         1 UNK         0.0638 
     98 H98       -56.2645  -29.8697   11.7233 H         1 UNK         0.0568 
     99 H99       -57.8756  -31.3668   12.3794 H         1 UNK         0.3450 
    100 H100      -58.8148  -31.1421   13.8314 H         1 UNK         0.3450 
    101 H101      -54.9984  -27.7221   13.1459 H         1 UNK         0.2987 
    102 H102      -55.5791  -25.6655   11.0583 H         1 UNK         0.0766 
    103 H103      -57.0779  -23.7497   11.6651 H         1 UNK         0.0798 
    104 H104      -58.1261  -24.8563   12.5522 H         1 UNK         0.0798 
    105 H105      -57.9388  -25.0189   10.8133 H         1 UNK         0.0798 
    106 H106      -54.3931  -25.1049   12.8091 H         1 UNK         0.3198 
    107 H107      -53.8510  -24.1414   14.6571 H         1 UNK         0.0843 
    108 H108      -55.7960  -24.1214   17.0125 H         1 UNK         0.0831 
    109 H109      -55.6939  -22.8659   15.7860 H         1 UNK         0.0831 
    110 H110      -54.3227  -23.1644   16.8404 H         1 UNK         0.0831 
    111 H111      -53.5074  -25.4307   16.9219 H         1 UNK         0.3133 
    112 H112      -52.7603  -27.5619   17.4853 H         1 UNK         0.0566 
    113 H113      -51.4711  -29.5715   16.7271 H         1 UNK         0.0814 
    114 H114      -53.1440  -29.6343   16.1957 H         1 UNK         0.0814 
    115 H115      -51.8782  -29.2131   15.0509 H         1 UNK         0.0814 
    116 H116      -50.5635  -27.1443   15.5101 H         1 UNK         0.3091 
    117 H117      -49.3353  -24.2786   17.3395 H         1 UNK         0.0702 
    118 H118      -47.2940  -25.4454   16.5781 H         1 UNK         0.0785 
    119 H119      -48.2237  -26.8721   16.1319 H         1 UNK         0.0785 
    120 H120      -48.0868  -26.4006   17.8215 H         1 UNK         0.0785 
    121 H121      -48.9158  -25.0363   14.6332 H         1 UNK         0.2998 
    122 H122      -51.3884  -22.8960   13.1426 H         1 UNK         0.0697 
    123 H123      -48.3271  -22.9165   13.2822 H         1 UNK         0.0825 
    124 H124      -49.3959  -21.5339   13.3994 H         1 UNK         0.0825 
    125 H125      -49.2495  -22.3955   11.8771 H         1 UNK         0.0825 
    126 H126      -49.5241  -25.1368   12.5470 H         1 UNK         0.3029 
    127 H127      -51.8905  -27.4714   12.4875 H         1 UNK         0.0897 
    128 H128      -51.8654  -28.0391   10.0642 H         1 UNK         0.0792 
    129 H129      -51.5057  -26.3492    9.6792 H         1 UNK         0.0792 
    130 H130      -53.0294  -26.7825   10.4341 H         1 UNK         0.0792 
    131 H131      -49.4520  -27.2778   10.8963 H         1 UNK         0.3086 
    132 H132      -47.4315  -28.2180   13.7243 H         1 UNK         0.0583 
    133 H133      -46.6537  -29.9392   12.3639 H         1 UNK         0.1020 
    134 H134      -48.3576  -30.2517   12.4662 H         1 UNK         0.1020 
    135 H135      -47.7344  -31.6590    9.0840 H         1 UNK         0.0694 
    136 H136      -48.1915  -31.8769   10.7503 H         1 UNK         0.0694 
    137 H137      -46.4264  -27.3974   11.2867 H         1 UNK         0.2989 
    138 H138      -46.4886  -23.8960   11.7042 H         1 UNK         0.1055 
    139 H139      -44.7323  -24.4174   13.3563 H         1 UNK         0.0806 
    140 H140      -44.0098  -24.0154   11.8071 H         1 UNK         0.0806 
    141 H141      -44.0934  -25.6955   12.3368 H         1 UNK         0.0806 
    142 H142      -46.3232  -24.4685    9.6208 H         1 UNK         0.3061 
    143 H143      -44.2600  -26.1110    7.7400 H         1 UNK         0.0734 
    144 H144      -45.8103  -27.5844    6.4266 H         1 UNK         0.0832 
    145 H145      -45.1857  -28.3924    7.8544 H         1 UNK         0.0832 
    146 H146      -46.8289  -27.7782    7.8521 H         1 UNK         0.0832 
    147 H147      -47.1075  -25.3134    7.4643 H         1 UNK         0.3156 
    148 H148      -46.3310  -21.9027    7.1078 H         1 UNK         0.0589 
    149 H149      -46.9800  -23.6991    4.7122 H         1 UNK         0.0808 
    150 H150      -47.3967  -21.9903    4.8411 H         1 UNK         0.0808 
    151 H151      -45.7122  -22.4857    4.7827 H         1 UNK         0.0808 
    152 H152      -48.7193  -23.3697    6.5175 H         1 UNK         0.3098 
    153 H153      -49.6997  -24.1142    9.8127 H         1 UNK         0.0720 
    154 H154      -51.6739  -22.6776    9.5185 H         1 UNK         0.0791 
    155 H155      -50.9050  -21.8140    8.1841 H         1 UNK         0.0791 
    156 H156      -50.2782  -21.6576    9.8173 H         1 UNK         0.0791 
    157 H157      -51.2533  -24.1440    7.4646 H         1 UNK         0.3028 
@<TRIPOS>BOND
     1    1    2 1    
     2    1   82 1    
     3    1   83 1    
     4    1   84 1    
     5    2    3 2    
     6    2    4 am   BACKBONE|DICT|INTERRES
     7    4    5 1    
     8    4   85 1    
     9    5    6 1    
    10    5   80 1    
    11    5   86 1    
    12    6    7 1    
    13    6   87 1    
    14    6   88 1    
    15    7    8 1    
    16    8    9 1    
    17    8   89 1    
    18    8   90 1    
    19    9   10 ar   
    20    9   14 ar   
    21   10   11 ar   
    22   10   91 1    
    23   11   12 ar   
    24   11   58 1    
    25   12   13 ar   
    26   12   92 1    
    27   13   14 ar   
    28   13   15 1    
    29   14   93 1    
    30   15   16 1    
    31   15   94 1    
    32   15   95 1    
    33   16   17 1    
    34   17   18 1    
    35   17   96 1    
    36   17   97 1    
    37   18   19 1    
    38   18   22 1    
    39   18   98 1    
    40   19   20 am   BACKBONE|DICT|INTERRES
    41   19   21 2    
    42   20   99 1    
    43   20  100 1    
    44   22   23 am   BACKBONE|DICT|INTERRES
    45   22  101 1    
    46   23   24 2    
    47   23   25 1    
    48   25   26 1    
    49   25   27 1    
    50   25  102 1    
    51   26  103 1    
    52   26  104 1    
    53   26  105 1    
    54   27   28 am   BACKBONE|DICT|INTERRES
    55   27  106 1    
    56   28   29 2    
    57   28   30 1    
    58   30   31 1    
    59   30   32 1    
    60   30  107 1    
    61   31  108 1    
    62   31  109 1    
    63   31  110 1    
    64   32   33 am   BACKBONE|DICT|INTERRES
    65   32  111 1    
    66   33   34 2    
    67   33   35 1    
    68   35   36 1    
    69   35   37 1    
    70   35  112 1    
    71   36  113 1    
    72   36  114 1    
    73   36  115 1    
    74   37   38 am   BACKBONE|DICT|INTERRES
    75   37  116 1    
    76   38   39 2    
    77   38   40 1    
    78   40   41 1    
    79   40   42 1    
    80   40  117 1    
    81   41  118 1    
    82   41  119 1    
    83   41  120 1    
    84   42   43 am   BACKBONE|DICT|INTERRES
    85   42  121 1    
    86   43   44 2    
    87   43   45 1    
    88   45   46 1    
    89   45   47 1    
    90   45  122 1    
    91   46  123 1    
    92   46  124 1    
    93   46  125 1    
    94   47   48 am   BACKBONE|DICT|INTERRES
    95   47  126 1    
    96   48   49 2    
    97   48   50 1    
    98   50   51 1    
    99   50   52 1    
   100   50  127 1    
   101   51  128 1    
   102   51  129 1    
   103   51  130 1    
   104   52   53 am   BACKBONE|DICT|INTERRES
   105   52  131 1    
   106   53   54 2    
   107   53   55 1    
   108   55   56 1    
   109   55   59 1    
   110   55  132 1    
   111   56   57 1    
   112   56  133 1    
   113   56  134 1    
   114   57   58 1    
   115   58  135 1    
   116   58  136 1    
   117   59   60 am   BACKBONE|DICT|INTERRES
   118   59  137 1    
   119   60   61 2    
   120   60   62 1    
   121   62   63 1    
   122   62   64 1    
   123   62  138 1    
   124   63  139 1    
   125   63  140 1    
   126   63  141 1    
   127   64   65 am   BACKBONE|DICT|INTERRES
   128   64  142 1    
   129   65   66 2    
   130   65   67 1    
   131   67   68 1    
   132   67   69 1    
   133   67  143 1    
   134   68  144 1    
   135   68  145 1    
   136   68  146 1    
   137   69   70 am   BACKBONE|DICT|INTERRES
   138   69  147 1    
   139   70   71 2    
   140   70   72 1    
   141   72   73 1    
   142   72   74 1    
   143   72  148 1    
   144   73  149 1    
   145   73  150 1    
   146   73  151 1    
   147   74   75 am   BACKBONE|DICT|INTERRES
   148   74  152 1    
   149   75   76 2    
   150   75   77 1    
   151   77   78 1    
   152   77   79 1    
   153   77  153 1    
   154   78  154 1    
   155   78  155 1    
   156   78  156 1    
   157   79   80 am   BACKBONE|DICT|INTERRES
   158   79  157 1    
   159   80   81 2    
@<TRIPOS>SUBSTRUCTURE
     1 UNK         1 GROUP             0       ****    0 ROOT    
