@<TRIPOS>MOLECULE
3R207
157   159    1
SMALL
USER_CHARGES


@<TRIPOS>ATOM
      1 CA        -50.2386  -25.8032    3.3878 C.3       0 UNK        -0.1975 
      2 C         -49.6879  -26.8676    4.3245 C.2       0 UNK         0.4852 
      3 O         -48.9339  -27.7364    3.8837 O.2       0 UNK        -0.5216 
      4 N         -50.0487  -26.8006    5.6139 N.am      1 UNK        -0.4461 
      5 CA        -49.6709  -27.7093    6.7076 C.3       1 UNK         0.0864 
      6 C6        -50.0662  -29.1909    6.4449 C.3       14 UNK        -0.0898 
      7 S7        -50.5285  -30.0778    7.9723 S.3       14 UNK        -0.2598 
      8 C8        -52.3369  -30.2276    7.7945 C.3       14 UNK         0.0286 
      9 C9        -53.0501  -28.9247    8.1258 C.ar      14 UNK        -0.0844 
     10 C10       -53.1958  -27.9299    7.1546 C.ar      14 UNK        -0.0881 
     11 C11       -53.8246  -26.7222    7.4649 C.ar      14 UNK        -0.0643 
     12 C12       -54.3564  -26.5314    8.7432 C.ar      14 UNK        -0.0930 
     13 C13       -54.2089  -27.5125    9.7259 C.ar      14 UNK        -0.0827 
     14 C14       -53.5589  -28.7090    9.4101 C.ar      14 UNK        -0.1249 
     15 C15       -54.7071  -27.2540   11.1386 C.3       14 UNK         0.0141 
     16 S16       -56.1211  -28.3110   11.5643 S.3       14 UNK        -0.2313 
     17 C17       -56.5450  -27.6315   13.2022 C.3       14 UNK        -0.0915 
     18 CA        -56.2744  -28.5835   14.3964 C.3       13 UNK         0.0968 
     19 C         -57.2665  -29.7846   14.4268 C.2       13 UNK         0.5732 
     20 N         -56.8125  -31.0285   14.3224 N.am      13 UNK        -0.7310 
     21 O         -58.4706  -29.5828   14.5672 O.2       13 UNK        -0.5035 
     22 N         -54.8523  -28.9555   14.5361 N.am      13 UNK        -0.4233 
     23 C         -54.3064  -29.3332   15.6999 C.2       13 UNK         0.4989 
     24 O         -54.8930  -29.2501   16.7796 O.2       13 UNK        -0.4996 
     25 CA        -52.8887  -29.9316   15.6927 C.3       12 UNK         0.0216 
     26 CB        -52.9341  -31.4445   15.4001 C.3       12 UNK        -0.1964 
     27 N         -51.8974  -29.2531   14.8486 N.am      12 UNK        -0.4276 
     28 C         -51.8309  -29.1681   13.5121 C.2       12 UNK         0.5020 
     29 O         -52.7073  -29.6039   12.7656 O.2       12 UNK        -0.5489 
     30 CA        -50.5812  -28.4860   12.9139 C.3       11 UNK         0.0294 
     31 CB        -50.9057  -27.6784   11.6434 C.3       11 UNK        -0.2019 
     32 N         -49.9295  -27.6059   13.8878 N.am      11 UNK        -0.4493 
     33 C         -48.8702  -27.9322   14.6427 C.2       11 UNK         0.4932 
     34 O         -48.2636  -28.9986   14.5497 O.2       11 UNK        -0.5029 
     35 CA        -48.4469  -26.9185   15.7216 C.3       10 UNK         0.0280 
     36 CB        -47.5188  -25.8420   15.1370 C.3       10 UNK        -0.1976 
     37 N         -49.5893  -26.2777   16.3797 N.am      10 UNK        -0.4242 
     38 C         -50.4769  -26.9149   17.1588 C.2       10 UNK         0.5072 
     39 O         -50.4209  -28.1148   17.4263 O.2       10 UNK        -0.5224 
     40 CA        -51.6728  -26.0918   17.6412 C.3       9 UNK         0.0343 
     41 CB        -51.2545  -24.9284   18.5599 C.3       9 UNK        -0.2003 
     42 N         -52.3726  -25.6070   16.4601 N.am      9 UNK        -0.4272 
     43 C         -53.6487  -25.2377   16.3663 C.2       9 UNK         0.4988 
     44 O         -54.4156  -25.1702   17.3281 O.2       9 UNK        -0.5108 
     45 CA        -54.1419  -24.9023   14.9417 C.3       8 UNK         0.0248 
     46 CB        -55.5892  -24.3748   14.9287 C.3       8 UNK        -0.2001 
     47 N         -53.2873  -23.9575   14.2084 N.am      8 UNK        -0.4140 
     48 C         -52.0669  -24.2043   13.7124 C.2       8 UNK         0.5028 
     49 O         -51.4494  -25.2571   13.8977 O.2       8 UNK        -0.5428 
     50 CA        -51.4094  -23.0855   12.8906 C.3       7 UNK         0.0264 
     51 CB        -50.1125  -22.6104   13.5636 C.3       7 UNK        -0.1988 
     52 N         -51.1245  -23.5365   11.5246 N.am      7 UNK        -0.4454 
     53 C         -52.0785  -23.7753   10.6082 C.2       7 UNK         0.5027 
     54 O         -53.2766  -23.6072   10.8460 O.2       7 UNK        -0.5083 
     55 CA        -51.6667  -24.2986    9.2086 C.3       6 UNK         0.0844 
     56 C56       -52.5815  -23.7228    8.0834 C.3       14 UNK        -0.0967 
     57 S57       -52.3797  -24.5822    6.4862 S.3       14 UNK        -0.2604 
     58 C58       -53.8860  -25.6092    6.4312 C.3       14 UNK         0.0134 
     59 N         -50.2320  -24.1651    8.9230 N.am      6 UNK        -0.4116 
     60 C         -49.5650  -23.0223    8.7083 C.2       5 UNK         0.5034 
     61 O         -50.0856  -21.9057    8.7324 O.2       5 UNK        -0.5045 
     62 CA        -48.0540  -23.1562    8.4324 C.3       5 UNK         0.0224 
     63 CB        -47.2969  -21.8268    8.6343 C.3       5 UNK        -0.1978 
     64 N         -47.3869  -24.2231    9.1909 N.am      5 UNK        -0.4737 
     65 C         -47.3831  -24.3964   10.5234 C.2       4 UNK         0.5027 
     66 O         -48.1010  -23.7608   11.2942 O.2       4 UNK        -0.5211 
     67 CA        -46.4203  -25.4481   11.1075 C.3       4 UNK         0.0297 
     68 CB        -47.1891  -26.6659   11.6384 C.3       4 UNK        -0.1993 
     69 N         -45.4059  -25.8959   10.1525 N.am      4 UNK        -0.4486 
     70 C         -44.3416  -25.1736    9.7730 C.2       3 UNK         0.4961 
     71 O         -44.0336  -24.0940   10.2785 O.2       3 UNK        -0.5105 
     72 CA        -43.4818  -25.7332    8.6230 C.3       3 UNK         0.0299 
     73 CB        -42.1745  -26.3286    9.1709 C.3       3 UNK        -0.1972 
     74 N         -44.1610  -26.7424    7.8023 N.am      3 UNK        -0.4305 
     75 C         -45.2345  -26.5262    7.0283 C.2       2 UNK         0.5006 
     76 O         -45.7662  -25.4211    6.8983 O.2       2 UNK        -0.5106 
     77 CA        -45.8152  -27.7480    6.2850 C.3       2 UNK         0.0296 
     78 CB        -45.3909  -29.1057    6.8920 C.3       2 UNK        -0.2002 
     79 N         -47.2756  -27.7053    6.1553 N.am      2 UNK        -0.4032 
     80 C         -48.1904  -27.5840    7.1286 C.2       1 UNK         0.5000 
     81 O         -47.9160  -27.3861    8.3126 O.2       1 UNK        -0.5238 
     82 H82       -50.8710  -26.2637    2.6293 H         1 UNK         0.0889 
     83 H83       -49.4212  -25.2884    2.8836 H         1 UNK         0.0889 
     84 H84       -50.8313  -25.0575    3.9167 H         1 UNK         0.0889 
     85 H85       -50.6616  -26.0446    5.8960 H         1 UNK         0.3028 
     86 H86       -50.2585  -27.3532    7.5561 H         1 UNK         0.0864 
     87 H87       -49.2605  -29.7404    5.9541 H         1 UNK         0.0720 
     88 H88       -50.9001  -29.2467    5.7457 H         1 UNK         0.0720 
     89 H89       -52.6852  -31.0176    8.4616 H         1 UNK         0.0814 
     90 H90       -52.5904  -30.5557    6.7854 H         1 UNK         0.0814 
     91 H91       -52.7977  -28.0799    6.1616 H         1 UNK         0.1469 
     92 H92       -54.8501  -25.6015    8.9879 H         1 UNK         0.1381 
     93 H93       -53.4385  -29.4662   10.1735 H         1 UNK         0.1206 
     94 H94       -54.9909  -26.2064   11.2545 H         1 UNK         0.0813 
     95 H95       -53.9028  -27.4307   11.8507 H         1 UNK         0.0813 
     96 H96       -57.5971  -27.3417   13.1806 H         1 UNK         0.0638 
     97 H97       -56.0031  -26.7004   13.3528 H         1 UNK         0.0638 
     98 H98       -56.5308  -28.0013   15.2839 H         1 UNK         0.0568 
     99 H99       -57.4657  -31.7951   14.3506 H         1 UNK         0.3450 
    100 H100      -55.8305  -31.2049   14.1897 H         1 UNK         0.3450 
    101 H101      -54.3169  -29.1004   13.6834 H         1 UNK         0.2987 
    102 H102      -52.5119  -29.8179   16.7106 H         1 UNK         0.0766 
    103 H103      -51.9497  -31.8983   15.5142 H         1 UNK         0.0798 
    104 H104      -53.2845  -31.6570   14.3897 H         1 UNK         0.0798 
    105 H105      -53.6068  -31.9554   16.0905 H         1 UNK         0.0798 
    106 H106      -51.1300  -28.8424   15.3657 H         1 UNK         0.3198 
    107 H107      -49.8972  -29.2867   12.6256 H         1 UNK         0.0843 
    108 H108      -51.6527  -26.9079   11.8287 H         1 UNK         0.0831 
    109 H109      -51.2864  -28.3308   10.8587 H         1 UNK         0.0831 
    110 H110      -50.0215  -27.1890   11.2397 H         1 UNK         0.0831 
    111 H111      -50.3711  -26.6939   14.0069 H         1 UNK         0.3133 
    112 H112      -47.8883  -27.4647   16.4848 H         1 UNK         0.0566 
    113 H113      -47.1424  -25.1780   15.9152 H         1 UNK         0.0814 
    114 H114      -48.0255  -25.2295   14.3913 H         1 UNK         0.0814 
    115 H115      -46.6514  -26.2947   14.6547 H         1 UNK         0.0814 
    116 H116      -49.7146  -25.2909   16.2066 H         1 UNK         0.3091 
    117 H117      -52.3376  -26.7585   18.1951 H         1 UNK         0.0702 
    118 H118      -52.1264  -24.4132   18.9632 H         1 UNK         0.0785 
    119 H119      -50.6468  -24.1895   18.0368 H         1 UNK         0.0785 
    120 H120      -50.6736  -25.2917   19.4087 H         1 UNK         0.0785 
    121 H121      -51.8518  -25.6252   15.5842 H         1 UNK         0.2998 
    122 H122      -54.1260  -25.8447   14.3911 H         1 UNK         0.0697 
    123 H123      -55.6788  -23.4329   15.4714 H         1 UNK         0.0825 
    124 H124      -56.2712  -25.0863   15.3966 H         1 UNK         0.0825 
    125 H125      -55.9451  -24.2114   13.9112 H         1 UNK         0.0825 
    126 H126      -53.6967  -23.0527   14.0249 H         1 UNK         0.3029 
    127 H127      -52.0903  -22.2335   12.8329 H         1 UNK         0.0897 
    128 H128      -49.3857  -23.4176   13.6528 H         1 UNK         0.0792 
    129 H129      -50.3072  -22.2334   14.5684 H         1 UNK         0.0792 
    130 H130      -49.6446  -21.8045   12.9977 H         1 UNK         0.0792 
    131 H131      -50.1480  -23.6958   11.2950 H         1 UNK         0.3086 
    132 H132      -51.8422  -25.3737    9.2581 H         1 UNK         0.0583 
    133 H133      -53.6343  -23.7667    8.3620 H         1 UNK         0.1020 
    134 H134      -52.3859  -22.6617    7.9276 H         1 UNK         0.1020 
    135 H135      -54.7681  -24.9857    6.5853 H         1 UNK         0.0694 
    136 H136      -53.9859  -26.0363    5.4322 H         1 UNK         0.0694 
    137 H137      -49.6988  -25.0227    8.9214 H         1 UNK         0.2989 
    138 H138      -47.9653  -23.4304    7.3796 H         1 UNK         0.1055 
    139 H139      -47.3808  -21.4692    9.6613 H         1 UNK         0.0806 
    140 H140      -47.6896  -21.0454    7.9824 H         1 UNK         0.0806 
    141 H141      -46.2371  -21.9360    8.4032 H         1 UNK         0.0806 
    142 H142      -46.7940  -24.8315    8.6348 H         1 UNK         0.3061 
    143 H143      -45.9160  -24.9763   11.9537 H         1 UNK         0.0734 
    144 H144      -47.6225  -27.2619   10.8371 H         1 UNK         0.0832 
    145 H145      -46.5449  -27.3181   12.2279 H         1 UNK         0.0832 
    146 H146      -48.0090  -26.3499   12.2812 H         1 UNK         0.0832 
    147 H147      -45.5977  -26.7609    9.6668 H         1 UNK         0.3156 
    148 H148      -43.2285  -24.8938    7.9721 H         1 UNK         0.0589 
    149 H149      -42.3609  -27.1871    9.8175 H         1 UNK         0.0808 
    150 H150      -41.6263  -25.5914    9.7596 H         1 UNK         0.0808 
    151 H151      -41.5145  -26.6500    8.3649 H         1 UNK         0.0808 
    152 H152      -43.7911  -27.6813    7.8475 H         1 UNK         0.3098 
    153 H153      -45.4208  -27.6978    5.2692 H         1 UNK         0.0720 
    154 H154      -44.3129  -29.2584    6.8290 H         1 UNK         0.0791 
    155 H155      -45.8529  -29.9342    6.3545 H         1 UNK         0.0791 
    156 H156      -45.6845  -29.1927    7.9392 H         1 UNK         0.0791 
    157 H157      -47.6434  -27.8028    5.2109 H         1 UNK         0.3028 
@<TRIPOS>BOND
     1    1    2 1    
     2    1   82 1    
     3    1   83 1    
     4    1   84 1    
     5    2    3 2    
     6    2    4 am   BACKBONE|DICT|INTERRES
     7    4    5 1    
     8    4   85 1    
     9    5    6 1    
    10    5   80 1    
    11    5   86 1    
    12    6    7 1    
    13    6   87 1    
    14    6   88 1    
    15    7    8 1    
    16    8    9 1    
    17    8   89 1    
    18    8   90 1    
    19    9   10 ar   
    20    9   14 ar   
    21   10   11 ar   
    22   10   91 1    
    23   11   12 ar   
    24   11   58 1    
    25   12   13 ar   
    26   12   92 1    
    27   13   14 ar   
    28   13   15 1    
    29   14   93 1    
    30   15   16 1    
    31   15   94 1    
    32   15   95 1    
    33   16   17 1    
    34   17   18 1    
    35   17   96 1    
    36   17   97 1    
    37   18   19 1    
    38   18   22 1    
    39   18   98 1    
    40   19   20 am   BACKBONE|DICT|INTERRES
    41   19   21 2    
    42   20   99 1    
    43   20  100 1    
    44   22   23 am   BACKBONE|DICT|INTERRES
    45   22  101 1    
    46   23   24 2    
    47   23   25 1    
    48   25   26 1    
    49   25   27 1    
    50   25  102 1    
    51   26  103 1    
    52   26  104 1    
    53   26  105 1    
    54   27   28 am   BACKBONE|DICT|INTERRES
    55   27  106 1    
    56   28   29 2    
    57   28   30 1    
    58   30   31 1    
    59   30   32 1    
    60   30  107 1    
    61   31  108 1    
    62   31  109 1    
    63   31  110 1    
    64   32   33 am   BACKBONE|DICT|INTERRES
    65   32  111 1    
    66   33   34 2    
    67   33   35 1    
    68   35   36 1    
    69   35   37 1    
    70   35  112 1    
    71   36  113 1    
    72   36  114 1    
    73   36  115 1    
    74   37   38 am   BACKBONE|DICT|INTERRES
    75   37  116 1    
    76   38   39 2    
    77   38   40 1    
    78   40   41 1    
    79   40   42 1    
    80   40  117 1    
    81   41  118 1    
    82   41  119 1    
    83   41  120 1    
    84   42   43 am   BACKBONE|DICT|INTERRES
    85   42  121 1    
    86   43   44 2    
    87   43   45 1    
    88   45   46 1    
    89   45   47 1    
    90   45  122 1    
    91   46  123 1    
    92   46  124 1    
    93   46  125 1    
    94   47   48 am   BACKBONE|DICT|INTERRES
    95   47  126 1    
    96   48   49 2    
    97   48   50 1    
    98   50   51 1    
    99   50   52 1    
   100   50  127 1    
   101   51  128 1    
   102   51  129 1    
   103   51  130 1    
   104   52   53 am   BACKBONE|DICT|INTERRES
   105   52  131 1    
   106   53   54 2    
   107   53   55 1    
   108   55   56 1    
   109   55   59 1    
   110   55  132 1    
   111   56   57 1    
   112   56  133 1    
   113   56  134 1    
   114   57   58 1    
   115   58  135 1    
   116   58  136 1    
   117   59   60 am   BACKBONE|DICT|INTERRES
   118   59  137 1    
   119   60   61 2    
   120   60   62 1    
   121   62   63 1    
   122   62   64 1    
   123   62  138 1    
   124   63  139 1    
   125   63  140 1    
   126   63  141 1    
   127   64   65 am   BACKBONE|DICT|INTERRES
   128   64  142 1    
   129   65   66 2    
   130   65   67 1    
   131   67   68 1    
   132   67   69 1    
   133   67  143 1    
   134   68  144 1    
   135   68  145 1    
   136   68  146 1    
   137   69   70 am   BACKBONE|DICT|INTERRES
   138   69  147 1    
   139   70   71 2    
   140   70   72 1    
   141   72   73 1    
   142   72   74 1    
   143   72  148 1    
   144   73  149 1    
   145   73  150 1    
   146   73  151 1    
   147   74   75 am   BACKBONE|DICT|INTERRES
   148   74  152 1    
   149   75   76 2    
   150   75   77 1    
   151   77   78 1    
   152   77   79 1    
   153   77  153 1    
   154   78  154 1    
   155   78  155 1    
   156   78  156 1    
   157   79   80 am   BACKBONE|DICT|INTERRES
   158   79  157 1    
   159   80   81 2    
@<TRIPOS>SUBSTRUCTURE
     1 UNK         1 GROUP             0       ****    0 ROOT    
