@<TRIPOS>MOLECULE
3R207
157   159    1
SMALL
USER_CHARGES


@<TRIPOS>ATOM
      1 CA        -49.4363  -30.6655    9.1542 C.3       0 UNK        -0.1975 
      2 C         -49.3580  -30.3036    7.6795 C.2       0 UNK         0.4852 
      3 O         -48.4193  -30.7198    7.0001 O.2       0 UNK        -0.5216 
      4 N         -50.3368  -29.5378    7.1779 N.am      1 UNK        -0.4461 
      5 CA        -50.4505  -29.1573    5.7623 C.3       1 UNK         0.0864 
      6 C6        -51.8833  -28.6988    5.3936 C.3       14 UNK        -0.0898 
      7 S7        -53.1179  -30.0201    5.6538 S.3       14 UNK        -0.2598 
      8 C8        -54.2465  -29.2788    6.8760 C.3       14 UNK         0.0286 
      9 C9        -53.6059  -29.1610    8.2510 C.ar      14 UNK        -0.0844 
     10 C10       -53.0759  -27.9405    8.6766 C.ar      14 UNK        -0.0881 
     11 C11       -52.4826  -27.8268    9.9354 C.ar      14 UNK        -0.0643 
     12 C12       -52.4476  -28.9349   10.7835 C.ar      14 UNK        -0.0930 
     13 C13       -52.9844  -30.1605   10.3758 C.ar      14 UNK        -0.0827 
     14 C14       -53.5529  -30.2695    9.1023 C.ar      14 UNK        -0.1249 
     15 C15       -52.9320  -31.3667   11.3061 C.3       14 UNK         0.0141 
     16 S16       -53.6121  -31.0069   12.9613 S.3       14 UNK        -0.2313 
     17 C17       -55.3948  -31.3898   12.8239 C.3       14 UNK        -0.0915 
     18 CA        -56.1493  -30.8431   11.5732 C.3       13 UNK         0.0968 
     19 C         -57.6500  -31.2677   11.5614 C.2       13 UNK         0.5732 
     20 N         -58.5721  -30.4401   11.0836 N.am      13 UNK        -0.7310 
     21 O         -57.9861  -32.3813   11.9584 O.2       13 UNK        -0.5035 
     22 N         -55.9181  -29.4118   11.3046 N.am      13 UNK        -0.4233 
     23 C         -56.1905  -28.3889   12.1208 C.2       13 UNK         0.4989 
     24 O         -56.6583  -28.5000   13.2572 O.2       13 UNK        -0.4996 
     25 CA        -55.9312  -26.9918   11.5488 C.3       12 UNK         0.0216 
     26 CB        -57.1512  -26.4964   10.7474 C.3       12 UNK        -0.1964 
     27 N         -55.6415  -26.0978   12.6630 N.am      12 UNK        -0.4276 
     28 C         -55.1029  -24.8762   12.5852 C.2       12 UNK         0.5020 
     29 O         -54.8551  -24.2948   11.5281 O.2       12 UNK        -0.5489 
     30 CA        -54.7590  -24.1938   13.9229 C.3       11 UNK         0.0294 
     31 CB        -55.9695  -23.4124   14.4594 C.3       11 UNK        -0.2019 
     32 N         -54.2824  -25.1306   14.9493 N.am      11 UNK        -0.4493 
     33 C         -53.1515  -25.8412   14.8440 C.2       11 UNK         0.4932 
     34 O         -52.3947  -25.7791   13.8773 O.2       11 UNK        -0.5029 
     35 CA        -52.8329  -26.8108   15.9836 C.3       10 UNK         0.0280 
     36 CB        -53.5868  -28.1396   15.7778 C.3       10 UNK        -0.1976 
     37 N         -51.3896  -27.0451   16.0130 N.am      10 UNK        -0.4242 
     38 C         -50.7117  -27.5650   17.0439 C.2       10 UNK         0.5072 
     39 O         -51.2327  -27.8983   18.1095 O.2       10 UNK        -0.5224 
     40 CA        -49.1972  -27.7409   16.8666 C.3       9 UNK         0.0343 
     41 CB        -48.8876  -28.9153   15.9218 C.3       9 UNK        -0.2003 
     42 N         -48.5782  -26.5180   16.3561 N.am      9 UNK        -0.4272 
     43 C         -48.0547  -25.5521   17.1256 C.2       9 UNK         0.4988 
     44 O         -48.0123  -25.6068   18.3554 O.2       9 UNK        -0.5108 
     45 CA        -47.4579  -24.3180   16.4207 C.3       8 UNK         0.0248 
     46 CB        -45.9353  -24.4699   16.2734 C.3       8 UNK        -0.2001 
     47 N         -48.0411  -24.0611   15.1037 N.am      8 UNK        -0.4140 
     48 C         -49.2873  -23.6103   14.8977 C.2       8 UNK         0.5028 
     49 O         -50.0462  -23.2642   15.8039 O.2       8 UNK        -0.5428 
     50 CA        -49.7828  -23.5509   13.4399 C.3       7 UNK         0.0264 
     51 CB        -49.6561  -22.1220   12.8894 C.3       7 UNK        -0.1988 
     52 N         -49.1148  -24.4812   12.5213 N.am      7 UNK        -0.4454 
     53 C         -49.0254  -25.8130   12.6724 C.2       7 UNK         0.5027 
     54 O         -49.4782  -26.4279   13.6388 O.2       7 UNK        -0.5083 
     55 CA        -48.2429  -26.5956   11.5996 C.3       6 UNK         0.0844 
     56 C56       -49.1759  -27.3397   10.6146 C.3       14 UNK        -0.0967 
     57 S57       -50.2471  -26.2575    9.6077 S.3       14 UNK        -0.2604 
     58 C58       -51.8771  -26.5049   10.3714 C.3       14 UNK         0.0134 
     59 N         -47.2062  -25.8059   10.9231 N.am      6 UNK        -0.4116 
     60 C         -46.1060  -25.3347   11.5311 C.2       5 UNK         0.5034 
     61 O         -45.9170  -25.4006   12.7468 O.2       5 UNK        -0.5045 
     62 CA        -45.0301  -24.6948   10.6457 C.3       5 UNK         0.0224 
     63 CB        -44.2600  -25.7777    9.8707 C.3       5 UNK        -0.1978 
     64 N         -45.6049  -23.7428    9.6962 N.am      5 UNK        -0.4737 
     65 C         -45.4325  -22.4153    9.7454 C.2       4 UNK         0.5027 
     66 O         -44.7852  -21.8423   10.6224 O.2       4 UNK        -0.5211 
     67 CA        -46.0611  -21.5716    8.6193 C.3       4 UNK         0.0297 
     68 CB        -44.9907  -21.1789    7.5877 C.3       4 UNK        -0.1993 
     69 N         -47.1689  -22.2335    7.9264 N.am      4 UNK        -0.4486 
     70 C         -48.3682  -22.4742    8.4707 C.2       3 UNK         0.4961 
     71 O         -48.6817  -22.1396    9.6126 O.2       3 UNK        -0.5105 
     72 CA        -49.3865  -23.2343    7.6032 C.3       3 UNK         0.0299 
     73 CB        -50.2110  -22.2439    6.7651 C.3       3 UNK        -0.1972 
     74 N         -48.8380  -24.2756    6.7198 N.am      3 UNK        -0.4305 
     75 C         -47.9827  -25.2521    7.0583 C.2       2 UNK         0.5006 
     76 O         -47.4129  -25.3360    8.1477 O.2       2 UNK        -0.5106 
     77 CA        -47.7835  -26.3615    6.0255 C.3       2 UNK         0.0296 
     78 CB        -46.3887  -27.0101    6.1226 C.3       2 UNK        -0.2002 
     79 N         -48.8138  -27.3694    6.2630 N.am      2 UNK        -0.4032 
     80 C         -49.4033  -28.1107    5.3159 C.2       1 UNK         0.5000 
     81 O         -49.1465  -28.0021    4.1149 O.2       1 UNK        -0.5238 
     82 H82       -50.1823  -30.0703    9.6755 H         1 UNK         0.0889 
     83 H83       -48.4735  -30.5003    9.6368 H         1 UNK         0.0889 
     84 H84       -49.6995  -31.7166    9.2683 H         1 UNK         0.0889 
     85 H85       -51.1075  -29.2562    7.7704 H         1 UNK         0.3028 
     86 H86       -50.2391  -30.0528    5.1731 H         1 UNK         0.0864 
     87 H87       -52.1592  -27.8035    5.9516 H         1 UNK         0.0720 
     88 H88       -51.9340  -28.4207    4.3390 H         1 UNK         0.0720 
     89 H89       -55.1412  -29.8991    6.9468 H         1 UNK         0.0814 
     90 H90       -54.5835  -28.3044    6.5186 H         1 UNK         0.0814 
     91 H91       -53.1123  -27.0763    8.0272 H         1 UNK         0.1469 
     92 H92       -52.0009  -28.8451   11.7645 H         1 UNK         0.1381 
     93 H93       -53.9589  -31.2158    8.7710 H         1 UNK         0.1206 
     94 H94       -53.4473  -32.2272   10.8771 H         1 UNK         0.0813 
     95 H95       -51.8886  -31.6630   11.4200 H         1 UNK         0.0813 
     96 H96       -55.4823  -32.4770   12.8612 H         1 UNK         0.0638 
     97 H97       -55.8726  -31.0266   13.7350 H         1 UNK         0.0638 
     98 H98       -55.7369  -31.3575   10.7064 H         1 UNK         0.0568 
     99 H99       -59.5362  -30.7329   11.0708 H         1 UNK         0.3450 
    100 H100      -58.3161  -29.5284   10.7431 H         1 UNK         0.3450 
    101 H101      -55.5093  -29.2126   10.4026 H         1 UNK         0.2987 
    102 H102      -55.0550  -27.0304   10.8992 H         1 UNK         0.0766 
    103 H103      -56.9727  -25.5139   10.3106 H         1 UNK         0.0798 
    104 H104      -58.0413  -26.4262   11.3740 H         1 UNK         0.0798 
    105 H105      -57.3811  -27.1731    9.9237 H         1 UNK         0.0798 
    106 H106      -55.8081  -26.5113   13.5724 H         1 UNK         0.3198 
    107 H107      -53.9539  -23.4820   13.7264 H         1 UNK         0.0843 
    108 H108      -56.3275  -22.6950   13.7195 H         1 UNK         0.0831 
    109 H109      -55.7132  -22.8482   15.3563 H         1 UNK         0.0831 
    110 H110      -56.8034  -24.0722   14.7022 H         1 UNK         0.0831 
    111 H111      -54.8548  -25.2376   15.7750 H         1 UNK         0.3133 
    112 H112      -53.1382  -26.3527   16.9266 H         1 UNK         0.0566 
    113 H113      -53.4018  -28.8387   16.5932 H         1 UNK         0.0814 
    114 H114      -54.6649  -27.9814   15.7296 H         1 UNK         0.0814 
    115 H115      -53.2889  -28.6253   14.8478 H         1 UNK         0.0814 
    116 H116      -50.8991  -26.7690   15.1645 H         1 UNK         0.3091 
    117 H117      -48.7716  -27.9856   17.8424 H         1 UNK         0.0702 
    118 H118      -47.8131  -29.0695   15.8226 H         1 UNK         0.0785 
    119 H119      -49.2960  -28.7589   14.9229 H         1 UNK         0.0785 
    120 H120      -49.3143  -29.8434   16.3044 H         1 UNK         0.0785 
    121 H121      -48.6427  -26.3724   15.3528 H         1 UNK         0.2998 
    122 H122      -47.6544  -23.4505   17.0545 H         1 UNK         0.0697 
    123 H123      -45.6740  -25.3154   15.6352 H         1 UNK         0.0825 
    124 H124      -45.4631  -24.6346   17.2429 H         1 UNK         0.0825 
    125 H125      -45.4861  -23.5745   15.8432 H         1 UNK         0.0825 
    126 H126      -47.4854  -24.3252   14.3003 H         1 UNK         0.3029 
    127 H127      -50.8414  -23.8114   13.4518 H         1 UNK         0.0897 
    128 H128      -50.1434  -22.0289   11.9188 H         1 UNK         0.0792 
    129 H129      -50.1302  -21.4002   13.5560 H         1 UNK         0.0792 
    130 H130      -48.6132  -21.8247   12.7717 H         1 UNK         0.0792 
    131 H131      -48.7161  -24.0767   11.6850 H         1 UNK         0.3086 
    132 H132      -47.7060  -27.3737   12.1474 H         1 UNK         0.0583 
    133 H133      -48.5700  -27.9336    9.9298 H         1 UNK         0.1020 
    134 H134      -49.7857  -28.0598   11.1608 H         1 UNK         0.1020 
    135 H135      -51.7878  -26.4542   11.4564 H         1 UNK         0.0694 
    136 H136      -52.5367  -25.6857   10.0811 H         1 UNK         0.0694 
    137 H137      -47.3108  -25.6864    9.9170 H         1 UNK         0.2989 
    138 H138      -44.3219  -24.1932   11.3094 H         1 UNK         0.1055 
    139 H139      -43.8283  -26.5136   10.5505 H         1 UNK         0.0806 
    140 H140      -43.4387  -25.3439    9.3002 H         1 UNK         0.0806 
    141 H141      -44.9031  -26.3145    9.1718 H         1 UNK         0.0806 
    142 H142      -46.1986  -24.1338    8.9693 H         1 UNK         0.3061 
    143 H143      -46.4468  -20.6574    9.0758 H         1 UNK         0.0734 
    144 H144      -44.1636  -20.6516    8.0654 H         1 UNK         0.0832 
    145 H145      -44.5725  -22.0530    7.0868 H         1 UNK         0.0832 
    146 H146      -45.3972  -20.5145    6.8249 H         1 UNK         0.0832 
    147 H147      -46.9978  -22.5541    6.9844 H         1 UNK         0.3156 
    148 H148      -50.0732  -23.7302    8.2894 H         1 UNK         0.0589 
    149 H149      -49.6000  -21.7460    6.0112 H         1 UNK         0.0808 
    150 H150      -51.0352  -22.7432    6.2554 H         1 UNK         0.0808 
    151 H151      -50.6481  -21.4675    7.3950 H         1 UNK         0.0808 
    152 H152      -49.2466  -24.3178    5.7971 H         1 UNK         0.3098 
    153 H153      -47.8971  -25.9262    5.0303 H         1 UNK         0.0720 
    154 H154      -46.2441  -27.7527    5.3379 H         1 UNK         0.0791 
    155 H155      -46.2389  -27.5075    7.0818 H         1 UNK         0.0791 
    156 H156      -45.6013  -26.2632    6.0139 H         1 UNK         0.0791 
    157 H157      -49.1040  -27.4863    7.2246 H         1 UNK         0.3028 
@<TRIPOS>BOND
     1    1    2 1    
     2    1   82 1    
     3    1   83 1    
     4    1   84 1    
     5    2    3 2    
     6    2    4 am   BACKBONE|DICT|INTERRES
     7    4    5 1    
     8    4   85 1    
     9    5    6 1    
    10    5   80 1    
    11    5   86 1    
    12    6    7 1    
    13    6   87 1    
    14    6   88 1    
    15    7    8 1    
    16    8    9 1    
    17    8   89 1    
    18    8   90 1    
    19    9   10 ar   
    20    9   14 ar   
    21   10   11 ar   
    22   10   91 1    
    23   11   12 ar   
    24   11   58 1    
    25   12   13 ar   
    26   12   92 1    
    27   13   14 ar   
    28   13   15 1    
    29   14   93 1    
    30   15   16 1    
    31   15   94 1    
    32   15   95 1    
    33   16   17 1    
    34   17   18 1    
    35   17   96 1    
    36   17   97 1    
    37   18   19 1    
    38   18   22 1    
    39   18   98 1    
    40   19   20 am   BACKBONE|DICT|INTERRES
    41   19   21 2    
    42   20   99 1    
    43   20  100 1    
    44   22   23 am   BACKBONE|DICT|INTERRES
    45   22  101 1    
    46   23   24 2    
    47   23   25 1    
    48   25   26 1    
    49   25   27 1    
    50   25  102 1    
    51   26  103 1    
    52   26  104 1    
    53   26  105 1    
    54   27   28 am   BACKBONE|DICT|INTERRES
    55   27  106 1    
    56   28   29 2    
    57   28   30 1    
    58   30   31 1    
    59   30   32 1    
    60   30  107 1    
    61   31  108 1    
    62   31  109 1    
    63   31  110 1    
    64   32   33 am   BACKBONE|DICT|INTERRES
    65   32  111 1    
    66   33   34 2    
    67   33   35 1    
    68   35   36 1    
    69   35   37 1    
    70   35  112 1    
    71   36  113 1    
    72   36  114 1    
    73   36  115 1    
    74   37   38 am   BACKBONE|DICT|INTERRES
    75   37  116 1    
    76   38   39 2    
    77   38   40 1    
    78   40   41 1    
    79   40   42 1    
    80   40  117 1    
    81   41  118 1    
    82   41  119 1    
    83   41  120 1    
    84   42   43 am   BACKBONE|DICT|INTERRES
    85   42  121 1    
    86   43   44 2    
    87   43   45 1    
    88   45   46 1    
    89   45   47 1    
    90   45  122 1    
    91   46  123 1    
    92   46  124 1    
    93   46  125 1    
    94   47   48 am   BACKBONE|DICT|INTERRES
    95   47  126 1    
    96   48   49 2    
    97   48   50 1    
    98   50   51 1    
    99   50   52 1    
   100   50  127 1    
   101   51  128 1    
   102   51  129 1    
   103   51  130 1    
   104   52   53 am   BACKBONE|DICT|INTERRES
   105   52  131 1    
   106   53   54 2    
   107   53   55 1    
   108   55   56 1    
   109   55   59 1    
   110   55  132 1    
   111   56   57 1    
   112   56  133 1    
   113   56  134 1    
   114   57   58 1    
   115   58  135 1    
   116   58  136 1    
   117   59   60 am   BACKBONE|DICT|INTERRES
   118   59  137 1    
   119   60   61 2    
   120   60   62 1    
   121   62   63 1    
   122   62   64 1    
   123   62  138 1    
   124   63  139 1    
   125   63  140 1    
   126   63  141 1    
   127   64   65 am   BACKBONE|DICT|INTERRES
   128   64  142 1    
   129   65   66 2    
   130   65   67 1    
   131   67   68 1    
   132   67   69 1    
   133   67  143 1    
   134   68  144 1    
   135   68  145 1    
   136   68  146 1    
   137   69   70 am   BACKBONE|DICT|INTERRES
   138   69  147 1    
   139   70   71 2    
   140   70   72 1    
   141   72   73 1    
   142   72   74 1    
   143   72  148 1    
   144   73  149 1    
   145   73  150 1    
   146   73  151 1    
   147   74   75 am   BACKBONE|DICT|INTERRES
   148   74  152 1    
   149   75   76 2    
   150   75   77 1    
   151   77   78 1    
   152   77   79 1    
   153   77  153 1    
   154   78  154 1    
   155   78  155 1    
   156   78  156 1    
   157   79   80 am   BACKBONE|DICT|INTERRES
   158   79  157 1    
   159   80   81 2    
@<TRIPOS>SUBSTRUCTURE
     1 UNK         1 GROUP             0       ****    0 ROOT    
