@<TRIPOS>MOLECULE
3R207
157   159    1
SMALL
USER_CHARGES


@<TRIPOS>ATOM
      1 CA        -46.4624  -31.8051    4.0341 C.3       0 UNK        -0.1975 
      2 C         -47.0750  -30.4920    4.4982 C.2       0 UNK         0.4852 
      3 O         -47.6212  -29.7500    3.6812 O.2       0 UNK        -0.5216 
      4 N         -46.9880  -30.2016    5.8037 N.am      1 UNK        -0.4461 
      5 CA        -47.5289  -28.9910    6.4394 C.3       1 UNK         0.0864 
      6 C6        -47.5591  -29.1179    7.9829 C.3       14 UNK        -0.0898 
      7 S7        -48.4832  -30.5850    8.5621 S.3       14 UNK        -0.2598 
      8 C8        -49.4999  -29.8881    9.9083 C.3       14 UNK         0.0286 
      9 C9        -50.8730  -29.3877    9.4652 C.ar      14 UNK        -0.0844 
     10 C10       -51.0370  -28.6410    8.2942 C.ar      14 UNK        -0.0881 
     11 C11       -52.2863  -28.1266    7.9379 C.ar      14 UNK        -0.0643 
     12 C12       -53.3917  -28.3803    8.7556 C.ar      14 UNK        -0.0930 
     13 C13       -53.2491  -29.1390    9.9219 C.ar      14 UNK        -0.0827 
     14 C14       -51.9894  -29.6367   10.2700 C.ar      14 UNK        -0.1249 
     15 C15       -54.4559  -29.4391   10.7989 C.3       14 UNK         0.0141 
     16 S16       -54.3733  -28.5566   12.3879 S.3       14 UNK        -0.2313 
     17 C17       -55.9510  -29.0699   13.1487 C.3       14 UNK        -0.0915 
     18 CA        -56.8794  -27.8749   13.4932 C.3       13 UNK         0.0968 
     19 C         -58.2913  -28.3894   13.9086 C.2       13 UNK         0.5732 
     20 N         -58.7211  -28.2564   15.1590 N.am      13 UNK        -0.7310 
     21 O         -59.0162  -28.9198   13.0701 O.2       13 UNK        -0.5035 
     22 N         -56.2550  -26.9613   14.4638 N.am      13 UNK        -0.4233 
     23 C         -56.7067  -25.7355   14.7616 C.2       13 UNK         0.4989 
     24 O         -57.6104  -25.1755   14.1387 O.2       13 UNK        -0.4996 
     25 CA        -56.0474  -25.0193   15.9610 C.3       12 UNK         0.0216 
     26 CB        -56.9888  -23.9896   16.6210 C.3       12 UNK        -0.1964 
     27 N         -55.4972  -25.9334   16.9730 N.am      12 UNK        -0.4276 
     28 C         -56.1561  -26.8706   17.6699 C.2       12 UNK         0.5020 
     29 O         -57.3517  -27.1265   17.5119 O.2       12 UNK        -0.5489 
     30 CA        -55.3163  -27.6956   18.6643 C.3       11 UNK         0.0294 
     31 CB        -56.1777  -28.6414   19.5224 C.3       11 UNK        -0.2019 
     32 N         -54.2953  -28.4838   17.9693 N.am      11 UNK        -0.4493 
     33 C         -53.1417  -28.0025   17.4895 C.2       11 UNK         0.4932 
     34 O         -52.7900  -26.8304   17.6392 O.2       11 UNK        -0.5029 
     35 CA        -52.2446  -28.9858   16.7224 C.3       10 UNK         0.0280 
     36 CB        -53.0337  -30.0121   15.8835 C.3       10 UNK        -0.1976 
     37 N         -51.3349  -28.2468   15.8492 N.am      10 UNK        -0.4242 
     38 C         -50.0842  -28.6253   15.5556 C.2       10 UNK         0.5072 
     39 O         -49.5642  -29.6487   16.0048 O.2       10 UNK        -0.5224 
     40 CA        -49.2609  -27.7515   14.5875 C.3       9 UNK         0.0343 
     41 CB        -49.1018  -28.4682   13.2363 C.3       9 UNK        -0.2003 
     42 N         -49.8010  -26.4107   14.3490 N.am      9 UNK        -0.4272 
     43 C         -49.8908  -25.4360   15.2639 C.2       9 UNK         0.4988 
     44 O         -49.4747  -25.5421   16.4180 O.2       9 UNK        -0.5108 
     45 CA        -50.5612  -24.1198   14.8287 C.3       8 UNK         0.0248 
     46 CB        -49.4986  -23.1091   14.3672 C.3       8 UNK        -0.2001 
     47 N         -51.5721  -24.2597   13.7752 N.am      8 UNK        -0.4140 
     48 C         -52.6866  -25.0015   13.8296 C.2       8 UNK         0.5028 
     49 O         -52.9829  -25.7304   14.7753 O.2       8 UNK        -0.5428 
     50 CA        -53.6188  -24.9472   12.6068 C.3       7 UNK         0.0264 
     51 CB        -54.3922  -23.6148   12.5223 C.3       7 UNK        -0.1988 
     52 N         -52.9291  -25.2780   11.3535 N.am      7 UNK        -0.4454 
     53 C         -52.0085  -24.5537   10.7025 C.2       7 UNK         0.5027 
     54 O         -51.6779  -23.4075   11.0175 O.2       7 UNK        -0.5083 
     55 CA        -51.3225  -25.2507    9.5138 C.3       6 UNK         0.0844 
     56 C56       -52.0530  -24.9057    8.1916 C.3       14 UNK        -0.0967 
     57 S57       -51.3639  -25.7862    6.7493 S.3       14 UNK        -0.2604 
     58 C58       -52.4248  -27.2701    6.6859 C.3       14 UNK         0.0134 
     59 N         -49.8866  -24.9611    9.4548 N.am      6 UNK        -0.4116 
     60 C         -49.0022  -25.1618   10.4427 C.2       5 UNK         0.5034 
     61 O         -49.2990  -25.6633   11.5280 O.2       5 UNK        -0.5045 
     62 CA        -47.5384  -24.7451   10.1941 C.3       5 UNK         0.0224 
     63 CB        -46.5834  -25.9401   10.3521 C.3       5 UNK        -0.1978 
     64 N         -47.2976  -24.1156    8.8903 N.am      5 UNK        -0.4737 
     65 C         -47.6334  -22.8571    8.5743 C.2       4 UNK         0.5027 
     66 O         -48.2108  -22.0949    9.3501 O.2       4 UNK        -0.5211 
     67 CA        -47.2719  -22.3862    7.1508 C.3       4 UNK         0.0297 
     68 CB        -47.3711  -20.8550    6.9808 C.3       4 UNK        -0.1993 
     69 N         -45.9647  -22.8768    6.6947 N.am      4 UNK        -0.4486 
     70 C         -44.7681  -22.6622    7.2660 C.2       3 UNK         0.4961 
     71 O         -44.6002  -21.9749    8.2747 O.2       3 UNK        -0.5105 
     72 CA        -43.5499  -23.3132    6.5776 C.3       3 UNK         0.0299 
     73 CB        -42.3791  -23.5655    7.5526 C.3       3 UNK        -0.1972 
     74 N         -43.8741  -24.5308    5.8190 N.am      3 UNK        -0.4305 
     75 C         -44.3481  -25.6883    6.3044 C.2       2 UNK         0.5006 
     76 O         -44.5840  -25.8981    7.4964 O.2       2 UNK        -0.5106 
     77 CA        -44.5695  -26.7976    5.2599 C.3       2 UNK         0.0296 
     78 CB        -43.2281  -27.4399    4.8657 C.3       2 UNK        -0.2002 
     79 N         -45.4757  -27.8554    5.7104 N.am      2 UNK        -0.4032 
     80 C         -46.7722  -27.7091    6.0232 C.2       1 UNK         0.5000 
     81 O         -47.3742  -26.6339    5.9807 O.2       1 UNK        -0.5238 
     82 H82       -47.2248  -32.4317    3.5721 H         1 UNK         0.0889 
     83 H83       -46.0197  -32.3633    4.8590 H         1 UNK         0.0889 
     84 H84       -45.6834  -31.6156    3.2961 H         1 UNK         0.0889 
     85 H85       -46.5609  -30.8672    6.4328 H         1 UNK         0.3028 
     86 H86       -48.5554  -28.8743    6.0859 H         1 UNK         0.0864 
     87 H87       -48.0053  -28.2222    8.4173 H         1 UNK         0.0720 
     88 H88       -46.5461  -29.1772    8.3861 H         1 UNK         0.0720 
     89 H89       -48.9624  -29.0730   10.3934 H         1 UNK         0.0814 
     90 H90       -49.6167  -30.6651   10.6654 H         1 UNK         0.0814 
     91 H91       -50.1894  -28.4212    7.6653 H         1 UNK         0.1469 
     92 H92       -54.3619  -27.9866    8.4848 H         1 UNK         0.1381 
     93 H93       -51.8808  -30.2101   11.1809 H         1 UNK         0.1206 
     94 H94       -54.5068  -30.5130   10.9853 H         1 UNK         0.0813 
     95 H95       -55.3804  -29.1687   10.2861 H         1 UNK         0.0813 
     96 H96       -55.7327  -29.6508   14.0455 H         1 UNK         0.0638 
     97 H97       -56.4561  -29.7584   12.4686 H         1 UNK         0.0638 
     98 H98       -57.0325  -27.3051   12.5747 H         1 UNK         0.0568 
     99 H99       -59.6391  -28.5955   15.3965 H         1 UNK         0.3450 
    100 H100      -58.1504  -27.8174   15.8756 H         1 UNK         0.3450 
    101 H101      -55.4890  -27.3351   15.0025 H         1 UNK         0.2987 
    102 H102      -55.1971  -24.4692   15.5599 H         1 UNK         0.0766 
    103 H103      -57.2910  -23.2199   15.9097 H         1 UNK         0.0798 
    104 H104      -56.5015  -23.4830   17.4541 H         1 UNK         0.0798 
    105 H105      -57.8982  -24.4584   16.9988 H         1 UNK         0.0798 
    106 H106      -54.4908  -25.8791   17.1156 H         1 UNK         0.3198 
    107 H107      -54.8252  -26.9908   19.3392 H         1 UNK         0.0843 
    108 H108      -56.6943  -29.3848   18.9138 H         1 UNK         0.0831 
    109 H109      -56.9389  -28.0845   20.0706 H         1 UNK         0.0831 
    110 H110      -55.5733  -29.1708   20.2591 H         1 UNK         0.0831 
    111 H111      -54.5202  -29.4528   17.7951 H         1 UNK         0.3133 
    112 H112      -51.6670  -29.5214   17.4785 H         1 UNK         0.0566 
    113 H113      -52.3632  -30.6559   15.3138 H         1 UNK         0.0814 
    114 H114      -53.6931  -29.5159   15.1733 H         1 UNK         0.0814 
    115 H115      -53.6417  -30.6683   16.5065 H         1 UNK         0.0814 
    116 H116      -51.6855  -27.3563   15.5079 H         1 UNK         0.3091 
    117 H117      -48.2695  -27.6350   15.0299 H         1 UNK         0.0702 
    118 H118      -48.7253  -29.4838   13.3669 H         1 UNK         0.0785 
    119 H119      -48.3928  -27.9459   12.5946 H         1 UNK         0.0785 
    120 H120      -50.0522  -28.5362   12.7051 H         1 UNK         0.0785 
    121 H121      -50.0696  -26.1963   13.3947 H         1 UNK         0.2998 
    122 H122      -51.0669  -23.7119   15.7061 H         1 UNK         0.0697 
    123 H123      -48.9877  -23.4482   13.4648 H         1 UNK         0.0825 
    124 H124      -48.7394  -22.9596   15.1363 H         1 UNK         0.0825 
    125 H125      -49.9408  -22.1351   14.1565 H         1 UNK         0.0825 
    126 H126      -51.4151  -23.7381   12.9171 H         1 UNK         0.3029 
    127 H127      -54.3633  -25.7293   12.7461 H         1 UNK         0.0897 
    128 H128      -53.7313  -22.7522   12.4382 H         1 UNK         0.0792 
    129 H129      -55.0025  -23.4594   13.4114 H         1 UNK         0.0792 
    130 H130      -55.0662  -23.6046   11.6658 H         1 UNK         0.0792 
    131 H131      -53.0994  -26.2193   11.0232 H         1 UNK         0.3086 
    132 H132      -51.3989  -26.3216    9.6946 H         1 UNK         0.0583 
    133 H133      -53.1182  -25.1344    8.2654 H         1 UNK         0.1020 
    134 H134      -51.9912  -23.8335    7.9939 H         1 UNK         0.1020 
    135 H135      -53.4606  -26.9642    6.5310 H         1 UNK         0.0694 
    136 H136      -52.1455  -27.8664    5.8163 H         1 UNK         0.0694 
    137 H137      -49.5529  -24.5472    8.5986 H         1 UNK         0.2989 
    138 H138      -47.2940  -24.0186   10.9724 H         1 UNK         0.1055 
    139 H139      -46.7333  -26.6830    9.5704 H         1 UNK         0.0806 
    140 H140      -46.7241  -26.4380   11.3125 H         1 UNK         0.0806 
    141 H141      -45.5422  -25.6197   10.3059 H         1 UNK         0.0806 
    142 H142      -46.8074  -24.6726    8.2016 H         1 UNK         0.3061 
    143 H143      -48.0137  -22.8372    6.4897 H         1 UNK         0.0734 
    144 H144      -46.6939  -20.3281    7.6539 H         1 UNK         0.0832 
    145 H145      -47.1345  -20.5517    5.9611 H         1 UNK         0.0832 
    146 H146      -48.3806  -20.5021    7.1958 H         1 UNK         0.0832 
    147 H147      -45.9838  -23.4667    5.8744 H         1 UNK         0.3156 
    148 H148      -43.2058  -22.5861    5.8407 H         1 UNK         0.0589 
    149 H149      -41.5279  -24.0175    7.0435 H         1 UNK         0.0808 
    150 H150      -42.0299  -22.6321    7.9960 H         1 UNK         0.0808 
    151 H151      -42.6688  -24.2238    8.3722 H         1 UNK         0.0808 
    152 H152      -43.7118  -24.4698    4.8225 H         1 UNK         0.3098 
    153 H153      -45.0160  -26.3436    4.3727 H         1 UNK         0.0720 
    154 H154      -42.7467  -27.9207    5.7186 H         1 UNK         0.0791 
    155 H155      -42.5307  -26.6970    4.4764 H         1 UNK         0.0791 
    156 H156      -43.3606  -28.1916    4.0871 H         1 UNK         0.0791 
    157 H157      -45.0771  -28.7778    5.7993 H         1 UNK         0.3028 
@<TRIPOS>BOND
     1    1    2 1    
     2    1   82 1    
     3    1   83 1    
     4    1   84 1    
     5    2    3 2    
     6    2    4 am   BACKBONE|DICT|INTERRES
     7    4    5 1    
     8    4   85 1    
     9    5    6 1    
    10    5   80 1    
    11    5   86 1    
    12    6    7 1    
    13    6   87 1    
    14    6   88 1    
    15    7    8 1    
    16    8    9 1    
    17    8   89 1    
    18    8   90 1    
    19    9   10 ar   
    20    9   14 ar   
    21   10   11 ar   
    22   10   91 1    
    23   11   12 ar   
    24   11   58 1    
    25   12   13 ar   
    26   12   92 1    
    27   13   14 ar   
    28   13   15 1    
    29   14   93 1    
    30   15   16 1    
    31   15   94 1    
    32   15   95 1    
    33   16   17 1    
    34   17   18 1    
    35   17   96 1    
    36   17   97 1    
    37   18   19 1    
    38   18   22 1    
    39   18   98 1    
    40   19   20 am   BACKBONE|DICT|INTERRES
    41   19   21 2    
    42   20   99 1    
    43   20  100 1    
    44   22   23 am   BACKBONE|DICT|INTERRES
    45   22  101 1    
    46   23   24 2    
    47   23   25 1    
    48   25   26 1    
    49   25   27 1    
    50   25  102 1    
    51   26  103 1    
    52   26  104 1    
    53   26  105 1    
    54   27   28 am   BACKBONE|DICT|INTERRES
    55   27  106 1    
    56   28   29 2    
    57   28   30 1    
    58   30   31 1    
    59   30   32 1    
    60   30  107 1    
    61   31  108 1    
    62   31  109 1    
    63   31  110 1    
    64   32   33 am   BACKBONE|DICT|INTERRES
    65   32  111 1    
    66   33   34 2    
    67   33   35 1    
    68   35   36 1    
    69   35   37 1    
    70   35  112 1    
    71   36  113 1    
    72   36  114 1    
    73   36  115 1    
    74   37   38 am   BACKBONE|DICT|INTERRES
    75   37  116 1    
    76   38   39 2    
    77   38   40 1    
    78   40   41 1    
    79   40   42 1    
    80   40  117 1    
    81   41  118 1    
    82   41  119 1    
    83   41  120 1    
    84   42   43 am   BACKBONE|DICT|INTERRES
    85   42  121 1    
    86   43   44 2    
    87   43   45 1    
    88   45   46 1    
    89   45   47 1    
    90   45  122 1    
    91   46  123 1    
    92   46  124 1    
    93   46  125 1    
    94   47   48 am   BACKBONE|DICT|INTERRES
    95   47  126 1    
    96   48   49 2    
    97   48   50 1    
    98   50   51 1    
    99   50   52 1    
   100   50  127 1    
   101   51  128 1    
   102   51  129 1    
   103   51  130 1    
   104   52   53 am   BACKBONE|DICT|INTERRES
   105   52  131 1    
   106   53   54 2    
   107   53   55 1    
   108   55   56 1    
   109   55   59 1    
   110   55  132 1    
   111   56   57 1    
   112   56  133 1    
   113   56  134 1    
   114   57   58 1    
   115   58  135 1    
   116   58  136 1    
   117   59   60 am   BACKBONE|DICT|INTERRES
   118   59  137 1    
   119   60   61 2    
   120   60   62 1    
   121   62   63 1    
   122   62   64 1    
   123   62  138 1    
   124   63  139 1    
   125   63  140 1    
   126   63  141 1    
   127   64   65 am   BACKBONE|DICT|INTERRES
   128   64  142 1    
   129   65   66 2    
   130   65   67 1    
   131   67   68 1    
   132   67   69 1    
   133   67  143 1    
   134   68  144 1    
   135   68  145 1    
   136   68  146 1    
   137   69   70 am   BACKBONE|DICT|INTERRES
   138   69  147 1    
   139   70   71 2    
   140   70   72 1    
   141   72   73 1    
   142   72   74 1    
   143   72  148 1    
   144   73  149 1    
   145   73  150 1    
   146   73  151 1    
   147   74   75 am   BACKBONE|DICT|INTERRES
   148   74  152 1    
   149   75   76 2    
   150   75   77 1    
   151   77   78 1    
   152   77   79 1    
   153   77  153 1    
   154   78  154 1    
   155   78  155 1    
   156   78  156 1    
   157   79   80 am   BACKBONE|DICT|INTERRES
   158   79  157 1    
   159   80   81 2    
@<TRIPOS>SUBSTRUCTURE
     1 UNK         1 GROUP             0       ****    0 ROOT    
