@<TRIPOS>MOLECULE
3R207
157   159    1
SMALL
USER_CHARGES


@<TRIPOS>ATOM
      1 CA        -47.4031  -32.4606    3.5486 C.3       0 UNK        -0.1975 
      2 C         -47.8894  -31.0201    3.4867 C.2       0 UNK         0.4852 
      3 O         -47.3628  -30.2320    2.7005 O.2       0 UNK        -0.5216 
      4 N         -48.8931  -30.6754    4.3057 N.am      1 UNK        -0.4461 
      5 CA        -49.4755  -29.3327    4.4121 C.3       1 UNK         0.0864 
      6 C6        -50.7943  -29.3699    5.2302 C.3       14 UNK        -0.0898 
      7 S7        -51.6275  -27.7524    5.3980 S.3       14 UNK        -0.2598 
      8 C8        -53.3091  -28.2489    5.9013 C.3       14 UNK         0.0286 
      9 C9        -53.3908  -29.0443    7.2047 C.ar      14 UNK        -0.0844 
     10 C10       -52.4924  -28.8458    8.2626 C.ar      14 UNK        -0.0881 
     11 C11       -52.6194  -29.5731    9.4505 C.ar      14 UNK        -0.0643 
     12 C12       -53.6540  -30.5038    9.5801 C.ar      14 UNK        -0.0930 
     13 C13       -54.5780  -30.6871    8.5485 C.ar      14 UNK        -0.0827 
     14 C14       -54.4321  -29.9642    7.3616 C.ar      14 UNK        -0.1249 
     15 C15       -55.7590  -31.6328    8.7306 C.3       14 UNK         0.0141 
     16 S16       -56.9253  -31.0554   10.0126 S.3       14 UNK        -0.2313 
     17 C17       -57.3269  -29.3663    9.4443 C.3       14 UNK        -0.0915 
     18 CA        -56.4960  -28.2615   10.1647 C.3       13 UNK         0.0968 
     19 C         -56.5920  -26.8784    9.4565 C.2       13 UNK         0.5732 
     20 N         -56.5981  -25.7631   10.1789 N.am      13 UNK        -0.7310 
     21 O         -56.6527  -26.8026    8.2316 O.2       13 UNK        -0.5035 
     22 N         -56.8016  -28.1762   11.6037 N.am      13 UNK        -0.4233 
     23 C         -56.0571  -28.6897   12.5886 C.2       13 UNK         0.4989 
     24 O         -55.0637  -29.3995   12.4202 O.2       13 UNK        -0.4996 
     25 CA        -56.5277  -28.3831   14.0205 C.3       12 UNK         0.0216 
     26 CB        -57.5110  -29.4608   14.5071 C.3       12 UNK        -0.1964 
     27 N         -55.3911  -28.3169   14.9417 N.am      12 UNK        -0.4276 
     28 C         -54.4938  -27.3233   14.9671 C.2       12 UNK         0.5020 
     29 O         -54.5963  -26.2880   14.3022 O.2       12 UNK        -0.5489 
     30 CA        -53.2774  -27.5468   15.8803 C.3       11 UNK         0.0294 
     31 CB        -52.2659  -28.5092   15.2355 C.3       11 UNK        -0.2019 
     32 N         -52.5915  -26.2920   16.1759 N.am      11 UNK        -0.4493 
     33 C         -52.9154  -25.4583   17.1714 C.2       11 UNK         0.4932 
     34 O         -53.8484  -25.6540   17.9533 O.2       11 UNK        -0.5029 
     35 CA        -52.0161  -24.2155   17.3290 C.3       10 UNK         0.0280 
     36 CB        -52.2205  -23.4787   18.6695 C.3       10 UNK        -0.1976 
     37 N         -50.5985  -24.5283   17.1103 N.am      10 UNK        -0.4242 
     38 C         -49.8369  -25.4038   17.7870 C.2       10 UNK         0.5072 
     39 O         -50.2078  -26.0041   18.7969 O.2       10 UNK        -0.5224 
     40 CA        -48.4290  -25.6957   17.2325 C.3       9 UNK         0.0343 
     41 CB        -48.4009  -27.0863   16.5758 C.3       9 UNK        -0.2003 
     42 N         -47.9638  -24.7054   16.2588 N.am      9 UNK        -0.4272 
     43 C         -47.5595  -23.4651   16.5651 C.2       9 UNK         0.4988 
     44 O         -47.4543  -23.0430   17.7171 O.2       9 UNK        -0.5108 
     45 CA        -47.2535  -22.5250   15.3861 C.3       8 UNK         0.0248 
     46 CB        -45.8133  -22.7316   14.8918 C.3       8 UNK        -0.2001 
     47 N         -48.1943  -22.6678   14.2674 N.am      8 UNK        -0.4140 
     48 C         -49.5117  -22.4223   14.3484 C.2       8 UNK         0.5028 
     49 O         -50.0728  -22.0361   15.3733 O.2       8 UNK        -0.5428 
     50 CA        -50.3610  -22.6804   13.0945 C.3       7 UNK         0.0264 
     51 CB        -50.2066  -21.5328   12.0839 C.3       7 UNK        -0.1988 
     52 N         -50.0519  -23.9540   12.4457 N.am      7 UNK        -0.4454 
     53 C         -50.2402  -25.1662   12.9897 C.2       7 UNK         0.5027 
     54 O         -50.7265  -25.3530   14.1075 O.2       7 UNK        -0.5083 
     55 CA        -49.7406  -26.3680   12.1574 C.3       6 UNK         0.0844 
     56 C56       -50.6968  -26.6897   10.9767 C.3       14 UNK        -0.0967 
     57 S57       -52.0580  -27.7888   11.4833 S.3       14 UNK        -0.2604 
     58 C58       -51.6624  -29.3380   10.6094 C.3       14 UNK         0.0134 
     59 N         -48.3615  -26.1755   11.6996 N.am      6 UNK        -0.4116 
     60 C         -47.3007  -25.9349   12.4844 C.2       5 UNK         0.5034 
     61 O         -47.3379  -25.9092   13.7135 O.2       5 UNK        -0.5045 
     62 CA        -45.9818  -25.6080   11.7694 C.3       5 UNK         0.0224 
     63 CB        -45.2519  -26.8926   11.3467 C.3       5 UNK        -0.1978 
     64 N         -46.1962  -24.7427   10.6066 N.am      5 UNK        -0.4737 
     65 C         -46.5823  -23.4609   10.6875 C.2       4 UNK         0.5027 
     66 O         -46.7455  -22.8617   11.7494 O.2       4 UNK        -0.5211 
     67 CA        -46.8856  -22.7443    9.3619 C.3       4 UNK         0.0297 
     68 CB        -45.5877  -22.2655    8.6927 C.3       4 UNK        -0.1993 
     69 N         -47.6446  -23.5827    8.4305 N.am      4 UNK        -0.4486 
     70 C         -48.8917  -24.0216    8.6529 C.2       3 UNK         0.4961 
     71 O         -49.5515  -23.7364    9.6512 O.2       3 UNK        -0.5105 
     72 CA        -49.4916  -24.9755    7.6077 C.3       3 UNK         0.0299 
     73 CB        -50.1619  -24.1795    6.4775 C.3       3 UNK        -0.1972 
     74 N         -48.5289  -25.9225    7.0363 N.am      3 UNK        -0.4305 
     75 C         -47.7956  -26.8091    7.7235 C.2       2 UNK         0.5006 
     76 O         -47.7942  -26.8821    8.9534 O.2       2 UNK        -0.5106 
     77 CA        -46.9499  -27.7912    6.8872 C.3       2 UNK         0.0296 
     78 CB        -46.0084  -28.6481    7.7536 C.3       2 UNK        -0.2002 
     79 N         -47.8092  -28.6765    6.0971 N.am      2 UNK        -0.4032 
     80 C         -48.4657  -28.3143    4.9852 C.2       1 UNK         0.5000 
     81 O         -48.3179  -27.2189    4.4366 O.2       1 UNK        -0.5238 
     82 H82       -46.3489  -32.4889    3.8230 H         1 UNK         0.0889 
     83 H83       -47.5146  -32.9362    2.5746 H         1 UNK         0.0889 
     84 H84       -47.9591  -33.0490    4.2784 H         1 UNK         0.0889 
     85 H85       -49.2915  -31.3775    4.9133 H         1 UNK         0.3028 
     86 H86       -49.7212  -29.0031    3.4000 H         1 UNK         0.0864 
     87 H87       -50.6105  -29.7629    6.2316 H         1 UNK         0.0720 
     88 H88       -51.4937  -30.0625    4.7590 H         1 UNK         0.0720 
     89 H89       -53.7520  -28.8208    5.0842 H         1 UNK         0.0814 
     90 H90       -53.9168  -27.3498    6.0112 H         1 UNK         0.0814 
     91 H91       -51.7009  -28.1149    8.1742 H         1 UNK         0.1469 
     92 H92       -53.7760  -31.0481   10.5070 H         1 UNK         0.1381 
     93 H93       -55.1493  -30.1000    6.5634 H         1 UNK         0.1206 
     94 H94       -56.3012  -31.7620    7.7926 H         1 UNK         0.0813 
     95 H95       -55.3885  -32.6204    9.0082 H         1 UNK         0.0813 
     96 H96       -58.3928  -29.1961    9.6026 H         1 UNK         0.0638 
     97 H97       -57.1771  -29.3325    8.3641 H         1 UNK         0.0638 
     98 H98       -55.4415  -28.5108   10.0564 H         1 UNK         0.0568 
     99 H99       -56.4844  -25.7908   11.1792 H         1 UNK         0.3450 
    100 H100      -56.6585  -24.8760    9.7046 H         1 UNK         0.3450 
    101 H101      -57.6179  -27.6293   11.8368 H         1 UNK         0.2987 
    102 H102      -57.0344  -27.4154   14.0293 H         1 UNK         0.0766 
    103 H103      -58.3855  -29.5143   13.8572 H         1 UNK         0.0798 
    104 H104      -57.8701  -29.2469   15.5141 H         1 UNK         0.0798 
    105 H105      -57.0529  -30.4510   14.5156 H         1 UNK         0.0798 
    106 H106      -55.2079  -29.1476   15.4855 H         1 UNK         0.3198 
    107 H107      -53.6292  -27.9915   16.8141 H         1 UNK         0.0843 
    108 H108      -51.4619  -28.7578   15.9285 H         1 UNK         0.0831 
    109 H109      -51.8119  -28.0736   14.3463 H         1 UNK         0.0831 
    110 H110      -52.7377  -29.4457   14.9352 H         1 UNK         0.0831 
    111 H111      -51.8724  -26.0029   15.5163 H         1 UNK         0.3133 
    112 H112      -52.3007  -23.5308   16.5287 H         1 UNK         0.0566 
    113 H113      -51.5787  -22.6004   18.7391 H         1 UNK         0.0814 
    114 H114      -52.0049  -24.1214   19.5235 H         1 UNK         0.0814 
    115 H115      -53.2507  -23.1360   18.7729 H         1 UNK         0.0814 
    116 H116      -50.1882  -24.0847   16.2976 H         1 UNK         0.3091 
    117 H117      -47.7371  -25.7007   18.0772 H         1 UNK         0.0702 
    118 H118      -47.3985  -27.3427   16.2324 H         1 UNK         0.0785 
    119 H119      -49.0715  -27.1376   15.7166 H         1 UNK         0.0785 
    120 H120      -48.7110  -27.8602   17.2792 H         1 UNK         0.0785 
    121 H121      -47.9481  -25.0005   15.2852 H         1 UNK         0.2998 
    122 H122      -47.3401  -21.5004   15.7538 H         1 UNK         0.0697 
    123 H123      -45.6665  -23.7332   14.4877 H         1 UNK         0.0825 
    124 H124      -45.0983  -22.5995   15.7049 H         1 UNK         0.0825 
    125 H125      -45.5538  -22.0142   14.1132 H         1 UNK         0.0825 
    126 H126      -47.7964  -22.9301   13.3685 H         1 UNK         0.3029 
    127 H127      -51.4066  -22.7185   13.4079 H         1 UNK         0.0897 
    128 H128      -49.1884  -21.4668   11.6987 H         1 UNK         0.0792 
    129 H129      -50.4470  -20.5725   12.5422 H         1 UNK         0.0792 
    130 H130      -50.8756  -21.6629   11.2329 H         1 UNK         0.0792 
    131 H131      -49.6884  -23.8987   11.4956 H         1 UNK         0.3086 
    132 H132      -49.7057  -27.2316   12.8253 H         1 UNK         0.0583 
    133 H133      -51.1235  -25.7852   10.5390 H         1 UNK         0.1020 
    134 H134      -50.1512  -27.1641   10.1613 H         1 UNK         0.1020 
    135 H135      -50.6321  -29.3442   10.2522 H         1 UNK         0.0694 
    136 H136      -51.7328  -30.1573   11.3265 H         1 UNK         0.0694 
    137 H137      -48.2034  -26.2281   10.6969 H         1 UNK         0.2989 
    138 H138      -45.3437  -25.0727   12.4756 H         1 UNK         0.1055 
    139 H139      -45.8543  -27.5014   10.6726 H         1 UNK         0.0806 
    140 H140      -44.3086  -26.6696   10.8481 H         1 UNK         0.0806 
    141 H141      -45.0202  -27.5086   12.2166 H         1 UNK         0.0806 
    142 H142      -46.1472  -25.1785    9.6968 H         1 UNK         0.3061 
    143 H143      -47.4937  -21.8668    9.5931 H         1 UNK         0.0734 
    144 H144      -44.9432  -23.0988    8.4103 H         1 UNK         0.0832 
    145 H145      -45.7954  -21.6815    7.7960 H         1 UNK         0.0832 
    146 H146      -45.0161  -21.6265    9.3675 H         1 UNK         0.0832 
    147 H147      -47.1809  -23.8683    7.5803 H         1 UNK         0.3156 
    148 H148      -50.2629  -25.5652    8.1064 H         1 UNK         0.0589 
    149 H149      -50.6793  -24.8381    5.7800 H         1 UNK         0.0808 
    150 H150      -50.9041  -23.4861    6.8758 H         1 UNK         0.0808 
    151 H151      -49.4379  -23.5933    5.9103 H         1 UNK         0.0808 
    152 H152      -48.4965  -25.9878    6.0231 H         1 UNK         0.3098 
    153 H153      -46.3310  -27.1996    6.2092 H         1 UNK         0.0720 
    154 H154      -45.3172  -28.0186    8.3152 H         1 UNK         0.0791 
    155 H155      -45.4058  -29.3186    7.1407 H         1 UNK         0.0791 
    156 H156      -46.5583  -29.2550    8.4744 H         1 UNK         0.0791 
    157 H157      -47.9963  -29.5884    6.4874 H         1 UNK         0.3028 
@<TRIPOS>BOND
     1    1    2 1    
     2    1   82 1    
     3    1   83 1    
     4    1   84 1    
     5    2    3 2    
     6    2    4 am   BACKBONE|DICT|INTERRES
     7    4    5 1    
     8    4   85 1    
     9    5    6 1    
    10    5   80 1    
    11    5   86 1    
    12    6    7 1    
    13    6   87 1    
    14    6   88 1    
    15    7    8 1    
    16    8    9 1    
    17    8   89 1    
    18    8   90 1    
    19    9   10 ar   
    20    9   14 ar   
    21   10   11 ar   
    22   10   91 1    
    23   11   12 ar   
    24   11   58 1    
    25   12   13 ar   
    26   12   92 1    
    27   13   14 ar   
    28   13   15 1    
    29   14   93 1    
    30   15   16 1    
    31   15   94 1    
    32   15   95 1    
    33   16   17 1    
    34   17   18 1    
    35   17   96 1    
    36   17   97 1    
    37   18   19 1    
    38   18   22 1    
    39   18   98 1    
    40   19   20 am   BACKBONE|DICT|INTERRES
    41   19   21 2    
    42   20   99 1    
    43   20  100 1    
    44   22   23 am   BACKBONE|DICT|INTERRES
    45   22  101 1    
    46   23   24 2    
    47   23   25 1    
    48   25   26 1    
    49   25   27 1    
    50   25  102 1    
    51   26  103 1    
    52   26  104 1    
    53   26  105 1    
    54   27   28 am   BACKBONE|DICT|INTERRES
    55   27  106 1    
    56   28   29 2    
    57   28   30 1    
    58   30   31 1    
    59   30   32 1    
    60   30  107 1    
    61   31  108 1    
    62   31  109 1    
    63   31  110 1    
    64   32   33 am   BACKBONE|DICT|INTERRES
    65   32  111 1    
    66   33   34 2    
    67   33   35 1    
    68   35   36 1    
    69   35   37 1    
    70   35  112 1    
    71   36  113 1    
    72   36  114 1    
    73   36  115 1    
    74   37   38 am   BACKBONE|DICT|INTERRES
    75   37  116 1    
    76   38   39 2    
    77   38   40 1    
    78   40   41 1    
    79   40   42 1    
    80   40  117 1    
    81   41  118 1    
    82   41  119 1    
    83   41  120 1    
    84   42   43 am   BACKBONE|DICT|INTERRES
    85   42  121 1    
    86   43   44 2    
    87   43   45 1    
    88   45   46 1    
    89   45   47 1    
    90   45  122 1    
    91   46  123 1    
    92   46  124 1    
    93   46  125 1    
    94   47   48 am   BACKBONE|DICT|INTERRES
    95   47  126 1    
    96   48   49 2    
    97   48   50 1    
    98   50   51 1    
    99   50   52 1    
   100   50  127 1    
   101   51  128 1    
   102   51  129 1    
   103   51  130 1    
   104   52   53 am   BACKBONE|DICT|INTERRES
   105   52  131 1    
   106   53   54 2    
   107   53   55 1    
   108   55   56 1    
   109   55   59 1    
   110   55  132 1    
   111   56   57 1    
   112   56  133 1    
   113   56  134 1    
   114   57   58 1    
   115   58  135 1    
   116   58  136 1    
   117   59   60 am   BACKBONE|DICT|INTERRES
   118   59  137 1    
   119   60   61 2    
   120   60   62 1    
   121   62   63 1    
   122   62   64 1    
   123   62  138 1    
   124   63  139 1    
   125   63  140 1    
   126   63  141 1    
   127   64   65 am   BACKBONE|DICT|INTERRES
   128   64  142 1    
   129   65   66 2    
   130   65   67 1    
   131   67   68 1    
   132   67   69 1    
   133   67  143 1    
   134   68  144 1    
   135   68  145 1    
   136   68  146 1    
   137   69   70 am   BACKBONE|DICT|INTERRES
   138   69  147 1    
   139   70   71 2    
   140   70   72 1    
   141   72   73 1    
   142   72   74 1    
   143   72  148 1    
   144   73  149 1    
   145   73  150 1    
   146   73  151 1    
   147   74   75 am   BACKBONE|DICT|INTERRES
   148   74  152 1    
   149   75   76 2    
   150   75   77 1    
   151   77   78 1    
   152   77   79 1    
   153   77  153 1    
   154   78  154 1    
   155   78  155 1    
   156   78  156 1    
   157   79   80 am   BACKBONE|DICT|INTERRES
   158   79  157 1    
   159   80   81 2    
@<TRIPOS>SUBSTRUCTURE
     1 UNK         1 GROUP             0       ****    0 ROOT    
