@<TRIPOS>MOLECULE
3R207
157   159    1
SMALL
USER_CHARGES


@<TRIPOS>ATOM
      1 CA        -45.1162  -30.1001    7.7352 C.3       0 UNK        -0.1975 
      2 C         -45.5116  -29.8258    6.2915 C.2       0 UNK         0.4852 
      3 O         -44.6361  -29.6370    5.4465 O.2       0 UNK        -0.5216 
      4 N         -46.8210  -29.8148    6.0009 N.am      1 UNK        -0.4461 
      5 CA        -47.3771  -29.6001    4.6581 C.3       1 UNK         0.0864 
      6 C6        -48.8560  -30.0670    4.5687 C.3       14 UNK        -0.0898 
      7 S7        -50.0678  -28.9739    5.3905 S.3       14 UNK        -0.2598 
      8 C8        -50.4835  -29.8700    6.9296 C.3       14 UNK         0.0286 
      9 C9        -51.4610  -29.1384    7.8587 C.ar      14 UNK        -0.0844 
     10 C10       -51.8316  -27.8001    7.6635 C.ar      14 UNK        -0.0881 
     11 C11       -52.7330  -27.1639    8.5210 C.ar      14 UNK        -0.0643 
     12 C12       -53.2634  -27.8739    9.6006 C.ar      14 UNK        -0.0930 
     13 C13       -52.9163  -29.2125    9.8096 C.ar      14 UNK        -0.0827 
     14 C14       -52.0113  -29.8342    8.9417 C.ar      14 UNK        -0.1249 
     15 C15       -53.5450  -29.9836   10.9619 C.3       14 UNK         0.0141 
     16 S16       -55.2854  -30.3821   10.5996 S.3       14 UNK        -0.2313 
     17 C17       -55.9464  -30.7011   12.2707 C.3       14 UNK        -0.0915 
     18 CA        -56.2698  -29.3896   13.0521 C.3       13 UNK         0.0968 
     19 C         -57.6265  -28.7240   12.6631 C.2       13 UNK         0.5732 
     20 N         -58.3712  -28.1196   13.5863 N.am      13 UNK        -0.7310 
     21 O         -58.0204  -28.7376   11.5000 O.2       13 UNK        -0.5035 
     22 N         -56.1271  -29.5284   14.5050 N.am      13 UNK        -0.4233 
     23 C         -55.0087  -29.7531   15.1958 C.2       13 UNK         0.4989 
     24 O         -53.9334  -30.0796   14.6939 O.2       13 UNK        -0.4996 
     25 CA        -55.1232  -29.5222   16.7127 C.3       12 UNK         0.0216 
     26 CB        -53.8924  -30.0317   17.4859 C.3       12 UNK        -0.1964 
     27 N         -55.3327  -28.0990   17.0094 N.am      12 UNK        -0.4276 
     28 C         -56.5026  -27.4510   16.8867 C.2       12 UNK         0.5020 
     29 O         -57.5300  -27.9885   16.4647 O.2       12 UNK        -0.5489 
     30 CA        -56.5537  -25.9633   17.2810 C.3       11 UNK         0.0294 
     31 CB        -57.0075  -25.8150   18.7419 C.3       11 UNK        -0.2019 
     32 N         -55.2811  -25.2639   17.0969 N.am      11 UNK        -0.4493 
     33 C         -54.7725  -24.9134   15.9083 C.2       11 UNK         0.4932 
     34 O         -55.3505  -25.0984   14.8366 O.2       11 UNK        -0.5029 
     35 CA        -53.3664  -24.2797   15.8995 C.3       10 UNK         0.0280 
     36 CB        -52.9012  -23.7308   17.2676 C.3       10 UNK        -0.1976 
     37 N         -52.3834  -25.2192   15.3543 N.am      10 UNK        -0.4242 
     38 C         -52.1332  -26.4586   15.8040 C.2       10 UNK         0.5072 
     39 O         -52.6243  -26.9360   16.8292 O.2       10 UNK        -0.5224 
     40 CA        -51.2043  -27.3220   14.9408 C.3       9 UNK         0.0343 
     41 CB        -51.8962  -27.6807   13.6147 C.3       9 UNK        -0.2003 
     42 N         -49.9194  -26.6839   14.6581 N.am      9 UNK        -0.4272 
     43 C         -48.9885  -26.3620   15.5669 C.2       9 UNK         0.4988 
     44 O         -49.0862  -26.6016   16.7708 O.2       9 UNK        -0.5108 
     45 CA        -47.7263  -25.6556   15.0409 C.3       8 UNK         0.0248 
     46 CB        -46.7393  -26.6744   14.4483 C.3       8 UNK        -0.2001 
     47 N         -48.0278  -24.6234   14.0457 N.am      8 UNK        -0.4140 
     48 C         -48.6691  -23.4769   14.3176 C.2       8 UNK         0.5028 
     49 O         -49.0052  -23.1295   15.4504 O.2       8 UNK        -0.5428 
     50 CA        -49.0149  -22.5689   13.1247 C.3       7 UNK         0.0264 
     51 CB        -47.8053  -21.7113   12.7202 C.3       7 UNK        -0.1988 
     52 N         -49.5024  -23.3100   11.9596 N.am      7 UNK        -0.4454 
     53 C         -50.6236  -24.0474   11.9334 C.2       7 UNK         0.5027 
     54 O         -51.3980  -24.1605   12.8846 O.2       7 UNK        -0.5083 
     55 CA        -50.9067  -24.8142   10.6274 C.3       6 UNK         0.0844 
     56 C56       -51.5541  -23.8637    9.5898 C.3       14 UNK        -0.0967 
     57 S57       -51.7961  -24.5954    7.9402 S.3       14 UNK        -0.2604 
     58 C58       -53.1873  -25.7367    8.2327 C.3       14 UNK         0.0134 
     59 N         -49.7036  -25.4930   10.1360 N.am      6 UNK        -0.4116 
     60 C         -49.0446  -26.4537   10.8014 C.2       5 UNK         0.5034 
     61 O         -49.3937  -26.9054   11.8886 O.2       5 UNK        -0.5045 
     62 CA        -47.7322  -26.9498   10.1865 C.3       5 UNK         0.0224 
     63 CB        -48.0072  -28.0118    9.1116 C.3       5 UNK        -0.1978 
     64 N         -46.9553  -25.8421    9.6279 N.am      5 UNK        -0.4737 
     65 C         -46.3514  -24.9035   10.3735 C.2       4 UNK         0.5027 
     66 O         -46.3380  -24.9184   11.6041 O.2       4 UNK        -0.5211 
     67 CA        -45.6901  -23.7277    9.6309 C.3       4 UNK         0.0297 
     68 CB        -44.2232  -24.0547    9.3119 C.3       4 UNK        -0.1993 
     69 N         -46.3869  -23.3604    8.3959 N.am      4 UNK        -0.4486 
     70 C         -47.6519  -22.9211    8.3321 C.2       3 UNK         0.4961 
     71 O         -48.3388  -22.6808    9.3257 O.2       3 UNK        -0.5105 
     72 CA        -48.2739  -22.7771    6.9282 C.3       3 UNK         0.0299 
     73 CB        -48.1787  -21.3199    6.4507 C.3       3 UNK        -0.1972 
     74 N         -47.7028  -23.6668    5.9033 N.am      3 UNK        -0.4305 
     75 C         -47.6528  -25.0047    5.9825 C.2       2 UNK         0.5006 
     76 O         -48.0540  -25.6424    6.9587 O.2       2 UNK        -0.5106 
     77 CA        -47.0003  -25.7513    4.8104 C.3       2 UNK         0.0296 
     78 CB        -45.5031  -25.4078    4.6860 C.3       2 UNK        -0.2002 
     79 N         -47.1547  -27.1828    5.0475 N.am      2 UNK        -0.4032 
     80 C         -47.1637  -28.1587    4.1318 C.2       1 UNK         0.5000 
     81 O         -47.0056  -27.9679    2.9240 O.2       1 UNK        -0.5238 
     82 H82       -45.9588  -30.4525    8.3297 H         1 UNK         0.0889 
     83 H83       -44.7233  -29.1942    8.1962 H         1 UNK         0.0889 
     84 H84       -44.3399  -30.8639    7.7721 H         1 UNK         0.0889 
     85 H85       -47.4948  -29.9881    6.7312 H         1 UNK         0.3028 
     86 H86       -46.8082  -30.2468    3.9860 H         1 UNK         0.0864 
     87 H87       -49.1469  -30.1359    3.5190 H         1 UNK         0.0720 
     88 H88       -48.9558  -31.0805    4.9606 H         1 UNK         0.0720 
     89 H89       -49.5670  -30.0752    7.4823 H         1 UNK         0.0814 
     90 H90       -50.9087  -30.8374    6.6581 H         1 UNK         0.0814 
     91 H91       -51.4341  -27.2323    6.8355 H         1 UNK         0.1469 
     92 H92       -53.9748  -27.3984   10.2619 H         1 UNK         0.1381 
     93 H93       -51.7440  -30.8700    9.1020 H         1 UNK         0.1206 
     94 H94       -52.9975  -30.9055   11.1634 H         1 UNK         0.0813 
     95 H95       -53.4814  -29.3852   11.8699 H         1 UNK         0.0813 
     96 H96       -55.2114  -31.3113   12.7955 H         1 UNK         0.0638 
     97 H97       -56.8355  -31.3281   12.1864 H         1 UNK         0.0638 
     98 H98       -55.5261  -28.6413   12.7749 H         1 UNK         0.0568 
     99 H99       -59.2400  -27.7015   13.2931 H         1 UNK         0.3450 
    100 H100      -58.0856  -28.0295   14.5538 H         1 UNK         0.3450 
    101 H101      -56.9403  -29.2481   15.0420 H         1 UNK         0.2987 
    102 H102      -55.9884  -30.0863   17.0680 H         1 UNK         0.0766 
    103 H103      -52.9764  -29.5307   17.1719 H         1 UNK         0.0798 
    104 H104      -54.0064  -29.8794   18.5592 H         1 UNK         0.0798 
    105 H105      -53.7476  -31.1005   17.3237 H         1 UNK         0.0798 
    106 H106      -54.4985  -27.5663   17.2408 H         1 UNK         0.3198 
    107 H107      -57.3012  -25.4840   16.6447 H         1 UNK         0.0843 
    108 H108      -57.9696  -26.3041   18.9021 H         1 UNK         0.0831 
    109 H109      -57.1302  -24.7669   19.0157 H         1 UNK         0.0831 
    110 H110      -56.2952  -26.2638   19.4355 H         1 UNK         0.0831 
    111 H111      -54.7227  -25.0983   17.9222 H         1 UNK         0.3133 
    112 H112      -53.4092  -23.4404   15.2039 H         1 UNK         0.0566 
    113 H113      -53.6164  -23.0105   17.6670 H         1 UNK         0.0814 
    114 H114      -51.9475  -23.2115   17.1689 H         1 UNK         0.0814 
    115 H115      -52.7657  -24.5157   18.0121 H         1 UNK         0.0814 
    116 H116      -51.9494  -24.9288   14.4792 H         1 UNK         0.3091 
    117 H117      -51.0121  -28.2473   15.4876 H         1 UNK         0.0702 
    118 H118      -51.3876  -28.5040   13.1129 H         1 UNK         0.0785 
    119 H119      -51.9226  -26.8367   12.9270 H         1 UNK         0.0785 
    120 H120      -52.9303  -27.9794   13.7748 H         1 UNK         0.0785 
    121 H121      -49.7142  -26.5203   13.6751 H         1 UNK         0.2998 
    122 H122      -47.2401  -25.1694   15.8894 H         1 UNK         0.0697 
    123 H123      -47.1554  -27.1810   13.5769 H         1 UNK         0.0825 
    124 H124      -46.4821  -27.4408   15.1806 H         1 UNK         0.0825 
    125 H125      -45.8103  -26.1934   14.1415 H         1 UNK         0.0825 
    126 H126      -47.7175  -24.7987   13.0947 H         1 UNK         0.3029 
    127 H127      -49.8160  -21.8987   13.4438 H         1 UNK         0.0897 
    128 H128      -48.0564  -21.0274   11.9090 H         1 UNK         0.0792 
    129 H129      -47.4583  -21.1071   13.5595 H         1 UNK         0.0792 
    130 H130      -46.9663  -22.3252   12.3920 H         1 UNK         0.0792 
    131 H131      -48.9569  -23.2321   11.1046 H         1 UNK         0.3086 
    132 H132      -51.6334  -25.5947   10.8597 H         1 UNK         0.0583 
    133 H133      -52.5181  -23.5050    9.9558 H         1 UNK         0.1020 
    134 H134      -50.9442  -22.9693    9.4510 H         1 UNK         0.1020 
    135 H135      -53.8188  -25.3538    9.0357 H         1 UNK         0.0694 
    136 H136      -53.8101  -25.7539    7.3375 H         1 UNK         0.0694 
    137 H137      -49.3466  -25.1876    9.2414 H         1 UNK         0.2989 
    138 H138      -47.1391  -27.4118   10.9791 H         1 UNK         0.1055 
    139 H139      -48.4079  -28.9202    9.5632 H         1 UNK         0.0806 
    140 H140      -47.0957  -28.2785    8.5824 H         1 UNK         0.0806 
    141 H141      -48.7373  -27.6720    8.3764 H         1 UNK         0.0806 
    142 H142      -47.0111  -25.7162    8.6222 H         1 UNK         0.3061 
    143 H143      -45.7129  -22.8619   10.2956 H         1 UNK         0.0734 
    144 H144      -43.6758  -24.3105   10.2205 H         1 UNK         0.0832 
    145 H145      -44.1356  -24.9018    8.6302 H         1 UNK         0.0832 
    146 H146      -43.7147  -23.2032    8.8594 H         1 UNK         0.0832 
    147 H147      -45.8964  -23.5205    7.5286 H         1 UNK         0.3156 
    148 H148      -49.3306  -23.0334    7.0218 H         1 UNK         0.0589 
    149 H149      -47.1437  -21.0104    6.3000 H         1 UNK         0.0808 
    150 H150      -48.7153  -21.1724    5.5133 H         1 UNK         0.0808 
    151 H151      -48.6186  -20.6404    7.1823 H         1 UNK         0.0808 
    152 H152      -47.3446  -23.2199    5.0712 H         1 UNK         0.3098 
    153 H153      -47.5265  -25.4769    3.8939 H         1 UNK         0.0720 
    154 H154      -45.0381  -25.9590    3.8683 H         1 UNK         0.0791 
    155 H155      -44.9582  -25.6500    5.5995 H         1 UNK         0.0791 
    156 H156      -45.3505  -24.3476    4.4820 H         1 UNK         0.0791 
    157 H157      -47.3831  -27.4113    6.0068 H         1 UNK         0.3028 
@<TRIPOS>BOND
     1    1    2 1    
     2    1   82 1    
     3    1   83 1    
     4    1   84 1    
     5    2    3 2    
     6    2    4 am   BACKBONE|DICT|INTERRES
     7    4    5 1    
     8    4   85 1    
     9    5    6 1    
    10    5   80 1    
    11    5   86 1    
    12    6    7 1    
    13    6   87 1    
    14    6   88 1    
    15    7    8 1    
    16    8    9 1    
    17    8   89 1    
    18    8   90 1    
    19    9   10 ar   
    20    9   14 ar   
    21   10   11 ar   
    22   10   91 1    
    23   11   12 ar   
    24   11   58 1    
    25   12   13 ar   
    26   12   92 1    
    27   13   14 ar   
    28   13   15 1    
    29   14   93 1    
    30   15   16 1    
    31   15   94 1    
    32   15   95 1    
    33   16   17 1    
    34   17   18 1    
    35   17   96 1    
    36   17   97 1    
    37   18   19 1    
    38   18   22 1    
    39   18   98 1    
    40   19   20 am   BACKBONE|DICT|INTERRES
    41   19   21 2    
    42   20   99 1    
    43   20  100 1    
    44   22   23 am   BACKBONE|DICT|INTERRES
    45   22  101 1    
    46   23   24 2    
    47   23   25 1    
    48   25   26 1    
    49   25   27 1    
    50   25  102 1    
    51   26  103 1    
    52   26  104 1    
    53   26  105 1    
    54   27   28 am   BACKBONE|DICT|INTERRES
    55   27  106 1    
    56   28   29 2    
    57   28   30 1    
    58   30   31 1    
    59   30   32 1    
    60   30  107 1    
    61   31  108 1    
    62   31  109 1    
    63   31  110 1    
    64   32   33 am   BACKBONE|DICT|INTERRES
    65   32  111 1    
    66   33   34 2    
    67   33   35 1    
    68   35   36 1    
    69   35   37 1    
    70   35  112 1    
    71   36  113 1    
    72   36  114 1    
    73   36  115 1    
    74   37   38 am   BACKBONE|DICT|INTERRES
    75   37  116 1    
    76   38   39 2    
    77   38   40 1    
    78   40   41 1    
    79   40   42 1    
    80   40  117 1    
    81   41  118 1    
    82   41  119 1    
    83   41  120 1    
    84   42   43 am   BACKBONE|DICT|INTERRES
    85   42  121 1    
    86   43   44 2    
    87   43   45 1    
    88   45   46 1    
    89   45   47 1    
    90   45  122 1    
    91   46  123 1    
    92   46  124 1    
    93   46  125 1    
    94   47   48 am   BACKBONE|DICT|INTERRES
    95   47  126 1    
    96   48   49 2    
    97   48   50 1    
    98   50   51 1    
    99   50   52 1    
   100   50  127 1    
   101   51  128 1    
   102   51  129 1    
   103   51  130 1    
   104   52   53 am   BACKBONE|DICT|INTERRES
   105   52  131 1    
   106   53   54 2    
   107   53   55 1    
   108   55   56 1    
   109   55   59 1    
   110   55  132 1    
   111   56   57 1    
   112   56  133 1    
   113   56  134 1    
   114   57   58 1    
   115   58  135 1    
   116   58  136 1    
   117   59   60 am   BACKBONE|DICT|INTERRES
   118   59  137 1    
   119   60   61 2    
   120   60   62 1    
   121   62   63 1    
   122   62   64 1    
   123   62  138 1    
   124   63  139 1    
   125   63  140 1    
   126   63  141 1    
   127   64   65 am   BACKBONE|DICT|INTERRES
   128   64  142 1    
   129   65   66 2    
   130   65   67 1    
   131   67   68 1    
   132   67   69 1    
   133   67  143 1    
   134   68  144 1    
   135   68  145 1    
   136   68  146 1    
   137   69   70 am   BACKBONE|DICT|INTERRES
   138   69  147 1    
   139   70   71 2    
   140   70   72 1    
   141   72   73 1    
   142   72   74 1    
   143   72  148 1    
   144   73  149 1    
   145   73  150 1    
   146   73  151 1    
   147   74   75 am   BACKBONE|DICT|INTERRES
   148   74  152 1    
   149   75   76 2    
   150   75   77 1    
   151   77   78 1    
   152   77   79 1    
   153   77  153 1    
   154   78  154 1    
   155   78  155 1    
   156   78  156 1    
   157   79   80 am   BACKBONE|DICT|INTERRES
   158   79  157 1    
   159   80   81 2    
@<TRIPOS>SUBSTRUCTURE
     1 UNK         1 GROUP             0       ****    0 ROOT    
