@<TRIPOS>MOLECULE
3R207
157   159    1
SMALL
USER_CHARGES


@<TRIPOS>ATOM
      1 CA        -45.9291  -32.8467    3.4250 C.3       0 UNK        -0.1975 
      2 C         -46.5292  -31.4543    3.5540 C.2       0 UNK         0.4852 
      3 O         -45.8355  -30.4648    3.3148 O.2       0 UNK        -0.5216 
      4 N         -47.8144  -31.3698    3.9220 N.am      1 UNK        -0.4461 
      5 CA        -48.5335  -30.1171    4.1633 C.3       1 UNK         0.0864 
      6 C6        -50.0645  -30.3524    4.1616 C.3       14 UNK        -0.0898 
      7 S7        -51.0402  -28.8097    4.2441 S.3       14 UNK        -0.2598 
      8 C8        -52.5962  -29.4099    4.9908 C.3       14 UNK         0.0286 
      9 C9        -52.6536  -29.3241    6.5173 C.ar      14 UNK        -0.0844 
     10 C10       -51.5426  -29.6037    7.3221 C.ar      14 UNK        -0.0881 
     11 C11       -51.6178  -29.5439    8.7168 C.ar      14 UNK        -0.0643 
     12 C12       -52.8462  -29.2245    9.3092 C.ar      14 UNK        -0.0930 
     13 C13       -53.9581  -28.9104    8.5249 C.ar      14 UNK        -0.0827 
     14 C14       -53.8589  -28.9739    7.1329 C.ar      14 UNK        -0.1249 
     15 C15       -55.2637  -28.4902    9.1850 C.3       14 UNK         0.0141 
     16 S16       -55.6008  -26.7122    8.9589 S.3       14 UNK        -0.2313 
     17 C17       -54.2411  -25.9191    9.8918 C.3       14 UNK        -0.0915 
     18 CA        -54.7005  -25.1739   11.1704 C.3       13 UNK         0.0968 
     19 C         -55.4842  -23.8657   10.8538 C.2       13 UNK         0.5732 
     20 N         -56.7303  -23.7128   11.2869 N.am      13 UNK        -0.7310 
     21 O         -54.9455  -22.9653   10.2153 O.2       13 UNK        -0.5035 
     22 N         -55.3564  -26.0873   12.1168 N.am      13 UNK        -0.4233 
     23 C         -55.4288  -25.8957   13.4382 C.2       13 UNK         0.4989 
     24 O         -54.9594  -24.9146   14.0162 O.2       13 UNK        -0.4996 
     25 CA        -56.1248  -26.9837   14.2780 C.3       12 UNK         0.0216 
     26 CB        -56.9314  -28.0199   13.4591 C.3       12 UNK        -0.1964 
     27 N         -55.1481  -27.6315   15.1588 N.am      12 UNK        -0.4276 
     28 C         -54.0647  -28.3277   14.7841 C.2       12 UNK         0.5020 
     29 O         -53.8266  -28.6646   13.6231 O.2       12 UNK        -0.5489 
     30 CA        -53.0530  -28.6347   15.8996 C.3       11 UNK         0.0294 
     31 CB        -51.8902  -29.5243   15.4202 C.3       11 UNK        -0.2019 
     32 N         -52.5045  -27.3750   16.3982 N.am      11 UNK        -0.4493 
     33 C         -53.0171  -26.6337   17.3881 C.2       11 UNK         0.4932 
     34 O         -54.0149  -26.9677   18.0296 O.2       11 UNK        -0.5029 
     35 CA        -52.3330  -25.2806   17.6745 C.3       10 UNK         0.0280 
     36 CB        -52.5544  -24.7869   19.1199 C.3       10 UNK        -0.1976 
     37 N         -50.9101  -25.2606   17.3129 N.am      10 UNK        -0.4242 
     38 C         -49.9160  -25.9899   17.8451 C.2       10 UNK         0.5072 
     39 O         -50.0585  -26.7375   18.8139 O.2       10 UNK        -0.5224 
     40 CA        -48.5280  -25.9086   17.1760 C.3       9 UNK         0.0343 
     41 CB        -48.1652  -27.2601   16.5364 C.3       9 UNK        -0.2003 
     42 N         -48.4189  -24.8625   16.1553 N.am      9 UNK        -0.4272 
     43 C         -48.2936  -23.5524   16.4077 C.2       9 UNK         0.4988 
     44 O         -48.1857  -23.0807   17.5400 O.2       9 UNK        -0.5108 
     45 CA        -48.3293  -22.6037   15.1953 C.3       8 UNK         0.0248 
     46 CB        -46.9293  -22.4637   14.5771 C.3       8 UNK        -0.2001 
     47 N         -49.2896  -23.0123   14.1629 N.am      8 UNK        -0.4140 
     48 C         -50.6153  -23.1060   14.3503 C.2       8 UNK         0.5028 
     49 O         -51.1768  -22.8249   15.4089 O.2       8 UNK        -0.5428 
     50 CA        -51.4535  -23.6609   13.1859 C.3       7 UNK         0.0264 
     51 CB        -51.6805  -22.5848   12.1122 C.3       7 UNK        -0.1988 
     52 N         -50.8684  -24.8614   12.5811 N.am      7 UNK        -0.4454 
     53 C         -50.6361  -26.0059   13.2423 C.2       7 UNK         0.5027 
     54 O         -50.9235  -26.1793   14.4256 O.2       7 UNK        -0.5083 
     55 CA        -49.9178  -27.1379   12.4803 C.3       6 UNK         0.0844 
     56 C56       -50.9098  -27.9036   11.5751 C.3       14 UNK        -0.0967 
     57 S57       -50.4376  -29.6494   11.3325 S.3       14 UNK        -0.2604 
     58 C58       -50.3336  -29.8024    9.5135 C.3       14 UNK         0.0134 
     59 N         -48.7468  -26.6372   11.7536 N.am      6 UNK        -0.4116 
     60 C         -47.6969  -26.0383   12.3374 C.2       5 UNK         0.5034 
     61 O         -47.5458  -25.9446   13.5550 O.2       5 UNK        -0.5045 
     62 CA        -46.6812  -25.3617   11.4074 C.3       5 UNK         0.0224 
     63 CB        -45.6491  -26.3721   10.8817 C.3       5 UNK        -0.1978 
     64 N         -47.3498  -24.6808   10.2949 N.am      5 UNK        -0.4737 
     65 C         -48.0454  -23.5418   10.4328 C.2       4 UNK         0.5027 
     66 O         -48.1427  -22.9338   11.4979 O.2       4 UNK        -0.5211 
     67 CA        -48.7823  -23.0015    9.1941 C.3       4 UNK         0.0297 
     68 CB        -47.8613  -22.0742    8.3863 C.3       4 UNK        -0.1993 
     69 N         -49.3026  -24.0556    8.3211 N.am      4 UNK        -0.4486 
     70 C         -50.2604  -24.9287    8.6642 C.2       3 UNK         0.4961 
     71 O         -50.8519  -24.9061    9.7428 O.2       3 UNK        -0.5105 
     72 CA        -50.5649  -26.0549    7.6591 C.3       3 UNK         0.0299 
     73 CB        -51.6606  -25.6188    6.6744 C.3       3 UNK        -0.1972 
     74 N         -49.3916  -26.5240    6.9086 N.am      3 UNK        -0.4305 
     75 C         -48.2506  -26.9740    7.4532 C.2       2 UNK         0.5006 
     76 O         -48.0646  -27.0528    8.6687 O.2       2 UNK        -0.5106 
     77 CA        -47.1246  -27.3452    6.4704 C.3       2 UNK         0.0296 
     78 CB        -45.8794  -27.9357    7.1680 C.3       2 UNK        -0.2002 
     79 N         -47.5922  -28.2074    5.3784 N.am      2 UNK        -0.4032 
     80 C         -48.0371  -29.4698    5.4736 C.2       1 UNK         0.5000 
     81 O         -48.0798  -30.1213    6.5204 O.2       1 UNK        -0.5238 
     82 H82       -45.0874  -32.9567    4.1082 H         1 UNK         0.0889 
     83 H83       -45.5675  -33.0069    2.4096 H         1 UNK         0.0889 
     84 H84       -46.6552  -33.6269    3.6531 H         1 UNK         0.0889 
     85 H85       -48.3239  -32.2155    4.1352 H         1 UNK         0.3028 
     86 H86       -48.3040  -29.4456    3.3325 H         1 UNK         0.0864 
     87 H87       -50.3534  -30.8629    3.2414 H         1 UNK         0.0720 
     88 H88       -50.3515  -31.0241    4.9721 H         1 UNK         0.0720 
     89 H89       -52.7822  -30.4396    4.6831 H         1 UNK         0.0814 
     90 H90       -53.4061  -28.8175    4.5625 H         1 UNK         0.0814 
     91 H91       -50.5987  -29.8578    6.8687 H         1 UNK         0.1469 
     92 H92       -52.9485  -29.1920   10.3831 H         1 UNK         0.1381 
     93 H93       -54.7261  -28.7411    6.5298 H         1 UNK         0.1206 
     94 H94       -56.0849  -29.0628    8.7518 H         1 UNK         0.0813 
     95 H95       -55.2562  -28.7253   10.2504 H         1 UNK         0.0813 
     96 H96       -53.4969  -26.6663   10.1645 H         1 UNK         0.0638 
     97 H97       -53.7211  -25.2331    9.2224 H         1 UNK         0.0638 
     98 H98       -53.7861  -24.8338   11.6582 H         1 UNK         0.0568 
     99 H99       -57.2223  -22.8585   11.0790 H         1 UNK         0.3450 
    100 H100      -57.1843  -24.4434   11.8096 H         1 UNK         0.3450 
    101 H101      -55.7673  -26.9174   11.7189 H         1 UNK         0.2987 
    102 H102      -56.8285  -26.4614   14.9280 H         1 UNK         0.0766 
    103 H103      -57.4468  -28.7177   14.1192 H         1 UNK         0.0798 
    104 H104      -56.3054  -28.6098   12.7893 H         1 UNK         0.0798 
    105 H105      -57.6969  -27.5326   12.8538 H         1 UNK         0.0798 
    106 H106      -55.2043  -27.3733   16.1373 H         1 UNK         0.3198 
    107 H107      -53.5772  -29.1610   16.7002 H         1 UNK         0.0843 
    108 H108      -51.3291  -29.0562   14.6107 H         1 UNK         0.0831 
    109 H109      -52.2594  -30.4810   15.0486 H         1 UNK         0.0831 
    110 H110      -51.1930  -29.7361   16.2309 H         1 UNK         0.0831 
    111 H111      -51.7681  -26.9594   15.8283 H         1 UNK         0.3133 
    112 H112      -52.8129  -24.5624   17.0082 H         1 UNK         0.0566 
    113 H113      -52.0646  -23.8283   19.2905 H         1 UNK         0.0814 
    114 H114      -53.6162  -24.6479   19.3266 H         1 UNK         0.0814 
    115 H115      -52.1727  -25.4959   19.8549 H         1 UNK         0.0814 
    116 H116      -50.6880  -24.6840   16.5093 H         1 UNK         0.3091 
    117 H117      -47.8010  -25.6990   17.9633 H         1 UNK         0.0702 
    118 H118      -48.1836  -28.0629   17.2746 H         1 UNK         0.0785 
    119 H119      -48.8638  -27.5300   15.7437 H         1 UNK         0.0785 
    120 H120      -47.1638  -27.2392   16.1061 H         1 UNK         0.0785 
    121 H121      -48.4311  -25.1734   15.1883 H         1 UNK         0.2998 
    122 H122      -48.6394  -21.6212   15.5569 H         1 UNK         0.0697 
    123 H123      -46.5688  -23.4113   14.1764 H         1 UNK         0.0825 
    124 H124      -46.2056  -22.1270   15.3206 H         1 UNK         0.0825 
    125 H125      -46.9244  -21.7346   13.7667 H         1 UNK         0.0825 
    126 H126      -48.9109  -23.2053   13.2384 H         1 UNK         0.3029 
    127 H127      -52.4264  -23.9466   13.5911 H         1 UNK         0.0897 
    128 H128      -52.2740  -22.9640   11.2806 H         1 UNK         0.0792 
    129 H129      -50.7406  -22.2127   11.7059 H         1 UNK         0.0792 
    130 H130      -52.2150  -21.7300   12.5283 H         1 UNK         0.0792 
    131 H131      -50.6652  -24.8197   11.5838 H         1 UNK         0.3086 
    132 H132      -49.5471  -27.8273   13.2421 H         1 UNK         0.0583 
    133 H133      -51.9068  -27.9203   12.0196 H         1 UNK         0.1020 
    134 H134      -51.0244  -27.4014   10.6146 H         1 UNK         0.1020 
    135 H135      -49.5561  -29.1266    9.1596 H         1 UNK         0.0694 
    136 H136      -49.9847  -30.8100    9.2833 H         1 UNK         0.0694 
    137 H137      -48.7683  -26.6921   10.7424 H         1 UNK         0.2989 
    138 H138      -46.1450  -24.6106   11.9921 H         1 UNK         0.1055 
    139 H139      -45.0762  -26.7996   11.7056 H         1 UNK         0.0806 
    140 H140      -44.9379  -25.8992   10.2045 H         1 UNK         0.0806 
    141 H141      -46.1173  -27.2025   10.3536 H         1 UNK         0.0806 
    142 H142      -47.3893  -25.1812    9.4155 H         1 UNK         0.3061 
    143 H143      -49.6322  -22.4135    9.5461 H         1 UNK         0.0734 
    144 H144      -48.3919  -21.6142    7.5525 H         1 UNK         0.0832 
    145 H145      -47.4805  -21.2648    9.0110 H         1 UNK         0.0832 
    146 H146      -46.9989  -22.6080    7.9848 H         1 UNK         0.0832 
    147 H147      -48.8753  -24.1496    7.4116 H         1 UNK         0.3156 
    148 H148      -50.9445  -26.8996    8.2330 H         1 UNK         0.0589 
    149 H149      -51.3272  -24.8050    6.0297 H         1 UNK         0.0808 
    150 H150      -51.9734  -26.4466    6.0385 H         1 UNK         0.0808 
    151 H151      -52.5490  -25.2729    7.2027 H         1 UNK         0.0808 
    152 H152      -49.4691  -26.5084    5.9020 H         1 UNK         0.3098 
    153 H153      -46.8145  -26.4095    6.0031 H         1 UNK         0.0720 
    154 H154      -45.1070  -28.2001    6.4459 H         1 UNK         0.0791 
    155 H155      -46.1197  -28.8290    7.7454 H         1 UNK         0.0791 
    156 H156      -45.4430  -27.2138    7.8589 H         1 UNK         0.0791 
    157 H157      -47.5914  -27.7801    4.4622 H         1 UNK         0.3028 
@<TRIPOS>BOND
     1    1    2 1    
     2    1   82 1    
     3    1   83 1    
     4    1   84 1    
     5    2    3 2    
     6    2    4 am   BACKBONE|DICT|INTERRES
     7    4    5 1    
     8    4   85 1    
     9    5    6 1    
    10    5   80 1    
    11    5   86 1    
    12    6    7 1    
    13    6   87 1    
    14    6   88 1    
    15    7    8 1    
    16    8    9 1    
    17    8   89 1    
    18    8   90 1    
    19    9   10 ar   
    20    9   14 ar   
    21   10   11 ar   
    22   10   91 1    
    23   11   12 ar   
    24   11   58 1    
    25   12   13 ar   
    26   12   92 1    
    27   13   14 ar   
    28   13   15 1    
    29   14   93 1    
    30   15   16 1    
    31   15   94 1    
    32   15   95 1    
    33   16   17 1    
    34   17   18 1    
    35   17   96 1    
    36   17   97 1    
    37   18   19 1    
    38   18   22 1    
    39   18   98 1    
    40   19   20 am   BACKBONE|DICT|INTERRES
    41   19   21 2    
    42   20   99 1    
    43   20  100 1    
    44   22   23 am   BACKBONE|DICT|INTERRES
    45   22  101 1    
    46   23   24 2    
    47   23   25 1    
    48   25   26 1    
    49   25   27 1    
    50   25  102 1    
    51   26  103 1    
    52   26  104 1    
    53   26  105 1    
    54   27   28 am   BACKBONE|DICT|INTERRES
    55   27  106 1    
    56   28   29 2    
    57   28   30 1    
    58   30   31 1    
    59   30   32 1    
    60   30  107 1    
    61   31  108 1    
    62   31  109 1    
    63   31  110 1    
    64   32   33 am   BACKBONE|DICT|INTERRES
    65   32  111 1    
    66   33   34 2    
    67   33   35 1    
    68   35   36 1    
    69   35   37 1    
    70   35  112 1    
    71   36  113 1    
    72   36  114 1    
    73   36  115 1    
    74   37   38 am   BACKBONE|DICT|INTERRES
    75   37  116 1    
    76   38   39 2    
    77   38   40 1    
    78   40   41 1    
    79   40   42 1    
    80   40  117 1    
    81   41  118 1    
    82   41  119 1    
    83   41  120 1    
    84   42   43 am   BACKBONE|DICT|INTERRES
    85   42  121 1    
    86   43   44 2    
    87   43   45 1    
    88   45   46 1    
    89   45   47 1    
    90   45  122 1    
    91   46  123 1    
    92   46  124 1    
    93   46  125 1    
    94   47   48 am   BACKBONE|DICT|INTERRES
    95   47  126 1    
    96   48   49 2    
    97   48   50 1    
    98   50   51 1    
    99   50   52 1    
   100   50  127 1    
   101   51  128 1    
   102   51  129 1    
   103   51  130 1    
   104   52   53 am   BACKBONE|DICT|INTERRES
   105   52  131 1    
   106   53   54 2    
   107   53   55 1    
   108   55   56 1    
   109   55   59 1    
   110   55  132 1    
   111   56   57 1    
   112   56  133 1    
   113   56  134 1    
   114   57   58 1    
   115   58  135 1    
   116   58  136 1    
   117   59   60 am   BACKBONE|DICT|INTERRES
   118   59  137 1    
   119   60   61 2    
   120   60   62 1    
   121   62   63 1    
   122   62   64 1    
   123   62  138 1    
   124   63  139 1    
   125   63  140 1    
   126   63  141 1    
   127   64   65 am   BACKBONE|DICT|INTERRES
   128   64  142 1    
   129   65   66 2    
   130   65   67 1    
   131   67   68 1    
   132   67   69 1    
   133   67  143 1    
   134   68  144 1    
   135   68  145 1    
   136   68  146 1    
   137   69   70 am   BACKBONE|DICT|INTERRES
   138   69  147 1    
   139   70   71 2    
   140   70   72 1    
   141   72   73 1    
   142   72   74 1    
   143   72  148 1    
   144   73  149 1    
   145   73  150 1    
   146   73  151 1    
   147   74   75 am   BACKBONE|DICT|INTERRES
   148   74  152 1    
   149   75   76 2    
   150   75   77 1    
   151   77   78 1    
   152   77   79 1    
   153   77  153 1    
   154   78  154 1    
   155   78  155 1    
   156   78  156 1    
   157   79   80 am   BACKBONE|DICT|INTERRES
   158   79  157 1    
   159   80   81 2    
@<TRIPOS>SUBSTRUCTURE
     1 UNK         1 GROUP             0       ****    0 ROOT    
