@<TRIPOS>MOLECULE
3R207
157   159    1
SMALL
USER_CHARGES


@<TRIPOS>ATOM
      1 CA        -44.9540  -27.6782    4.1792 C.3       0 UNK        -0.1975 
      2 C         -46.4612  -27.6273    3.9765 C.2       0 UNK         0.4852 
      3 O         -46.9254  -27.5636    2.8372 O.2       0 UNK        -0.5216 
      4 N         -47.2243  -27.6478    5.0722 N.am      1 UNK        -0.4461 
      5 CA        -48.6837  -27.5822    5.1022 C.3       1 UNK         0.0864 
      6 C6        -49.3704  -28.9198    4.6986 C.3       14 UNK        -0.0898 
      7 S7        -48.8928  -30.3639    5.7132 S.3       14 UNK        -0.2598 
      8 C8        -50.4876  -31.2221    5.9442 C.3       14 UNK         0.0286 
      9 C9        -51.2717  -30.7020    7.1433 C.ar      14 UNK        -0.0844 
     10 C10       -50.7357  -30.8257    8.4284 C.ar      14 UNK        -0.0881 
     11 C11       -51.4427  -30.3854    9.5502 C.ar      14 UNK        -0.0643 
     12 C12       -52.7067  -29.8143    9.3670 C.ar      14 UNK        -0.0930 
     13 C13       -53.2757  -29.7113    8.0959 C.ar      14 UNK        -0.0827 
     14 C14       -52.5477  -30.1499    6.9836 C.ar      14 UNK        -0.1249 
     15 C15       -54.6520  -29.0766    7.9243 C.3       14 UNK         0.0141 
     16 S16       -56.0471  -30.1881    8.3147 S.3       14 UNK        -0.2313 
     17 C17       -56.0046  -30.4430   10.1275 C.3       14 UNK        -0.0915 
     18 CA        -56.5725  -29.2617   10.9683 C.3       13 UNK         0.0968 
     19 C         -56.9153  -29.7149   12.4205 C.2       13 UNK         0.5732 
     20 N         -56.3193  -29.1542   13.4680 N.am      13 UNK        -0.7310 
     21 O         -57.7563  -30.5923   12.6018 O.2       13 UNK        -0.5035 
     22 N         -55.6944  -28.0842   10.9144 N.am      13 UNK        -0.4233 
     23 C         -56.0874  -26.8223   11.1160 C.2       13 UNK         0.4989 
     24 O         -57.2559  -26.4757   11.2996 O.2       13 UNK        -0.4996 
     25 CA        -54.9705  -25.7633   11.1210 C.3       12 UNK         0.0216 
     26 CB        -55.1878  -24.7287   10.0034 C.3       12 UNK        -0.1964 
     27 N         -54.8724  -25.0731   12.4090 N.am      12 UNK        -0.4276 
     28 C         -54.6201  -25.6667   13.5822 C.2       12 UNK         0.5020 
     29 O         -54.4410  -26.8808   13.7201 O.2       12 UNK        -0.5489 
     30 CA        -54.5682  -24.7544   14.8110 C.3       11 UNK         0.0294 
     31 CB        -55.9774  -24.5166   15.3800 C.3       11 UNK        -0.2019 
     32 N         -53.7353  -25.4015   15.8195 N.am      11 UNK        -0.4493 
     33 C         -52.9303  -24.7820   16.6886 C.2       11 UNK         0.4932 
     34 O         -52.8162  -23.5580   16.7568 O.2       11 UNK        -0.5029 
     35 CA        -52.1174  -25.6589   17.6530 C.3       10 UNK         0.0280 
     36 CB        -52.5268  -27.1475   17.6619 C.3       10 UNK        -0.1976 
     37 N         -50.7048  -25.5544   17.3012 N.am      10 UNK        -0.4242 
     38 C         -49.6967  -25.3549   18.1583 C.2       10 UNK         0.5072 
     39 O         -49.8478  -25.1883   19.3697 O.2       10 UNK        -0.5224 
     40 CA        -48.2723  -25.3601   17.5806 C.3       9 UNK         0.0343 
     41 CB        -47.7661  -26.8048   17.4301 C.3       9 UNK        -0.2003 
     42 N         -48.1964  -24.6917   16.2789 N.am      9 UNK        -0.4272 
     43 C         -47.5078  -23.5671   16.0304 C.2       9 UNK         0.4988 
     44 O         -46.8706  -22.9508   16.8857 O.2       9 UNK        -0.5108 
     45 CA        -47.5015  -23.0363   14.5822 C.3       8 UNK         0.0248 
     46 CB        -46.2081  -23.4537   13.8643 C.3       8 UNK        -0.2001 
     47 N         -48.6478  -23.4871   13.7931 N.am      8 UNK        -0.4140 
     48 C         -49.9079  -23.0722   13.9755 C.2       8 UNK         0.5028 
     49 O         -50.2226  -22.1692   14.7504 O.2       8 UNK        -0.5428 
     50 CA        -51.0099  -23.8025   13.1861 C.3       7 UNK         0.0264 
     51 CB        -51.5253  -22.9251   12.0377 C.3       7 UNK        -0.1988 
     52 N         -50.6251  -25.1203   12.6610 N.am      7 UNK        -0.4454 
     53 C         -50.3270  -26.1814   13.4236 C.2       7 UNK         0.5027 
     54 O         -50.2046  -26.1152   14.6470 O.2       7 UNK        -0.5083 
     55 CA        -50.1244  -27.5321   12.7237 C.3       6 UNK         0.0844 
     56 C56       -51.4361  -28.0523   12.0763 C.3       14 UNK        -0.0967 
     57 S57       -51.6819  -29.8382   12.3501 S.3       14 UNK        -0.2604 
     58 C58       -50.8086  -30.5830   10.9284 C.3       14 UNK         0.0134 
     59 N         -49.0379  -27.4454   11.7456 N.am      6 UNK        -0.4116 
     60 C         -47.9560  -28.2352   11.7535 C.2       5 UNK         0.5034 
     61 O         -47.6840  -29.0259   12.6578 O.2       5 UNK        -0.5045 
     62 CA        -47.0346  -28.1844   10.5262 C.3       5 UNK         0.0224 
     63 CB        -47.4677  -29.2311    9.4860 C.3       5 UNK        -0.1978 
     64 N         -46.9774  -26.8743    9.8808 N.am      5 UNK        -0.4737 
     65 C         -46.2378  -25.8541   10.3334 C.2       4 UNK         0.5027 
     66 O         -45.6295  -25.8723   11.4026 O.2       4 UNK        -0.5211 
     67 CA        -46.1319  -24.6212    9.4287 C.3       4 UNK         0.0297 
     68 CB        -45.1175  -24.8742    8.3006 C.3       4 UNK        -0.1993 
     69 N         -47.4246  -24.2766    8.8417 N.am      4 UNK        -0.4486 
     70 C         -48.2342  -23.3175    9.3070 C.2       3 UNK         0.4961 
     71 O         -47.9857  -22.6178   10.2888 O.2       3 UNK        -0.5105 
     72 CA        -49.5496  -23.0954    8.5404 C.3       3 UNK         0.0299 
     73 CB        -49.3381  -22.0823    7.4039 C.3       3 UNK        -0.1972 
     74 N         -50.1327  -24.3209    7.9925 N.am      3 UNK        -0.4305 
     75 C         -50.5212  -25.3865    8.7067 C.2       2 UNK         0.5006 
     76 O         -50.4144  -25.4872    9.9295 O.2       2 UNK        -0.5106 
     77 CA        -51.1146  -26.5554    7.9111 C.3       2 UNK         0.0296 
     78 CB        -52.5932  -26.2674    7.6159 C.3       2 UNK        -0.2002 
     79 N         -50.4295  -26.8630    6.6519 N.am      2 UNK        -0.4032 
     80 C         -49.1150  -27.0696    6.4866 C.2       1 UNK         0.5000 
     81 O         -48.2632  -26.8647    7.3605 O.2       1 UNK        -0.5238 
     82 H82       -44.4871  -26.7928    3.7487 H         1 UNK         0.0889 
     83 H83       -44.5392  -28.5571    3.6864 H         1 UNK         0.0889 
     84 H84       -44.6864  -27.7235    5.2348 H         1 UNK         0.0889 
     85 H85       -46.8104  -27.6536    5.9962 H         1 UNK         0.3028 
     86 H86       -48.9916  -26.8138    4.3897 H         1 UNK         0.0864 
     87 H87       -49.1209  -29.1543    3.6628 H         1 UNK         0.0720 
     88 H88       -50.4559  -28.8115    4.7103 H         1 UNK         0.0720 
     89 H89       -50.2877  -32.2833    6.0988 H         1 UNK         0.0814 
     90 H90       -51.0766  -31.1588    5.0279 H         1 UNK         0.0814 
     91 H91       -49.7596  -31.2748    8.5534 H         1 UNK         0.1469 
     92 H92       -53.2611  -29.4546   10.2164 H         1 UNK         0.1381 
     93 H93       -52.9764  -30.0647    5.9945 H         1 UNK         0.1206 
     94 H94       -54.7223  -28.1639    8.5115 H         1 UNK         0.0813 
     95 H95       -54.7752  -28.7573    6.8885 H         1 UNK         0.0813 
     96 H96       -55.0073  -30.7278   10.4567 H         1 UNK         0.0638 
     97 H97       -56.6119  -31.3344   10.2953 H         1 UNK         0.0638 
     98 H98       -57.5289  -28.9804   10.5237 H         1 UNK         0.0568 
     99 H99       -55.6345  -28.4126   13.3622 H         1 UNK         0.3450 
    100 H100      -56.5671  -29.4692   14.3917 H         1 UNK         0.3450 
    101 H101      -54.7094  -28.2786   10.8452 H         1 UNK         0.2987 
    102 H102      -54.0129  -26.2564   10.9413 H         1 UNK         0.0766 
    103 H103      -55.3131  -25.2153    9.0353 H         1 UNK         0.0798 
    104 H104      -54.3384  -24.0507    9.9172 H         1 UNK         0.0798 
    105 H105      -56.0816  -24.1283   10.1780 H         1 UNK         0.0798 
    106 H106      -55.0552  -24.0802   12.3983 H         1 UNK         0.3198 
    107 H107      -54.1272  -23.7988   14.5194 H         1 UNK         0.0843 
    108 H108      -56.4557  -25.4523   15.6732 H         1 UNK         0.0831 
    109 H109      -56.6235  -24.0361   14.6441 H         1 UNK         0.0831 
    110 H110      -55.9466  -23.8680   16.2556 H         1 UNK         0.0831 
    111 H111      -53.7297  -26.4128   15.7591 H         1 UNK         0.3133 
    112 H112      -52.2898  -25.2538   18.6521 H         1 UNK         0.0566 
    113 H113      -52.3325  -27.6330   16.7043 H         1 UNK         0.0814 
    114 H114      -53.5862  -27.2670   17.8937 H         1 UNK         0.0814 
    115 H115      -51.9723  -27.6967   18.4231 H         1 UNK         0.0814 
    116 H116      -50.4943  -25.6884   16.3126 H         1 UNK         0.3091 
    117 H117      -47.6297  -24.8561   18.3055 H         1 UNK         0.0702 
    118 H118      -46.7282  -26.8261   17.0973 H         1 UNK         0.0785 
    119 H119      -48.3598  -27.3693   16.7096 H         1 UNK         0.0785 
    120 H120      -47.8124  -27.3368   18.3815 H         1 UNK         0.0785 
    121 H121      -48.7232  -25.1174   15.5243 H         1 UNK         0.2998 
    122 H122      -47.5294  -21.9456   14.6296 H         1 UNK         0.0697 
    123 H123      -46.1684  -23.0549   12.8500 H         1 UNK         0.0825 
    124 H124      -46.1137  -24.5387   13.8011 H         1 UNK         0.0825 
    125 H125      -45.3299  -23.0813   14.3936 H         1 UNK         0.0825 
    126 H126      -48.4778  -24.2060   13.1053 H         1 UNK         0.3029 
    127 H127      -51.8336  -23.9652   13.8818 H         1 UNK         0.0897 
    128 H128      -50.7082  -22.6173   11.3882 H         1 UNK         0.0792 
    129 H129      -51.9904  -22.0166   12.4223 H         1 UNK         0.0792 
    130 H130      -52.2691  -23.4434   11.4323 H         1 UNK         0.0792 
    131 H131      -50.6488  -25.2313   11.6466 H         1 UNK         0.3086 
    132 H132      -49.8460  -28.2169   13.5279 H         1 UNK         0.0583 
    133 H133      -52.3127  -27.5674   12.5059 H         1 UNK         0.1020 
    134 H134      -51.4741  -27.8215   11.0112 H         1 UNK         0.1020 
    135 H135      -49.7862  -30.2127   10.9139 H         1 UNK         0.0694 
    136 H136      -50.7373  -31.6556   11.1131 H         1 UNK         0.0694 
    137 H137      -49.1733  -26.8020   10.9743 H         1 UNK         0.2989 
    138 H138      -46.0293  -28.4457   10.8657 H         1 UNK         0.1055 
    139 H139      -47.4836  -30.2324    9.9183 H         1 UNK         0.0806 
    140 H140      -46.7823  -29.2570    8.6387 H         1 UNK         0.0806 
    141 H141      -48.4653  -29.0232    9.0971 H         1 UNK         0.0806 
    142 H142      -47.4442  -26.7939    8.9790 H         1 UNK         0.3061 
    143 H143      -45.7591  -23.7924   10.0349 H         1 UNK         0.0734 
    144 H144      -45.4294  -25.6903    7.6473 H         1 UNK         0.0832 
    145 H145      -44.9827  -23.9853    7.6842 H         1 UNK         0.0832 
    146 H146      -44.1398  -25.1370    8.7071 H         1 UNK         0.0832 
    147 H147      -47.7445  -24.8485    8.0696 H         1 UNK         0.3156 
    148 H148      -50.2774  -22.6703    9.2305 H         1 UNK         0.0589 
    149 H149      -50.2775  -21.8399    6.9066 H         1 UNK         0.0808 
    150 H150      -48.6444  -22.4574    6.6504 H         1 UNK         0.0808 
    151 H151      -48.9273  -21.1471    7.7873 H         1 UNK         0.0808 
    152 H152      -50.2635  -24.3508    6.9920 H         1 UNK         0.3098 
    153 H153      -51.0478  -27.4512    8.5312 H         1 UNK         0.0720 
    154 H154      -53.1670  -26.2324    8.5408 H         1 UNK         0.0791 
    155 H155      -53.0317  -27.0364    6.9829 H         1 UNK         0.0791 
    156 H156      -52.7315  -25.3121    7.1075 H         1 UNK         0.0791 
    157 H157      -51.0343  -27.0376    5.8629 H         1 UNK         0.3028 
@<TRIPOS>BOND
     1    1    2 1    
     2    1   82 1    
     3    1   83 1    
     4    1   84 1    
     5    2    3 2    
     6    2    4 am   BACKBONE|DICT|INTERRES
     7    4    5 1    
     8    4   85 1    
     9    5    6 1    
    10    5   80 1    
    11    5   86 1    
    12    6    7 1    
    13    6   87 1    
    14    6   88 1    
    15    7    8 1    
    16    8    9 1    
    17    8   89 1    
    18    8   90 1    
    19    9   10 ar   
    20    9   14 ar   
    21   10   11 ar   
    22   10   91 1    
    23   11   12 ar   
    24   11   58 1    
    25   12   13 ar   
    26   12   92 1    
    27   13   14 ar   
    28   13   15 1    
    29   14   93 1    
    30   15   16 1    
    31   15   94 1    
    32   15   95 1    
    33   16   17 1    
    34   17   18 1    
    35   17   96 1    
    36   17   97 1    
    37   18   19 1    
    38   18   22 1    
    39   18   98 1    
    40   19   20 am   BACKBONE|DICT|INTERRES
    41   19   21 2    
    42   20   99 1    
    43   20  100 1    
    44   22   23 am   BACKBONE|DICT|INTERRES
    45   22  101 1    
    46   23   24 2    
    47   23   25 1    
    48   25   26 1    
    49   25   27 1    
    50   25  102 1    
    51   26  103 1    
    52   26  104 1    
    53   26  105 1    
    54   27   28 am   BACKBONE|DICT|INTERRES
    55   27  106 1    
    56   28   29 2    
    57   28   30 1    
    58   30   31 1    
    59   30   32 1    
    60   30  107 1    
    61   31  108 1    
    62   31  109 1    
    63   31  110 1    
    64   32   33 am   BACKBONE|DICT|INTERRES
    65   32  111 1    
    66   33   34 2    
    67   33   35 1    
    68   35   36 1    
    69   35   37 1    
    70   35  112 1    
    71   36  113 1    
    72   36  114 1    
    73   36  115 1    
    74   37   38 am   BACKBONE|DICT|INTERRES
    75   37  116 1    
    76   38   39 2    
    77   38   40 1    
    78   40   41 1    
    79   40   42 1    
    80   40  117 1    
    81   41  118 1    
    82   41  119 1    
    83   41  120 1    
    84   42   43 am   BACKBONE|DICT|INTERRES
    85   42  121 1    
    86   43   44 2    
    87   43   45 1    
    88   45   46 1    
    89   45   47 1    
    90   45  122 1    
    91   46  123 1    
    92   46  124 1    
    93   46  125 1    
    94   47   48 am   BACKBONE|DICT|INTERRES
    95   47  126 1    
    96   48   49 2    
    97   48   50 1    
    98   50   51 1    
    99   50   52 1    
   100   50  127 1    
   101   51  128 1    
   102   51  129 1    
   103   51  130 1    
   104   52   53 am   BACKBONE|DICT|INTERRES
   105   52  131 1    
   106   53   54 2    
   107   53   55 1    
   108   55   56 1    
   109   55   59 1    
   110   55  132 1    
   111   56   57 1    
   112   56  133 1    
   113   56  134 1    
   114   57   58 1    
   115   58  135 1    
   116   58  136 1    
   117   59   60 am   BACKBONE|DICT|INTERRES
   118   59  137 1    
   119   60   61 2    
   120   60   62 1    
   121   62   63 1    
   122   62   64 1    
   123   62  138 1    
   124   63  139 1    
   125   63  140 1    
   126   63  141 1    
   127   64   65 am   BACKBONE|DICT|INTERRES
   128   64  142 1    
   129   65   66 2    
   130   65   67 1    
   131   67   68 1    
   132   67   69 1    
   133   67  143 1    
   134   68  144 1    
   135   68  145 1    
   136   68  146 1    
   137   69   70 am   BACKBONE|DICT|INTERRES
   138   69  147 1    
   139   70   71 2    
   140   70   72 1    
   141   72   73 1    
   142   72   74 1    
   143   72  148 1    
   144   73  149 1    
   145   73  150 1    
   146   73  151 1    
   147   74   75 am   BACKBONE|DICT|INTERRES
   148   74  152 1    
   149   75   76 2    
   150   75   77 1    
   151   77   78 1    
   152   77   79 1    
   153   77  153 1    
   154   78  154 1    
   155   78  155 1    
   156   78  156 1    
   157   79   80 am   BACKBONE|DICT|INTERRES
   158   79  157 1    
   159   80   81 2    
@<TRIPOS>SUBSTRUCTURE
     1 UNK         1 GROUP             0       ****    0 ROOT    
