@<TRIPOS>MOLECULE
3R207
157   159    1
SMALL
USER_CHARGES


@<TRIPOS>ATOM
      1 CA        -47.9017  -31.2711    3.6374 C.3       0 UNK        -0.1975 
      2 C         -48.3077  -29.8432    3.3048 C.2       0 UNK         0.4852 
      3 O         -47.9487  -29.3370    2.2411 O.2       0 UNK        -0.5216 
      4 N         -49.0533  -29.1915    4.2071 N.am      1 UNK        -0.4461 
      5 CA        -49.5389  -27.8127    4.0570 C.3       1 UNK         0.0864 
      6 C6        -50.6336  -27.4686    5.0949 C.3       14 UNK        -0.0898 
      7 S7        -52.1208  -28.5152    4.9543 S.3       14 UNK        -0.2598 
      8 C8        -52.0616  -29.4647    6.5163 C.3       14 UNK         0.0286 
      9 C9        -52.1834  -28.6586    7.8140 C.ar      14 UNK        -0.0844 
     10 C10       -52.4950  -27.2914    7.8478 C.ar      14 UNK        -0.0881 
     11 C11       -52.5663  -26.5985    9.0602 C.ar      14 UNK        -0.0643 
     12 C12       -52.3658  -27.2920   10.2567 C.ar      14 UNK        -0.0930 
     13 C13       -52.0704  -28.6577   10.2432 C.ar      14 UNK        -0.0827 
     14 C14       -51.9725  -29.3292    9.0222 C.ar      14 UNK        -0.1249 
     15 C15       -51.8469  -29.4065   11.5470 C.3       14 UNK         0.0141 
     16 S16       -53.2777  -30.4564   11.9474 S.3       14 UNK        -0.2313 
     17 C17       -53.0119  -30.7559   13.7268 C.3       14 UNK        -0.0915 
     18 CA        -54.3355  -31.0085   14.4960 C.3       13 UNK         0.0968 
     19 C         -54.0724  -31.2734   16.0039 C.2       13 UNK         0.5732 
     20 N         -53.5515  -32.4472   16.3412 N.am      13 UNK        -0.7310 
     21 O         -54.3020  -30.4270   16.8662 O.2       13 UNK        -0.5035 
     22 N         -55.3300  -29.9498   14.2573 N.am      13 UNK        -0.4233 
     23 C         -56.6469  -30.1141   14.4352 C.2       13 UNK         0.4989 
     24 O         -57.1494  -31.1513   14.8752 O.2       13 UNK        -0.4996 
     25 CA        -57.5592  -28.9527   13.9917 C.3       12 UNK         0.0216 
     26 CB        -59.0459  -29.1884   14.3377 C.3       12 UNK        -0.1964 
     27 N         -57.1281  -27.6337   14.4648 N.am      12 UNK        -0.4276 
     28 C         -56.9879  -27.2120   15.7282 C.2       12 UNK         0.5020 
     29 O         -57.1452  -27.9325   16.7153 O.2       12 UNK        -0.5489 
     30 CA        -56.6379  -25.7172   15.9114 C.3       11 UNK         0.0294 
     31 CB        -56.4644  -25.3280   17.3917 C.3       11 UNK        -0.2019 
     32 N         -55.4365  -25.3088   15.1778 N.am      11 UNK        -0.4493 
     33 C         -55.3242  -25.1579   13.8505 C.2       11 UNK         0.4932 
     34 O         -56.2613  -25.3215   13.0685 O.2       11 UNK        -0.5029 
     35 CA        -53.9369  -24.7832   13.2926 C.3       10 UNK         0.0280 
     36 CB        -53.8984  -23.2776   12.9827 C.3       10 UNK        -0.1976 
     37 N         -52.8123  -25.1533   14.1689 N.am      10 UNK        -0.4242 
     38 C         -52.5352  -26.4103   14.5466 C.2       10 UNK         0.5072 
     39 O         -53.1220  -27.3900   14.0863 O.2       10 UNK        -0.5224 
     40 CA        -51.5012  -26.5930   15.6696 C.3       9 UNK         0.0343 
     41 CB        -51.4813  -28.0341   16.2256 C.3       9 UNK        -0.2003 
     42 N         -50.1512  -26.1976   15.2627 N.am      9 UNK        -0.4272 
     43 C         -49.1802  -25.8968   16.1404 C.2       9 UNK         0.4988 
     44 O         -49.3623  -25.8082   17.3558 O.2       9 UNK        -0.5108 
     45 CA        -47.7596  -25.6812   15.5937 C.3       8 UNK         0.0248 
     46 CB        -47.1596  -26.9989   15.0748 C.3       8 UNK        -0.2001 
     47 N         -47.7044  -24.6557   14.5552 N.am      8 UNK        -0.4140 
     48 C         -47.8938  -23.3453   14.7699 C.2       8 UNK         0.5028 
     49 O         -48.0472  -22.8444   15.8848 O.2       8 UNK        -0.5428 
     50 CA        -47.9456  -22.4375   13.5276 C.3       7 UNK         0.0264 
     51 CB        -46.5322  -22.0008   13.1124 C.3       7 UNK        -0.1988 
     52 N         -48.6247  -23.0672   12.3916 N.am      7 UNK        -0.4454 
     53 C         -49.9084  -23.4565   12.4026 C.2       7 UNK         0.5027 
     54 O         -50.6675  -23.2565   13.3507 O.2       7 UNK        -0.5083 
     55 CA        -50.4161  -24.2430   11.1784 C.3       6 UNK         0.0844 
     56 C56       -50.8806  -23.2925   10.0485 C.3       14 UNK        -0.0967 
     57 S57       -51.4074  -24.1436    8.5196 S.3       14 UNK        -0.2604 
     58 C58       -52.8618  -25.1039    9.0585 C.3       14 UNK         0.0134 
     59 N         -49.4227  -25.2175   10.7290 N.am      6 UNK        -0.4116 
     60 C         -49.0880  -26.3272   11.3990 C.2       5 UNK         0.5034 
     61 O         -49.6035  -26.6718   12.4633 O.2       5 UNK        -0.5045 
     62 CA        -47.9459  -27.1619   10.7999 C.3       5 UNK         0.0224 
     63 CB        -48.4666  -28.0858    9.6874 C.3       5 UNK        -0.1978 
     64 N         -46.8705  -26.3136   10.2767 N.am      5 UNK        -0.4737 
     65 C         -46.0503  -25.5901   11.0547 C.2       4 UNK         0.5027 
     66 O         -46.0987  -25.6010   12.2832 O.2       4 UNK        -0.5211 
     67 CA        -45.0300  -24.6709   10.3592 C.3       4 UNK         0.0297 
     68 CB        -43.7132  -25.4243   10.1157 C.3       4 UNK        -0.1993 
     69 N         -45.5097  -24.1115    9.0950 N.am      4 UNK        -0.4486 
     70 C         -46.6021  -23.3487    8.9456 C.2       3 UNK         0.4961 
     71 O         -47.3026  -22.9638    9.8814 O.2       3 UNK        -0.5105 
     72 CA        -47.0143  -22.9994    7.5042 C.3       3 UNK         0.0299 
     73 CB        -46.5062  -21.5992    7.1277 C.3       3 UNK        -0.1972 
     74 N         -46.5667  -23.9715    6.4965 N.am      3 UNK        -0.4305 
     75 C         -46.9034  -25.2688    6.4826 C.2       2 UNK         0.5006 
     76 O         -47.5859  -25.8112    7.3557 O.2       2 UNK        -0.5106 
     77 CA        -46.3360  -26.1204    5.3373 C.3       2 UNK         0.0296 
     78 CB        -45.0813  -26.8768    5.8035 C.3       2 UNK        -0.2002 
     79 N         -47.3441  -27.0831    4.8995 N.am      2 UNK        -0.4032 
     80 C         -48.4134  -26.7624    4.1576 C.2       1 UNK         0.5000 
     81 O         -48.5519  -25.6741    3.5948 O.2       1 UNK        -0.5238 
     82 H82       -48.2714  -31.9535    2.8726 H         1 UNK         0.0889 
     83 H83       -48.2978  -31.5951    4.5998 H         1 UNK         0.0889 
     84 H84       -46.8158  -31.3539    3.6720 H         1 UNK         0.0889 
     85 H85       -49.3375  -29.6660    5.0514 H         1 UNK         0.3028 
     86 H86       -49.9732  -27.7190    3.0591 H         1 UNK         0.0864 
     87 H87       -50.9641  -26.4351    4.9715 H         1 UNK         0.0720 
     88 H88       -50.2279  -27.5314    6.1069 H         1 UNK         0.0720 
     89 H89       -52.8687  -30.1981    6.4937 H         1 UNK         0.0814 
     90 H90       -51.1323  -30.0351    6.5371 H         1 UNK         0.0814 
     91 H91       -52.6683  -26.7429    6.9339 H         1 UNK         0.1469 
     92 H92       -52.4297  -26.7751   11.2028 H         1 UNK         0.1381 
     93 H93       -51.7382  -30.3851    9.0162 H         1 UNK         0.1206 
     94 H94       -51.6583  -28.6997   12.3555 H         1 UNK         0.0813 
     95 H95       -50.9543  -30.0284   11.4718 H         1 UNK         0.0813 
     96 H96       -52.4868  -29.9063   14.1591 H         1 UNK         0.0638 
     97 H97       -52.3405  -31.6103   13.8247 H         1 UNK         0.0638 
     98 H98       -54.7601  -31.9305   14.0935 H         1 UNK         0.0568 
     99 H99       -53.3625  -32.6355   17.3130 H         1 UNK         0.3450 
    100 H100      -53.3485  -33.1499   15.6468 H         1 UNK         0.3450 
    101 H101      -54.9646  -29.0623   13.9393 H         1 UNK         0.2987 
    102 H102      -57.4834  -28.9185   12.9040 H         1 UNK         0.0766 
    103 H103      -59.6729  -28.3775   13.9675 H         1 UNK         0.0798 
    104 H104      -59.2026  -29.2694   15.4138 H         1 UNK         0.0798 
    105 H105      -59.4126  -30.1105   13.8854 H         1 UNK         0.0798 
    106 H106      -56.9384  -26.9416   13.7423 H         1 UNK         0.3198 
    107 H107      -57.4829  -25.1477   15.5185 H         1 UNK         0.0843 
    108 H108      -55.6365  -25.8653   17.8558 H         1 UNK         0.0831 
    109 H109      -57.3637  -25.5584   17.9645 H         1 UNK         0.0831 
    110 H110      -56.2788  -24.2597   17.5039 H         1 UNK         0.0831 
    111 H111      -54.6054  -25.1692   15.7320 H         1 UNK         0.3133 
    112 H112      -53.8199  -25.3260   12.3545 H         1 UNK         0.0566 
    113 H113      -53.0318  -23.0140   12.3821 H         1 UNK         0.0814 
    114 H114      -54.7760  -22.9691   12.4126 H         1 UNK         0.0814 
    115 H115      -53.8741  -22.6775   13.8924 H         1 UNK         0.0814 
    116 H116      -52.2281  -24.3971   14.5052 H         1 UNK         0.3091 
    117 H117      -51.8276  -25.9335   16.4767 H         1 UNK         0.0702 
    118 H118      -52.4889  -28.3874   16.4491 H         1 UNK         0.0785 
    119 H119      -51.0342  -28.7287   15.5148 H         1 UNK         0.0785 
    120 H120      -50.9124  -28.0981   17.1526 H         1 UNK         0.0785 
    121 H121      -49.9381  -26.2653   14.2682 H         1 UNK         0.2998 
    122 H122      -47.1358  -25.3432   16.4241 H         1 UNK         0.0697 
    123 H123      -47.6982  -27.3812   14.2080 H         1 UNK         0.0825 
    124 H124      -47.1905  -27.7713   15.8443 H         1 UNK         0.0825 
    125 H125      -46.1160  -26.8708   14.7870 H         1 UNK         0.0825 
    126 H126      -47.4916  -24.9709   13.6142 H         1 UNK         0.3029 
    127 H127      -48.5146  -21.5443   13.7944 H         1 UNK         0.0897 
    128 H128      -46.5556  -21.3491   12.2386 H         1 UNK         0.0792 
    129 H129      -45.9006  -22.8569   12.8774 H         1 UNK         0.0792 
    130 H130      -46.0445  -21.4494   13.9173 H         1 UNK         0.0792 
    131 H131      -48.0791  -23.1989   11.5414 H         1 UNK         0.3086 
    132 H132      -51.2878  -24.8038   11.5164 H         1 UNK         0.0583 
    133 H133      -51.7025  -22.6618   10.3912 H         1 UNK         0.1020 
    134 H134      -50.0752  -22.6077    9.7748 H         1 UNK         0.1020 
    135 H135      -53.2005  -24.7687   10.0391 H         1 UNK         0.0694 
    136 H136      -53.6855  -24.9031    8.3720 H         1 UNK         0.0694 
    137 H137      -48.9448  -25.0087    9.8639 H         1 UNK         0.2989 
    138 H138      -47.5323  -27.7840   11.5968 H         1 UNK         0.1055 
    139 H139      -49.1702  -28.8140   10.0901 H         1 UNK         0.0806 
    140 H140      -47.6565  -28.6452    9.2197 H         1 UNK         0.0806 
    141 H141      -48.9879  -27.5314    8.9054 H         1 UNK         0.0806 
    142 H142      -46.8218  -26.2079    9.2687 H         1 UNK         0.3061 
    143 H143      -44.8251  -23.8350   11.0298 H         1 UNK         0.0734 
    144 H144      -42.9471  -24.7657    9.7060 H         1 UNK         0.0832 
    145 H145      -43.3208  -25.8325   11.0484 H         1 UNK         0.0832 
    146 H146      -43.8456  -26.2588    9.4257 H         1 UNK         0.0832 
    147 H147      -45.0005  -24.3691    8.2629 H         1 UNK         0.3156 
    148 H148      -48.1062  -22.9846    7.4790 H         1 UNK         0.0589 
    149 H149      -45.4166  -21.5564    7.1052 H         1 UNK         0.0808 
    150 H150      -46.8765  -21.2909    6.1498 H         1 UNK         0.0808 
    151 H151      -46.8463  -20.8544    7.8489 H         1 UNK         0.0808 
    152 H152      -45.9913  -23.6119    5.7478 H         1 UNK         0.3098 
    153 H153      -46.0688  -25.4751    4.4976 H         1 UNK         0.0720 
    154 H154      -45.2911  -27.5242    6.6563 H         1 UNK         0.0791 
    155 H155      -44.2958  -26.1831    6.1061 H         1 UNK         0.0791 
    156 H156      -44.6734  -27.4968    5.0049 H         1 UNK         0.0791 
    157 H157      -47.3337  -27.9856    5.3503 H         1 UNK         0.3028 
@<TRIPOS>BOND
     1    1    2 1    
     2    1   82 1    
     3    1   83 1    
     4    1   84 1    
     5    2    3 2    
     6    2    4 am   BACKBONE|DICT|INTERRES
     7    4    5 1    
     8    4   85 1    
     9    5    6 1    
    10    5   80 1    
    11    5   86 1    
    12    6    7 1    
    13    6   87 1    
    14    6   88 1    
    15    7    8 1    
    16    8    9 1    
    17    8   89 1    
    18    8   90 1    
    19    9   10 ar   
    20    9   14 ar   
    21   10   11 ar   
    22   10   91 1    
    23   11   12 ar   
    24   11   58 1    
    25   12   13 ar   
    26   12   92 1    
    27   13   14 ar   
    28   13   15 1    
    29   14   93 1    
    30   15   16 1    
    31   15   94 1    
    32   15   95 1    
    33   16   17 1    
    34   17   18 1    
    35   17   96 1    
    36   17   97 1    
    37   18   19 1    
    38   18   22 1    
    39   18   98 1    
    40   19   20 am   BACKBONE|DICT|INTERRES
    41   19   21 2    
    42   20   99 1    
    43   20  100 1    
    44   22   23 am   BACKBONE|DICT|INTERRES
    45   22  101 1    
    46   23   24 2    
    47   23   25 1    
    48   25   26 1    
    49   25   27 1    
    50   25  102 1    
    51   26  103 1    
    52   26  104 1    
    53   26  105 1    
    54   27   28 am   BACKBONE|DICT|INTERRES
    55   27  106 1    
    56   28   29 2    
    57   28   30 1    
    58   30   31 1    
    59   30   32 1    
    60   30  107 1    
    61   31  108 1    
    62   31  109 1    
    63   31  110 1    
    64   32   33 am   BACKBONE|DICT|INTERRES
    65   32  111 1    
    66   33   34 2    
    67   33   35 1    
    68   35   36 1    
    69   35   37 1    
    70   35  112 1    
    71   36  113 1    
    72   36  114 1    
    73   36  115 1    
    74   37   38 am   BACKBONE|DICT|INTERRES
    75   37  116 1    
    76   38   39 2    
    77   38   40 1    
    78   40   41 1    
    79   40   42 1    
    80   40  117 1    
    81   41  118 1    
    82   41  119 1    
    83   41  120 1    
    84   42   43 am   BACKBONE|DICT|INTERRES
    85   42  121 1    
    86   43   44 2    
    87   43   45 1    
    88   45   46 1    
    89   45   47 1    
    90   45  122 1    
    91   46  123 1    
    92   46  124 1    
    93   46  125 1    
    94   47   48 am   BACKBONE|DICT|INTERRES
    95   47  126 1    
    96   48   49 2    
    97   48   50 1    
    98   50   51 1    
    99   50   52 1    
   100   50  127 1    
   101   51  128 1    
   102   51  129 1    
   103   51  130 1    
   104   52   53 am   BACKBONE|DICT|INTERRES
   105   52  131 1    
   106   53   54 2    
   107   53   55 1    
   108   55   56 1    
   109   55   59 1    
   110   55  132 1    
   111   56   57 1    
   112   56  133 1    
   113   56  134 1    
   114   57   58 1    
   115   58  135 1    
   116   58  136 1    
   117   59   60 am   BACKBONE|DICT|INTERRES
   118   59  137 1    
   119   60   61 2    
   120   60   62 1    
   121   62   63 1    
   122   62   64 1    
   123   62  138 1    
   124   63  139 1    
   125   63  140 1    
   126   63  141 1    
   127   64   65 am   BACKBONE|DICT|INTERRES
   128   64  142 1    
   129   65   66 2    
   130   65   67 1    
   131   67   68 1    
   132   67   69 1    
   133   67  143 1    
   134   68  144 1    
   135   68  145 1    
   136   68  146 1    
   137   69   70 am   BACKBONE|DICT|INTERRES
   138   69  147 1    
   139   70   71 2    
   140   70   72 1    
   141   72   73 1    
   142   72   74 1    
   143   72  148 1    
   144   73  149 1    
   145   73  150 1    
   146   73  151 1    
   147   74   75 am   BACKBONE|DICT|INTERRES
   148   74  152 1    
   149   75   76 2    
   150   75   77 1    
   151   77   78 1    
   152   77   79 1    
   153   77  153 1    
   154   78  154 1    
   155   78  155 1    
   156   78  156 1    
   157   79   80 am   BACKBONE|DICT|INTERRES
   158   79  157 1    
   159   80   81 2    
@<TRIPOS>SUBSTRUCTURE
     1 UNK         1 GROUP             0       ****    0 ROOT    
