@<TRIPOS>MOLECULE
3R207
157   159    1
SMALL
USER_CHARGES


@<TRIPOS>ATOM
      1 CA        -46.9871  -32.5167    5.3257 C.3       0 UNK        -0.1975 
      2 C         -47.7305  -31.3904    4.6227 C.2       0 UNK         0.4852 
      3 O         -47.7106  -31.3204    3.3934 O.2       0 UNK        -0.5216 
      4 N         -48.3882  -30.5133    5.3942 N.am      1 UNK        -0.4461 
      5 CA        -49.1321  -29.3473    4.8990 C.3       1 UNK         0.0864 
      6 C6        -50.0210  -28.7412    6.0146 C.3       14 UNK        -0.0898 
      7 S7        -51.4279  -27.7788    5.3631 S.3       14 UNK        -0.2598 
      8 C8        -52.8435  -28.5557    6.2058 C.3       14 UNK         0.0286 
      9 C9        -52.9236  -28.1474    7.6704 C.ar      14 UNK        -0.0844 
     10 C10       -53.5443  -26.9480    8.0319 C.ar      14 UNK        -0.0881 
     11 C11       -53.6363  -26.5693    9.3749 C.ar      14 UNK        -0.0643 
     12 C12       -53.1072  -27.4077   10.3609 C.ar      14 UNK        -0.0930 
     13 C13       -52.4833  -28.6088   10.0137 C.ar      14 UNK        -0.0827 
     14 C14       -52.3933  -28.9718    8.6668 C.ar      14 UNK        -0.1249 
     15 C15       -51.8868  -29.5070   11.0870 C.3       14 UNK         0.0141 
     16 S16       -52.7647  -31.1009   11.1893 S.3       14 UNK        -0.2313 
     17 C17       -53.4086  -31.1191   12.8953 C.3       14 UNK        -0.0915 
     18 CA        -54.9312  -30.8376   12.9517 C.3       13 UNK         0.0968 
     19 C         -55.5176  -31.2404   14.3323 C.2       13 UNK         0.5732 
     20 N         -55.9012  -32.4988   14.4980 N.am      13 UNK        -0.7310 
     21 O         -55.5923  -30.4392   15.2618 O.2       13 UNK        -0.5035 
     22 N         -55.2284  -29.4392   12.6191 N.am      13 UNK        -0.4233 
     23 C         -56.4390  -28.9721   12.2993 C.2       13 UNK         0.4989 
     24 O         -57.4314  -29.6849   12.1359 O.2       13 UNK        -0.4996 
     25 CA        -56.5581  -27.4417   12.1796 C.3       12 UNK         0.0216 
     26 CB        -57.8691  -26.9949   11.5067 C.3       12 UNK        -0.1964 
     27 N         -56.4507  -26.8050   13.4950 N.am      12 UNK        -0.4276 
     28 C         -55.3072  -26.6199   14.1654 C.2       12 UNK         0.5020 
     29 O         -54.1946  -26.8987   13.7080 O.2       12 UNK        -0.5489 
     30 CA        -55.4303  -26.0744   15.5933 C.3       11 UNK         0.0294 
     31 CB        -55.9446  -27.1773   16.5419 C.3       11 UNK        -0.2019 
     32 N         -54.1116  -25.6123   16.0132 N.am      11 UNK        -0.4493 
     33 C         -53.7976  -24.9596   17.1384 C.2       11 UNK         0.4932 
     34 O         -54.6315  -24.5973   17.9703 O.2       11 UNK        -0.5029 
     35 CA        -52.3032  -24.6476   17.3695 C.3       10 UNK         0.0280 
     36 CB        -51.9313  -24.5537   18.8645 C.3       10 UNK        -0.1976 
     37 N         -51.4002  -25.5583   16.6529 N.am      10 UNK        -0.4242 
     38 C         -51.2463  -26.8794   16.8338 C.2       10 UNK         0.5072 
     39 O         -51.8159  -27.5290   17.7113 O.2       10 UNK        -0.5224 
     40 CA        -50.3164  -27.6141   15.8512 C.3       9 UNK         0.0343 
     41 CB        -51.1428  -28.3079   14.7588 C.3       9 UNK        -0.2003 
     42 N         -49.3296  -26.7334   15.2201 N.am      9 UNK        -0.4272 
     43 C         -48.2163  -26.2991   15.8283 C.2       9 UNK         0.4988 
     44 O         -47.8702  -26.6484   16.9575 O.2       9 UNK        -0.5108 
     45 CA        -47.3541  -25.2853   15.0574 C.3       8 UNK         0.0248 
     46 CB        -46.5272  -25.9849   13.9669 C.3       8 UNK        -0.2001 
     47 N         -48.1424  -24.2029   14.4631 N.am      8 UNK        -0.4140 
     48 C         -48.8607  -23.3064   15.1565 C.2       8 UNK         0.5028 
     49 O         -48.9224  -23.2727   16.3851 O.2       8 UNK        -0.5428 
     50 CA        -49.6682  -22.2864   14.3418 C.3       7 UNK         0.0264 
     51 CB        -48.7841  -21.0999   13.9261 C.3       7 UNK        -0.1988 
     52 N         -50.2711  -22.8967   13.1563 N.am      7 UNK        -0.4454 
     53 C         -51.3689  -23.6670   13.1832 C.2       7 UNK         0.5027 
     54 O         -52.0063  -23.9103   14.2065 O.2       7 UNK        -0.5083 
     55 CA        -51.8244  -24.2838   11.8472 C.3       6 UNK         0.0844 
     56 C56       -52.7652  -23.3054   11.0997 C.3       14 UNK        -0.0967 
     57 S57       -53.2320  -23.8363    9.4160 S.3       14 UNK        -0.2604 
     58 C58       -54.3163  -25.2589    9.7468 C.3       14 UNK         0.0134 
     59 N         -50.6949  -24.7250   11.0271 N.am      6 UNK        -0.4116 
     60 C         -49.8291  -25.6914   11.3600 C.2       5 UNK         0.5034 
     61 O         -49.8793  -26.3367   12.4072 O.2       5 UNK        -0.5045 
     62 CA        -48.6723  -25.9344   10.3781 C.3       5 UNK         0.0224 
     63 CB        -49.1043  -26.9031    9.2672 C.3       5 UNK        -0.1978 
     64 N         -48.1378  -24.7069    9.7755 N.am      5 UNK        -0.4737 
     65 C         -47.6502  -23.6536   10.4449 C.2       4 UNK         0.5027 
     66 O         -47.6449  -23.5765   11.6749 O.2       4 UNK        -0.5211 
     67 CA        -47.0786  -22.5021    9.5943 C.3       4 UNK         0.0297 
     68 CB        -46.5205  -21.3524   10.4534 C.3       4 UNK        -0.1993 
     69 N         -46.0287  -22.9680    8.6835 N.am      4 UNK        -0.4486 
     70 C         -46.2373  -23.5809    7.5115 C.2       3 UNK         0.4961 
     71 O         -47.3654  -23.8000    7.0618 O.2       3 UNK        -0.5105 
     72 CA        -44.9864  -23.9943    6.7059 C.3       3 UNK         0.0299 
     73 CB        -43.8126  -24.4616    7.5975 C.3       3 UNK        -0.1972 
     74 N         -45.2890  -24.9936    5.6719 N.am      3 UNK        -0.4305 
     75 C         -45.7388  -26.2424    5.8616 C.2       2 UNK         0.5006 
     76 O         -45.8851  -26.7758    6.9655 O.2       2 UNK        -0.5106 
     77 CA        -46.0614  -27.0380    4.5911 C.3       2 UNK         0.0296 
     78 CB        -44.7983  -27.7161    4.0332 C.3       2 UNK        -0.2002 
     79 N         -47.0459  -28.0620    4.9255 N.am      2 UNK        -0.4032 
     80 C         -48.1987  -28.2813    4.2819 C.2       1 UNK         0.5000 
     81 O         -48.5311  -27.6996    3.2468 O.2       1 UNK        -0.5238 
     82 H82       -47.0949  -32.4643    6.4089 H         1 UNK         0.0889 
     83 H83       -45.9246  -32.4697    5.0882 H         1 UNK         0.0889 
     84 H84       -47.3683  -33.4820    4.9937 H         1 UNK         0.0889 
     85 H85       -48.3751  -30.6357    6.3969 H         1 UNK         0.3028 
     86 H86       -49.7839  -29.7092    4.1004 H         1 UNK         0.0864 
     87 H87       -50.4174  -29.5444    6.6355 H         1 UNK         0.0720 
     88 H88       -49.4423  -28.1086    6.6884 H         1 UNK         0.0720 
     89 H89       -52.7846  -29.6409    6.1079 H         1 UNK         0.0814 
     90 H90       -53.7606  -28.2579    5.6953 H         1 UNK         0.0814 
     91 H91       -53.9513  -26.3025    7.2655 H         1 UNK         0.1469 
     92 H92       -53.1758  -27.1266   11.4006 H         1 UNK         0.1381 
     93 H93       -51.9160  -29.9043    8.3996 H         1 UNK         0.1206 
     94 H94       -51.8913  -28.9995   12.0510 H         1 UNK         0.0813 
     95 H95       -50.8390  -29.6974   10.8518 H         1 UNK         0.0813 
     96 H96       -52.8572  -30.4211   13.5254 H         1 UNK         0.0638 
     97 H97       -53.1907  -32.1122   13.2929 H         1 UNK         0.0638 
     98 H98       -55.4190  -31.4620   12.2002 H         1 UNK         0.0568 
     99 H99       -56.2707  -32.7827   15.3917 H         1 UNK         0.3450 
    100 H100      -55.8336  -33.1690   13.7479 H         1 UNK         0.3450 
    101 H101      -54.5072  -28.7608   12.8337 H         1 UNK         0.2987 
    102 H102      -55.7352  -27.1052   11.5503 H         1 UNK         0.0766 
    103 H103      -57.8949  -25.9137   11.3692 H         1 UNK         0.0798 
    104 H104      -58.7448  -27.2805   12.0909 H         1 UNK         0.0798 
    105 H105      -57.9733  -27.4476   10.5196 H         1 UNK         0.0798 
    106 H106      -57.3219  -26.5835   13.9560 H         1 UNK         0.3198 
    107 H107      -56.1181  -25.2267   15.5908 H         1 UNK         0.0843 
    108 H108      -56.8941  -27.5897   16.1990 H         1 UNK         0.0831 
    109 H109      -56.1094  -26.7994   17.5506 H         1 UNK         0.0831 
    110 H110      -55.2373  -28.0054   16.6082 H         1 UNK         0.0831 
    111 H111      -53.3802  -25.8228   15.3422 H         1 UNK         0.3133 
    112 H112      -52.1340  -23.6623   16.9333 H         1 UNK         0.0566 
    113 H113      -50.8726  -24.3288   18.9944 H         1 UNK         0.0814 
    114 H114      -52.4928  -23.7596   19.3579 H         1 UNK         0.0814 
    115 H115      -52.1471  -25.4808   19.3960 H         1 UNK         0.0814 
    116 H116      -50.9091  -25.1350   15.8768 H         1 UNK         0.3091 
    117 H117      -49.7880  -28.3857   16.4153 H         1 UNK         0.0702 
    118 H118      -50.5121  -28.9272   14.1211 H         1 UNK         0.0785 
    119 H119      -51.6548  -27.5843   14.1238 H         1 UNK         0.0785 
    120 H120      -51.9041  -28.9553   15.1960 H         1 UNK         0.0785 
    121 H121      -49.5167  -26.4493   14.2604 H         1 UNK         0.2998 
    122 H122      -46.6606  -24.8308   15.7680 H         1 UNK         0.0697 
    123 H123      -47.1632  -26.4753   13.2303 H         1 UNK         0.0825 
    124 H124      -45.8808  -26.7497   14.3993 H         1 UNK         0.0825 
    125 H125      -45.8868  -25.2783   13.4384 H         1 UNK         0.0825 
    126 H126      -48.0991  -24.1069   13.4512 H         1 UNK         0.3029 
    127 H127      -50.4681  -21.9043   14.9806 H         1 UNK         0.0897 
    128 H128      -49.3453  -20.3678   13.3452 H         1 UNK         0.0792 
    129 H129      -48.3910  -20.5849   14.8037 H         1 UNK         0.0792 
    130 H130      -47.9290  -21.4206   13.3309 H         1 UNK         0.0792 
    131 H131      -49.7602  -22.8032   12.2890 H         1 UNK         0.3086 
    132 H132      -52.4008  -25.1726   12.1035 H         1 UNK         0.0583 
    133 H133      -53.6765  -23.1404   11.6784 H         1 UNK         0.1020 
    134 H134      -52.2955  -22.3244   11.0022 H         1 UNK         0.1020 
    135 H135      -54.6200  -25.2580   10.7940 H         1 UNK         0.0694 
    136 H136      -55.2323  -25.1482    9.1646 H         1 UNK         0.0694 
    137 H137      -50.5843  -24.2680   10.1341 H         1 UNK         0.2989 
    138 H138      -47.8602  -26.3998   10.9392 H         1 UNK         0.1055 
    139 H139      -49.4663  -27.8426    9.6865 H         1 UNK         0.0806 
    140 H140      -48.2693  -27.1433    8.6086 H         1 UNK         0.0806 
    141 H141      -49.9091  -26.4898    8.6570 H         1 UNK         0.0806 
    142 H142      -48.0815  -24.6751    8.7619 H         1 UNK         0.3061 
    143 H143      -47.9044  -22.0990    9.0040 H         1 UNK         0.0734 
    144 H144      -47.3029  -20.9181   11.0761 H         1 UNK         0.0832 
    145 H145      -45.7235  -21.6908   11.1168 H         1 UNK         0.0832 
    146 H146      -46.1241  -20.5481    9.8335 H         1 UNK         0.0832 
    147 H147      -45.0769  -22.8501    8.9996 H         1 UNK         0.3156 
    148 H148      -44.6609  -23.1011    6.1708 H         1 UNK         0.0589 
    149 H149      -44.1120  -25.2565    8.2820 H         1 UNK         0.0808 
    150 H150      -42.9860  -24.8387    6.9950 H         1 UNK         0.0808 
    151 H151      -43.4144  -23.6432    8.1978 H         1 UNK         0.0808 
    152 H152      -45.2269  -24.6563    4.7211 H         1 UNK         0.3098 
    153 H153      -46.4638  -26.3499    3.8445 H         1 UNK         0.0720 
    154 H154      -45.0243  -28.2928    3.1360 H         1 UNK         0.0791 
    155 H155      -44.3491  -28.3932    4.7610 H         1 UNK         0.0791 
    156 H156      -44.0423  -26.9779    3.7626 H         1 UNK         0.0791 
    157 H157      -46.8806  -28.5343    5.8042 H         1 UNK         0.3028 
@<TRIPOS>BOND
     1    1    2 1    
     2    1   82 1    
     3    1   83 1    
     4    1   84 1    
     5    2    3 2    
     6    2    4 am   BACKBONE|DICT|INTERRES
     7    4    5 1    
     8    4   85 1    
     9    5    6 1    
    10    5   80 1    
    11    5   86 1    
    12    6    7 1    
    13    6   87 1    
    14    6   88 1    
    15    7    8 1    
    16    8    9 1    
    17    8   89 1    
    18    8   90 1    
    19    9   10 ar   
    20    9   14 ar   
    21   10   11 ar   
    22   10   91 1    
    23   11   12 ar   
    24   11   58 1    
    25   12   13 ar   
    26   12   92 1    
    27   13   14 ar   
    28   13   15 1    
    29   14   93 1    
    30   15   16 1    
    31   15   94 1    
    32   15   95 1    
    33   16   17 1    
    34   17   18 1    
    35   17   96 1    
    36   17   97 1    
    37   18   19 1    
    38   18   22 1    
    39   18   98 1    
    40   19   20 am   BACKBONE|DICT|INTERRES
    41   19   21 2    
    42   20   99 1    
    43   20  100 1    
    44   22   23 am   BACKBONE|DICT|INTERRES
    45   22  101 1    
    46   23   24 2    
    47   23   25 1    
    48   25   26 1    
    49   25   27 1    
    50   25  102 1    
    51   26  103 1    
    52   26  104 1    
    53   26  105 1    
    54   27   28 am   BACKBONE|DICT|INTERRES
    55   27  106 1    
    56   28   29 2    
    57   28   30 1    
    58   30   31 1    
    59   30   32 1    
    60   30  107 1    
    61   31  108 1    
    62   31  109 1    
    63   31  110 1    
    64   32   33 am   BACKBONE|DICT|INTERRES
    65   32  111 1    
    66   33   34 2    
    67   33   35 1    
    68   35   36 1    
    69   35   37 1    
    70   35  112 1    
    71   36  113 1    
    72   36  114 1    
    73   36  115 1    
    74   37   38 am   BACKBONE|DICT|INTERRES
    75   37  116 1    
    76   38   39 2    
    77   38   40 1    
    78   40   41 1    
    79   40   42 1    
    80   40  117 1    
    81   41  118 1    
    82   41  119 1    
    83   41  120 1    
    84   42   43 am   BACKBONE|DICT|INTERRES
    85   42  121 1    
    86   43   44 2    
    87   43   45 1    
    88   45   46 1    
    89   45   47 1    
    90   45  122 1    
    91   46  123 1    
    92   46  124 1    
    93   46  125 1    
    94   47   48 am   BACKBONE|DICT|INTERRES
    95   47  126 1    
    96   48   49 2    
    97   48   50 1    
    98   50   51 1    
    99   50   52 1    
   100   50  127 1    
   101   51  128 1    
   102   51  129 1    
   103   51  130 1    
   104   52   53 am   BACKBONE|DICT|INTERRES
   105   52  131 1    
   106   53   54 2    
   107   53   55 1    
   108   55   56 1    
   109   55   59 1    
   110   55  132 1    
   111   56   57 1    
   112   56  133 1    
   113   56  134 1    
   114   57   58 1    
   115   58  135 1    
   116   58  136 1    
   117   59   60 am   BACKBONE|DICT|INTERRES
   118   59  137 1    
   119   60   61 2    
   120   60   62 1    
   121   62   63 1    
   122   62   64 1    
   123   62  138 1    
   124   63  139 1    
   125   63  140 1    
   126   63  141 1    
   127   64   65 am   BACKBONE|DICT|INTERRES
   128   64  142 1    
   129   65   66 2    
   130   65   67 1    
   131   67   68 1    
   132   67   69 1    
   133   67  143 1    
   134   68  144 1    
   135   68  145 1    
   136   68  146 1    
   137   69   70 am   BACKBONE|DICT|INTERRES
   138   69  147 1    
   139   70   71 2    
   140   70   72 1    
   141   72   73 1    
   142   72   74 1    
   143   72  148 1    
   144   73  149 1    
   145   73  150 1    
   146   73  151 1    
   147   74   75 am   BACKBONE|DICT|INTERRES
   148   74  152 1    
   149   75   76 2    
   150   75   77 1    
   151   77   78 1    
   152   77   79 1    
   153   77  153 1    
   154   78  154 1    
   155   78  155 1    
   156   78  156 1    
   157   79   80 am   BACKBONE|DICT|INTERRES
   158   79  157 1    
   159   80   81 2    
@<TRIPOS>SUBSTRUCTURE
     1 UNK         1 GROUP             0       ****    0 ROOT    
