@<TRIPOS>MOLECULE
3R207
157   159    1
SMALL
USER_CHARGES


@<TRIPOS>ATOM
      1 CA        -50.9944  -28.1251    8.4459 C.3       0 UNK        -0.1975 
      2 C         -50.4005  -28.7581    7.2065 C.2       0 UNK         0.4852 
      3 O         -49.7279  -29.7864    7.2907 O.2       0 UNK        -0.5216 
      4 N         -50.6316  -28.1335    6.0485 N.am      1 UNK        -0.4461 
      5 CA        -50.1476  -28.5681    4.7351 C.3       1 UNK         0.0864 
      6 C6        -51.0698  -28.0599    3.5989 C.3       14 UNK        -0.0898 
      7 S7        -52.7627  -28.7273    3.7469 S.3       14 UNK        -0.2598 
      8 C8        -53.7570  -27.2215    3.9874 C.3       14 UNK         0.0286 
      9 C9        -53.6912  -26.6862    5.4126 C.ar      14 UNK        -0.0844 
     10 C10       -52.8997  -25.5744    5.7185 C.ar      14 UNK        -0.0881 
     11 C11       -52.9224  -25.0156    7.0013 C.ar      14 UNK        -0.0643 
     12 C12       -53.7415  -25.5861    7.9815 C.ar      14 UNK        -0.0930 
     13 C13       -54.5080  -26.7208    7.7024 C.ar      14 UNK        -0.0827 
     14 C14       -54.4808  -27.2622    6.4129 C.ar      14 UNK        -0.1249 
     15 C15       -55.4097  -27.3317    8.7696 C.3       14 UNK         0.0141 
     16 S16       -54.8413  -28.9813    9.2985 S.3       14 UNK        -0.2313 
     17 C17       -53.7172  -28.6260   10.6966 C.3       14 UNK        -0.0915 
     18 CA        -54.2641  -29.1023   12.0705 C.3       13 UNK         0.0968 
     19 C         -54.1536  -30.6486   12.2655 C.2       13 UNK         0.5732 
     20 N         -53.4807  -31.1585   13.2903 N.am      13 UNK        -0.7310 
     21 O         -54.7127  -31.4142   11.4846 O.2       13 UNK        -0.5035 
     22 N         -53.6930  -28.3143   13.1792 N.am      13 UNK        -0.4233 
     23 C         -54.3249  -28.1266   14.3471 C.2       13 UNK         0.4989 
     24 O         -55.4759  -28.5149   14.5581 O.2       13 UNK        -0.4996 
     25 CA        -53.5661  -27.3799   15.4655 C.3       12 UNK         0.0216 
     26 CB        -54.2453  -27.5328   16.8426 C.3       12 UNK        -0.1964 
     27 N         -52.1416  -27.7013   15.5902 N.am      12 UNK        -0.4276 
     28 C         -51.5768  -28.9126   15.7090 C.2       12 UNK         0.5020 
     29 O         -52.1839  -29.9730   15.5602 O.2       12 UNK        -0.5489 
     30 CA        -50.0800  -28.9602   16.0731 C.3       11 UNK         0.0294 
     31 CB        -49.2258  -29.1478   14.8129 C.3       11 UNK        -0.2019 
     32 N         -49.6194  -27.7708   16.7956 N.am      11 UNK        -0.4493 
     33 C         -49.9539  -27.4685   18.0588 C.2       11 UNK         0.4932 
     34 O         -50.6051  -28.2138   18.7911 O.2       11 UNK        -0.5029 
     35 CA        -49.5037  -26.0949   18.5957 C.3       10 UNK         0.0280 
     36 CB        -48.2102  -26.2387   19.4141 C.3       10 UNK        -0.1976 
     37 N         -49.3125  -25.0656   17.5640 N.am      10 UNK        -0.4242 
     38 C         -50.2631  -24.6222   16.7291 C.2       10 UNK         0.5072 
     39 O         -51.4136  -25.0633   16.7099 O.2       10 UNK        -0.5224 
     40 CA        -49.8303  -23.5509   15.7181 C.3       9 UNK         0.0343 
     41 CB        -48.9230  -24.1645   14.6373 C.3       9 UNK        -0.2003 
     42 N         -50.9992  -22.9563   15.0685 N.am      9 UNK        -0.4272 
     43 C         -51.6285  -21.8516   15.4929 C.2       9 UNK         0.4988 
     44 O         -51.2565  -21.1901   16.4637 O.2       9 UNK        -0.5108 
     45 CA        -52.8597  -21.3662   14.7015 C.3       8 UNK         0.0248 
     46 CB        -52.5048  -20.1151   13.8797 C.3       8 UNK        -0.2001 
     47 N         -53.4193  -22.3763   13.8009 N.am      8 UNK        -0.4140 
     48 C         -54.2481  -23.3609   14.1740 C.2       8 UNK         0.5028 
     49 O         -54.6854  -23.4944   15.3168 O.2       8 UNK        -0.5428 
     50 CA        -54.6618  -24.3753   13.0880 C.3       7 UNK         0.0264 
     51 CB        -56.0043  -23.9678   12.4598 C.3       7 UNK        -0.1988 
     52 N         -53.6786  -24.5856   12.0161 N.am      7 UNK        -0.4454 
     53 C         -52.3967  -24.9502   12.1777 C.2       7 UNK         0.5027 
     54 O         -51.8743  -25.1073   13.2815 O.2       7 UNK        -0.5083 
     55 CA        -51.5735  -25.1303   10.8839 C.3       6 UNK         0.0844 
     56 C56       -51.4734  -23.8109   10.0760 C.3       14 UNK        -0.0967 
     57 S57       -50.7144  -24.0657    8.4309 S.3       14 UNK        -0.2604 
     58 C58       -52.1126  -23.7584    7.3004 C.3       14 UNK         0.0134 
     59 N         -50.2422  -25.6811   11.1257 N.am      6 UNK        -0.4116 
     60 C         -49.9331  -26.9139   11.5364 C.2       5 UNK         0.5034 
     61 O         -50.7739  -27.7449   11.8869 O.2       5 UNK        -0.5045 
     62 CA        -48.4328  -27.2958   11.5005 C.3       5 UNK         0.0224 
     63 CB        -48.2236  -28.7965   11.2220 C.3       5 UNK        -0.1978 
     64 N         -47.6306  -26.5378   10.5258 N.am      5 UNK        -0.4737 
     65 C         -47.2247  -25.2661   10.6591 C.2       4 UNK         0.5027 
     66 O         -47.5547  -24.5585   11.6095 O.2       4 UNK        -0.5211 
     67 CA        -46.3536  -24.6712    9.5326 C.3       4 UNK         0.0297 
     68 CB        -45.4793  -23.4955   10.0180 C.3       4 UNK        -0.1993 
     69 N         -45.5417  -25.6676    8.8235 N.am      4 UNK        -0.4486 
     70 C         -44.6050  -26.4792    9.3389 C.2       3 UNK         0.4961 
     71 O         -44.2407  -26.4437   10.5150 O.2       3 UNK        -0.5105 
     72 CA        -43.9590  -27.5041    8.3808 C.3       3 UNK         0.0299 
     73 CB        -43.7053  -28.8585    9.0774 C.3       3 UNK        -0.1972 
     74 N         -44.6730  -27.7088    7.1086 N.am      3 UNK        -0.4305 
     75 C         -45.9193  -28.1755    6.9384 C.2       2 UNK         0.5006 
     76 O         -46.6938  -28.4312    7.8645 O.2       2 UNK        -0.5106 
     77 CA        -46.3657  -28.3704    5.4827 C.3       2 UNK         0.0296 
     78 CB        -45.6254  -29.5487    4.8235 C.3       2 UNK        -0.2002 
     79 N         -47.8015  -28.6280    5.4450 N.am      2 UNK        -0.4032 
     80 C         -48.6653  -28.1777    4.5288 C.2       1 UNK         0.5000 
     81 O         -48.3337  -27.4795    3.5675 O.2       1 UNK        -0.5238 
     82 H82       -50.5575  -27.1418    8.6120 H         1 UNK         0.0889 
     83 H83       -50.7985  -28.7456    9.3185 H         1 UNK         0.0889 
     84 H84       -52.0713  -28.0147    8.3367 H         1 UNK         0.0889 
     85 H85       -51.2105  -27.3048    6.0451 H         1 UNK         0.3028 
     86 H86       -50.1755  -29.6599    4.7050 H         1 UNK         0.0864 
     87 H87       -51.0935  -26.9691    3.5780 H         1 UNK         0.0720 
     88 H88       -50.6853  -28.3740    2.6266 H         1 UNK         0.0720 
     89 H89       -54.7951  -27.4540    3.7452 H         1 UNK         0.0814 
     90 H90       -53.4507  -26.4589    3.2697 H         1 UNK         0.0814 
     91 H91       -52.2964  -25.1182    4.9451 H         1 UNK         0.1469 
     92 H92       -53.7975  -25.1345    8.9582 H         1 UNK         0.1381 
     93 H93       -55.0942  -28.1227    6.1818 H         1 UNK         0.1206 
     94 H94       -55.5057  -26.6760    9.6362 H         1 UNK         0.0813 
     95 H95       -56.4150  -27.4314    8.3579 H         1 UNK         0.0813 
     96 H96       -53.5401  -27.5523   10.7181 H         1 UNK         0.0638 
     97 H97       -52.7505  -29.0879   10.4986 H         1 UNK         0.0638 
     98 H98       -55.3357  -28.8938   12.0608 H         1 UNK         0.0568 
     99 H99       -53.4383  -32.1594   13.3907 H         1 UNK         0.3450 
    100 H100      -53.0434  -30.5694   13.9943 H         1 UNK         0.3450 
    101 H101      -52.7325  -28.0107   13.0702 H         1 UNK         0.2987 
    102 H102      -53.5975  -26.3218   15.2088 H         1 UNK         0.0766 
    103 H103      -54.2710  -28.5747   17.1641 H         1 UNK         0.0798 
    104 H104      -55.2732  -27.1686   16.8195 H         1 UNK         0.0798 
    105 H105      -53.7195  -26.9590   17.6064 H         1 UNK         0.0798 
    106 H106      -51.5562  -26.8873   15.7466 H         1 UNK         0.3198 
    107 H107      -49.9310  -29.8290   16.7181 H         1 UNK         0.0843 
    108 H108      -49.3074  -28.2868   14.1522 H         1 UNK         0.0831 
    109 H109      -49.5481  -30.0249   14.2497 H         1 UNK         0.0831 
    110 H110      -48.1732  -29.2885   15.0591 H         1 UNK         0.0831 
    111 H111      -49.0597  -27.1078   16.2805 H         1 UNK         0.3133 
    112 H112      -50.2905  -25.7393   19.2642 H         1 UNK         0.0566 
    113 H113      -47.3730  -26.5619   18.7941 H         1 UNK         0.0814 
    114 H114      -48.3307  -26.9772   20.2082 H         1 UNK         0.0814 
    115 H115      -47.9336  -25.2981   19.8909 H         1 UNK         0.0814 
    116 H116      -48.3915  -24.6544   17.5066 H         1 UNK         0.3091 
    117 H117      -49.2673  -22.7794   16.2477 H         1 UNK         0.0702 
    118 H118      -48.6627  -23.4278   13.8770 H         1 UNK         0.0785 
    119 H119      -49.3983  -25.0058   14.1325 H         1 UNK         0.0785 
    120 H120      -47.9866  -24.5279   15.0614 H         1 UNK         0.0785 
    121 H121      -51.4277  -23.5258   14.3456 H         1 UNK         0.2998 
    122 H122      -53.6232  -21.0858   15.4304 H         1 UNK         0.0697 
    123 H123      -53.3792  -19.7160   13.3652 H         1 UNK         0.0825 
    124 H124      -51.7397  -20.3256   13.1313 H         1 UNK         0.0825 
    125 H125      -52.1207  -19.3215   14.5224 H         1 UNK         0.0825 
    126 H126      -53.1269  -22.3371   12.8362 H         1 UNK         0.3029 
    127 H127      -54.8125  -25.3338   13.5823 H         1 UNK         0.0897 
    128 H128      -55.9249  -23.0313   11.9061 H         1 UNK         0.0792 
    129 H129      -56.7675  -23.8278   13.2269 H         1 UNK         0.0792 
    130 H130      -56.3742  -24.7336   11.7776 H         1 UNK         0.0792 
    131 H131      -54.0328  -24.4614   11.0802 H         1 UNK         0.3086 
    132 H132      -52.1004  -25.8662   10.2787 H         1 UNK         0.0583 
    133 H133      -52.4478  -23.3390    9.9469 H         1 UNK         0.1020 
    134 H134      -50.8677  -23.0816   10.6181 H         1 UNK         0.1020 
    135 H135      -52.7663  -22.9826    7.7007 H         1 UNK         0.0694 
    136 H136      -51.7059  -23.3483    6.3747 H         1 UNK         0.0694 
    137 H137      -49.4663  -25.0561   10.9513 H         1 UNK         0.2989 
    138 H138      -48.0394  -27.0795   12.4958 H         1 UNK         0.1055 
    139 H139      -48.5470  -29.0672   10.2162 H         1 UNK         0.0806 
    140 H140      -48.7805  -29.4204   11.9211 H         1 UNK         0.0806 
    141 H141      -47.1728  -29.0713   11.3157 H         1 UNK         0.0806 
    142 H142      -47.3332  -27.0464    9.7015 H         1 UNK         0.3061 
    143 H143      -47.0552  -24.2747    8.7970 H         1 UNK         0.0734 
    144 H144      -44.7965  -23.8001   10.8117 H         1 UNK         0.0832 
    145 H145      -44.8852  -23.0789    9.2047 H         1 UNK         0.0832 
    146 H146      -46.0948  -22.6867   10.4139 H         1 UNK         0.0832 
    147 H147      -45.7608  -25.7906    7.8452 H         1 UNK         0.3156 
    148 H148      -42.9873  -27.0864    8.1137 H         1 UNK         0.0589 
    149 H149      -43.2284  -29.5694    8.4028 H         1 UNK         0.0808 
    150 H150      -43.0460  -28.7418    9.9384 H         1 UNK         0.0808 
    151 H151      -44.6317  -29.3072    9.4378 H         1 UNK         0.0808 
    152 H152      -44.1320  -27.5031    6.2791 H         1 UNK         0.3098 
    153 H153      -46.1418  -27.4495    4.9399 H         1 UNK         0.0720 
    154 H154      -45.8067  -30.4840    5.3549 H         1 UNK         0.0791 
    155 H155      -44.5473  -29.3849    4.8080 H         1 UNK         0.0791 
    156 H156      -45.9433  -29.6859    3.7897 H         1 UNK         0.0791 
    157 H157      -48.1743  -29.1224    6.2535 H         1 UNK         0.3028 
@<TRIPOS>BOND
     1    1    2 1    
     2    1   82 1    
     3    1   83 1    
     4    1   84 1    
     5    2    3 2    
     6    2    4 am   BACKBONE|DICT|INTERRES
     7    4    5 1    
     8    4   85 1    
     9    5    6 1    
    10    5   80 1    
    11    5   86 1    
    12    6    7 1    
    13    6   87 1    
    14    6   88 1    
    15    7    8 1    
    16    8    9 1    
    17    8   89 1    
    18    8   90 1    
    19    9   10 ar   
    20    9   14 ar   
    21   10   11 ar   
    22   10   91 1    
    23   11   12 ar   
    24   11   58 1    
    25   12   13 ar   
    26   12   92 1    
    27   13   14 ar   
    28   13   15 1    
    29   14   93 1    
    30   15   16 1    
    31   15   94 1    
    32   15   95 1    
    33   16   17 1    
    34   17   18 1    
    35   17   96 1    
    36   17   97 1    
    37   18   19 1    
    38   18   22 1    
    39   18   98 1    
    40   19   20 am   BACKBONE|DICT|INTERRES
    41   19   21 2    
    42   20   99 1    
    43   20  100 1    
    44   22   23 am   BACKBONE|DICT|INTERRES
    45   22  101 1    
    46   23   24 2    
    47   23   25 1    
    48   25   26 1    
    49   25   27 1    
    50   25  102 1    
    51   26  103 1    
    52   26  104 1    
    53   26  105 1    
    54   27   28 am   BACKBONE|DICT|INTERRES
    55   27  106 1    
    56   28   29 2    
    57   28   30 1    
    58   30   31 1    
    59   30   32 1    
    60   30  107 1    
    61   31  108 1    
    62   31  109 1    
    63   31  110 1    
    64   32   33 am   BACKBONE|DICT|INTERRES
    65   32  111 1    
    66   33   34 2    
    67   33   35 1    
    68   35   36 1    
    69   35   37 1    
    70   35  112 1    
    71   36  113 1    
    72   36  114 1    
    73   36  115 1    
    74   37   38 am   BACKBONE|DICT|INTERRES
    75   37  116 1    
    76   38   39 2    
    77   38   40 1    
    78   40   41 1    
    79   40   42 1    
    80   40  117 1    
    81   41  118 1    
    82   41  119 1    
    83   41  120 1    
    84   42   43 am   BACKBONE|DICT|INTERRES
    85   42  121 1    
    86   43   44 2    
    87   43   45 1    
    88   45   46 1    
    89   45   47 1    
    90   45  122 1    
    91   46  123 1    
    92   46  124 1    
    93   46  125 1    
    94   47   48 am   BACKBONE|DICT|INTERRES
    95   47  126 1    
    96   48   49 2    
    97   48   50 1    
    98   50   51 1    
    99   50   52 1    
   100   50  127 1    
   101   51  128 1    
   102   51  129 1    
   103   51  130 1    
   104   52   53 am   BACKBONE|DICT|INTERRES
   105   52  131 1    
   106   53   54 2    
   107   53   55 1    
   108   55   56 1    
   109   55   59 1    
   110   55  132 1    
   111   56   57 1    
   112   56  133 1    
   113   56  134 1    
   114   57   58 1    
   115   58  135 1    
   116   58  136 1    
   117   59   60 am   BACKBONE|DICT|INTERRES
   118   59  137 1    
   119   60   61 2    
   120   60   62 1    
   121   62   63 1    
   122   62   64 1    
   123   62  138 1    
   124   63  139 1    
   125   63  140 1    
   126   63  141 1    
   127   64   65 am   BACKBONE|DICT|INTERRES
   128   64  142 1    
   129   65   66 2    
   130   65   67 1    
   131   67   68 1    
   132   67   69 1    
   133   67  143 1    
   134   68  144 1    
   135   68  145 1    
   136   68  146 1    
   137   69   70 am   BACKBONE|DICT|INTERRES
   138   69  147 1    
   139   70   71 2    
   140   70   72 1    
   141   72   73 1    
   142   72   74 1    
   143   72  148 1    
   144   73  149 1    
   145   73  150 1    
   146   73  151 1    
   147   74   75 am   BACKBONE|DICT|INTERRES
   148   74  152 1    
   149   75   76 2    
   150   75   77 1    
   151   77   78 1    
   152   77   79 1    
   153   77  153 1    
   154   78  154 1    
   155   78  155 1    
   156   78  156 1    
   157   79   80 am   BACKBONE|DICT|INTERRES
   158   79  157 1    
   159   80   81 2    
@<TRIPOS>SUBSTRUCTURE
     1 UNK         1 GROUP             0       ****    0 ROOT    
