@<TRIPOS>MOLECULE
3R207
157   159    1
SMALL
USER_CHARGES


@<TRIPOS>ATOM
      1 CA        -53.9542  -25.6065    4.1343 C.3       0 UNK        -0.1975 
      2 C         -52.7473  -25.9657    4.9882 C.2       0 UNK         0.4852 
      3 O         -52.4182  -25.2314    5.9204 O.2       0 UNK        -0.5216 
      4 N         -52.0916  -27.0937    4.6841 N.am      1 UNK        -0.4461 
      5 CA        -50.8785  -27.5565    5.3634 C.3       1 UNK         0.0864 
      6 C6        -50.6303  -29.0652    5.1131 C.3       14 UNK        -0.0898 
      7 S7        -49.7055  -29.8710    6.4684 S.3       14 UNK        -0.2598 
      8 C8        -51.0112  -30.7906    7.3551 C.3       14 UNK         0.0286 
      9 C9        -51.5660  -29.9996    8.5326 C.ar      14 UNK        -0.0844 
     10 C10       -52.4151  -28.9108    8.3171 C.ar      14 UNK        -0.0881 
     11 C11       -52.8868  -28.1502    9.3901 C.ar      14 UNK        -0.0643 
     12 C12       -52.5617  -28.5361   10.6930 C.ar      14 UNK        -0.0930 
     13 C13       -51.7279  -29.6338   10.9297 C.ar      14 UNK        -0.0827 
     14 C14       -51.2276  -30.3560    9.8421 C.ar      14 UNK        -0.1249 
     15 C15       -51.3243  -30.0173   12.3500 C.3       14 UNK         0.0141 
     16 S16       -52.7165  -30.0264   13.5289 S.3       14 UNK        -0.2313 
     17 C17       -53.7197  -31.4283   12.9284 C.3       14 UNK        -0.0915 
     18 CA        -54.8347  -31.0216   11.9254 C.3       13 UNK         0.0968 
     19 C         -55.6559  -32.2658   11.4773 C.2       13 UNK         0.5732 
     20 N         -56.9541  -32.3420   11.7468 N.am      13 UNK        -0.7310 
     21 O         -55.1044  -33.1800   10.8691 O.2       13 UNK        -0.5035 
     22 N         -55.6397  -29.8901   12.4177 N.am      13 UNK        -0.4233 
     23 C         -56.3720  -29.0809   11.6413 C.2       13 UNK         0.4989 
     24 O         -56.4812  -29.2170   10.4223 O.2       13 UNK        -0.4996 
     25 CA        -57.1325  -27.9298   12.3277 C.3       12 UNK         0.0216 
     26 CB        -58.6295  -28.2672   12.4339 C.3       12 UNK        -0.1964 
     27 N         -56.6293  -27.5655   13.6580 N.am      12 UNK        -0.4276 
     28 C         -55.4641  -26.9469   13.8884 C.2       12 UNK         0.5020 
     29 O         -54.6514  -26.6604   13.0079 O.2       12 UNK        -0.5489 
     30 CA        -55.1582  -26.5892   15.3477 C.3       11 UNK         0.0294 
     31 CB        -54.7973  -27.8390   16.1718 C.3       11 UNK        -0.2019 
     32 N         -54.0369  -25.6564   15.3714 N.am      11 UNK        -0.4493 
     33 C         -53.8261  -24.6977   16.2793 C.2       11 UNK         0.4932 
     34 O         -54.5876  -24.4635   17.2199 O.2       11 UNK        -0.5029 
     35 CA        -52.5249  -23.8897   16.1054 C.3       10 UNK         0.0280 
     36 CB        -52.2572  -22.8955   17.2551 C.3       10 UNK        -0.1976 
     37 N         -51.3709  -24.7690   15.8852 N.am      10 UNK        -0.4242 
     38 C         -50.9013  -25.7156   16.7143 C.2       10 UNK         0.5072 
     39 O         -51.3270  -25.9211   17.8519 O.2       10 UNK        -0.5224 
     40 CA        -49.7717  -26.6059   16.1741 C.3       9 UNK         0.0343 
     41 CB        -50.3633  -27.7683   15.3609 C.3       9 UNK        -0.2003 
     42 N         -48.8025  -25.8691   15.3586 N.am      9 UNK        -0.4272 
     43 C         -47.9058  -25.0044   15.8582 C.2       9 UNK         0.4988 
     44 O         -47.7716  -24.7759   17.0612 O.2       9 UNK        -0.5108 
     45 CA        -47.0076  -24.2618   14.8527 C.3       8 UNK         0.0248 
     46 CB        -45.9059  -25.1870   14.3144 C.3       8 UNK        -0.2001 
     47 N         -47.7591  -23.6909   13.7350 N.am      8 UNK        -0.4140 
     48 C         -48.6851  -22.7272   13.8437 C.2       8 UNK         0.5028 
     49 O         -48.9488  -22.1378   14.8920 O.2       8 UNK        -0.5428 
     50 CA        -49.4788  -22.3846   12.5718 C.3       7 UNK         0.0264 
     51 CB        -48.8198  -21.2343   11.7928 C.3       7 UNK        -0.1988 
     52 N         -49.6694  -23.5492   11.6993 N.am      7 UNK        -0.4454 
     53 C         -50.4803  -24.5718   12.0083 C.2       7 UNK         0.5027 
     54 O         -51.1208  -24.6363   13.0591 O.2       7 UNK        -0.5083 
     55 CA        -50.5662  -25.7303   11.0007 C.3       6 UNK         0.0844 
     56 C56       -51.3768  -25.3668    9.7264 C.3       14 UNK        -0.0967 
     57 S57       -53.1788  -25.4169   10.0312 S.3       14 UNK        -0.2604 
     58 C58       -53.7344  -26.9087    9.1275 C.3       14 UNK         0.0134 
     59 N         -49.2598  -26.3041   10.6799 N.am      6 UNK        -0.4116 
     60 C         -48.5081  -27.0199   11.5263 C.2       5 UNK         0.5034 
     61 O         -48.7303  -27.1115   12.7317 O.2       5 UNK        -0.5045 
     62 CA        -47.3093  -27.7652   10.9271 C.3       5 UNK         0.0224 
     63 CB        -47.7510  -28.7583    9.8363 C.3       5 UNK        -0.1978 
     64 N         -46.3593  -26.8100   10.3672 N.am      5 UNK        -0.4737 
     65 C         -45.1545  -26.5353   10.8836 C.2       4 UNK         0.5027 
     66 O         -44.6577  -27.1521   11.8260 O.2       4 UNK        -0.5211 
     67 CA        -44.3548  -25.3766   10.2537 C.3       4 UNK         0.0297 
     68 CB        -43.1798  -25.9245    9.4269 C.3       4 UNK        -0.1993 
     69 N         -45.1493  -24.4782    9.4103 N.am      4 UNK        -0.4486 
     70 C         -46.1665  -23.7134    9.8301 C.2       3 UNK         0.4961 
     71 O         -46.5497  -23.6575   10.9982 O.2       3 UNK        -0.5105 
     72 CA        -46.9401  -22.9472    8.7418 C.3       3 UNK         0.0299 
     73 CB        -46.2955  -21.5763    8.4863 C.3       3 UNK        -0.1972 
     74 N         -47.0653  -23.6833    7.4749 N.am      3 UNK        -0.4305 
     75 C         -47.6453  -24.8850    7.3508 C.2       2 UNK         0.5006 
     76 O         -48.1049  -25.5240    8.3026 O.2       2 UNK        -0.5106 
     77 CA        -47.6945  -25.5030    5.9510 C.3       2 UNK         0.0296 
     78 CB        -46.3781  -26.2277    5.6240 C.3       2 UNK        -0.2002 
     79 N         -48.7901  -26.4626    5.9640 N.am      2 UNK        -0.4032 
     80 C         -49.6656  -26.6837    4.9828 C.2       1 UNK         0.5000 
     81 O         -49.5565  -26.2311    3.8392 O.2       1 UNK        -0.5238 
     82 H82       -54.1423  -26.3500    3.3598 H         1 UNK         0.0889 
     83 H83       -53.7964  -24.6436    3.6493 H         1 UNK         0.0889 
     84 H84       -54.8452  -25.5328    4.7572 H         1 UNK         0.0889 
     85 H85       -52.3811  -27.6348    3.8818 H         1 UNK         0.3028 
     86 H86       -51.0484  -27.4082    6.4309 H         1 UNK         0.0864 
     87 H87       -51.5801  -29.5871    4.9903 H         1 UNK         0.0720 
     88 H88       -50.0935  -29.2266    4.1761 H         1 UNK         0.0720 
     89 H89       -50.5825  -31.7300    7.7072 H         1 UNK         0.0814 
     90 H90       -51.8200  -31.0722    6.6800 H         1 UNK         0.0814 
     91 H91       -52.6949  -28.6442    7.3085 H         1 UNK         0.1469 
     92 H92       -52.9436  -27.9622   11.5261 H         1 UNK         0.1381 
     93 H93       -50.5680  -31.1955   10.0146 H         1 UNK         0.1206 
     94 H94       -50.8416  -30.9955   12.3679 H         1 UNK         0.0813 
     95 H95       -50.5795  -29.3010   12.6980 H         1 UNK         0.0813 
     96 H96       -54.1609  -31.9096   13.8029 H         1 UNK         0.0638 
     97 H97       -53.0534  -32.1680   12.4807 H         1 UNK         0.0638 
     98 H98       -54.3376  -30.6793   11.0171 H         1 UNK         0.0568 
     99 H99       -57.4732  -33.1523   11.4477 H         1 UNK         0.3450 
    100 H100      -57.4178  -31.5982   12.2419 H         1 UNK         0.3450 
    101 H101      -55.5912  -29.7064   13.4076 H         1 UNK         0.2987 
    102 H102      -57.0276  -27.0547   11.6824 H         1 UNK         0.0766 
    103 H103      -59.0454  -28.5145   11.4559 H         1 UNK         0.0798 
    104 H104      -59.2008  -27.4226   12.8197 H         1 UNK         0.0798 
    105 H105      -58.8072  -29.1214   13.0883 H         1 UNK         0.0798 
    106 H106      -57.2365  -27.7649   14.4407 H         1 UNK         0.3198 
    107 H107      -56.0430  -26.1093   15.7718 H         1 UNK         0.0843 
    108 H108      -54.5902  -27.5801   17.2104 H         1 UNK         0.0831 
    109 H109      -53.9140  -28.3397   15.7740 H         1 UNK         0.0831 
    110 H110      -55.6120  -28.5637   16.1772 H         1 UNK         0.0831 
    111 H111      -53.4208  -25.7340   14.5696 H         1 UNK         0.3133 
    112 H112      -52.6426  -23.3086   15.1896 H         1 UNK         0.0566 
    113 H113      -51.3362  -22.3370   17.0861 H         1 UNK         0.0814 
    114 H114      -52.1727  -23.3989   18.2185 H         1 UNK         0.0814 
    115 H115      -53.0670  -22.1698   17.3382 H         1 UNK         0.0814 
    116 H116      -50.9902  -24.7332   14.9420 H         1 UNK         0.3091 
    117 H117      -49.2428  -27.0298   17.0305 H         1 UNK         0.0702 
    118 H118      -49.5869  -28.4604   15.0349 H         1 UNK         0.0785 
    119 H119      -50.8894  -27.4131   14.4733 H         1 UNK         0.0785 
    120 H120      -51.0781  -28.3397   15.9548 H         1 UNK         0.0785 
    121 H121      -48.8139  -26.0600   14.3601 H         1 UNK         0.2998 
    122 H122      -46.5273  -23.4357   15.3811 H         1 UNK         0.0697 
    123 H123      -46.3216  -26.0375   13.7733 H         1 UNK         0.0825 
    124 H124      -45.2981  -25.5851   15.1278 H         1 UNK         0.0825 
    125 H125      -45.2357  -24.6563   13.6377 H         1 UNK         0.0825 
    126 H126      -47.5471  -24.0416   12.8075 H         1 UNK         0.3029 
    127 H127      -50.4669  -22.0438   12.8902 H         1 UNK         0.0897 
    128 H128      -47.7967  -21.4672   11.5012 H         1 UNK         0.0792 
    129 H129      -48.7792  -20.3316   12.4038 H         1 UNK         0.0792 
    130 H130      -49.3811  -20.9886   10.8913 H         1 UNK         0.0792 
    131 H131      -49.1177  -23.5925   10.8552 H         1 UNK         0.3086 
    132 H132      -51.1011  -26.5230   11.5226 H         1 UNK         0.0583 
    133 H133      -51.1041  -24.3820    9.3427 H         1 UNK         0.1020 
    134 H134      -51.1471  -26.0615    8.9171 H         1 UNK         0.1020 
    135 H135      -54.7660  -27.1233    9.4090 H         1 UNK         0.0694 
    136 H136      -53.7470  -26.6729    8.0623 H         1 UNK         0.0694 
    137 H137      -48.9360  -26.1839    9.7230 H         1 UNK         0.2989 
    138 H138      -46.8491  -28.3397   11.7343 H         1 UNK         0.1055 
    139 H139      -48.2067  -28.2620    8.9790 H         1 UNK         0.0806 
    140 H140      -46.9053  -29.3396    9.4690 H         1 UNK         0.0806 
    141 H141      -48.4819  -29.4660   10.2287 H         1 UNK         0.0806 
    142 H142      -46.7015  -26.2320    9.6081 H         1 UNK         0.3061 
    143 H143      -43.9502  -24.7838   11.0768 H         1 UNK         0.0734 
    144 H144      -43.5251  -26.5139    8.5765 H         1 UNK         0.0832 
    145 H145      -42.5498  -25.1199    9.0474 H         1 UNK         0.0832 
    146 H146      -42.5435  -26.5709   10.0332 H         1 UNK         0.0832 
    147 H147      -44.9234  -24.4647    8.4265 H         1 UNK         0.3156 
    148 H148      -47.9507  -22.7784    9.1185 H         1 UNK         0.0589 
    149 H149      -46.8928  -20.9786    7.7975 H         1 UNK         0.0808 
    150 H150      -46.2089  -21.0068    9.4129 H         1 UNK         0.0808 
    151 H151      -45.2927  -21.6709    8.0677 H         1 UNK         0.0808 
    152 H152      -46.7060  -23.2279    6.6475 H         1 UNK         0.3098 
    153 H153      -47.8870  -24.7155    5.2193 H         1 UNK         0.0720 
    154 H154      -45.5391  -25.5313    5.6026 H         1 UNK         0.0791 
    155 H155      -46.4255  -26.7070    4.6460 H         1 UNK         0.0791 
    156 H156      -46.1475  -26.9984    6.3613 H         1 UNK         0.0791 
    157 H157      -48.9709  -26.8489    6.8820 H         1 UNK         0.3028 
@<TRIPOS>BOND
     1    1    2 1    
     2    1   82 1    
     3    1   83 1    
     4    1   84 1    
     5    2    3 2    
     6    2    4 am   BACKBONE|DICT|INTERRES
     7    4    5 1    
     8    4   85 1    
     9    5    6 1    
    10    5   80 1    
    11    5   86 1    
    12    6    7 1    
    13    6   87 1    
    14    6   88 1    
    15    7    8 1    
    16    8    9 1    
    17    8   89 1    
    18    8   90 1    
    19    9   10 ar   
    20    9   14 ar   
    21   10   11 ar   
    22   10   91 1    
    23   11   12 ar   
    24   11   58 1    
    25   12   13 ar   
    26   12   92 1    
    27   13   14 ar   
    28   13   15 1    
    29   14   93 1    
    30   15   16 1    
    31   15   94 1    
    32   15   95 1    
    33   16   17 1    
    34   17   18 1    
    35   17   96 1    
    36   17   97 1    
    37   18   19 1    
    38   18   22 1    
    39   18   98 1    
    40   19   20 am   BACKBONE|DICT|INTERRES
    41   19   21 2    
    42   20   99 1    
    43   20  100 1    
    44   22   23 am   BACKBONE|DICT|INTERRES
    45   22  101 1    
    46   23   24 2    
    47   23   25 1    
    48   25   26 1    
    49   25   27 1    
    50   25  102 1    
    51   26  103 1    
    52   26  104 1    
    53   26  105 1    
    54   27   28 am   BACKBONE|DICT|INTERRES
    55   27  106 1    
    56   28   29 2    
    57   28   30 1    
    58   30   31 1    
    59   30   32 1    
    60   30  107 1    
    61   31  108 1    
    62   31  109 1    
    63   31  110 1    
    64   32   33 am   BACKBONE|DICT|INTERRES
    65   32  111 1    
    66   33   34 2    
    67   33   35 1    
    68   35   36 1    
    69   35   37 1    
    70   35  112 1    
    71   36  113 1    
    72   36  114 1    
    73   36  115 1    
    74   37   38 am   BACKBONE|DICT|INTERRES
    75   37  116 1    
    76   38   39 2    
    77   38   40 1    
    78   40   41 1    
    79   40   42 1    
    80   40  117 1    
    81   41  118 1    
    82   41  119 1    
    83   41  120 1    
    84   42   43 am   BACKBONE|DICT|INTERRES
    85   42  121 1    
    86   43   44 2    
    87   43   45 1    
    88   45   46 1    
    89   45   47 1    
    90   45  122 1    
    91   46  123 1    
    92   46  124 1    
    93   46  125 1    
    94   47   48 am   BACKBONE|DICT|INTERRES
    95   47  126 1    
    96   48   49 2    
    97   48   50 1    
    98   50   51 1    
    99   50   52 1    
   100   50  127 1    
   101   51  128 1    
   102   51  129 1    
   103   51  130 1    
   104   52   53 am   BACKBONE|DICT|INTERRES
   105   52  131 1    
   106   53   54 2    
   107   53   55 1    
   108   55   56 1    
   109   55   59 1    
   110   55  132 1    
   111   56   57 1    
   112   56  133 1    
   113   56  134 1    
   114   57   58 1    
   115   58  135 1    
   116   58  136 1    
   117   59   60 am   BACKBONE|DICT|INTERRES
   118   59  137 1    
   119   60   61 2    
   120   60   62 1    
   121   62   63 1    
   122   62   64 1    
   123   62  138 1    
   124   63  139 1    
   125   63  140 1    
   126   63  141 1    
   127   64   65 am   BACKBONE|DICT|INTERRES
   128   64  142 1    
   129   65   66 2    
   130   65   67 1    
   131   67   68 1    
   132   67   69 1    
   133   67  143 1    
   134   68  144 1    
   135   68  145 1    
   136   68  146 1    
   137   69   70 am   BACKBONE|DICT|INTERRES
   138   69  147 1    
   139   70   71 2    
   140   70   72 1    
   141   72   73 1    
   142   72   74 1    
   143   72  148 1    
   144   73  149 1    
   145   73  150 1    
   146   73  151 1    
   147   74   75 am   BACKBONE|DICT|INTERRES
   148   74  152 1    
   149   75   76 2    
   150   75   77 1    
   151   77   78 1    
   152   77   79 1    
   153   77  153 1    
   154   78  154 1    
   155   78  155 1    
   156   78  156 1    
   157   79   80 am   BACKBONE|DICT|INTERRES
   158   79  157 1    
   159   80   81 2    
@<TRIPOS>SUBSTRUCTURE
     1 UNK         1 GROUP             0       ****    0 ROOT    
