@<TRIPOS>MOLECULE
3R207
157   159    1
SMALL
USER_CHARGES


@<TRIPOS>ATOM
      1 CA        -48.4103  -31.1063    8.1686 C.3       0 UNK        -0.1975 
      2 C         -48.1647  -30.5001    6.7983 C.2       0 UNK         0.4852 
      3 O         -47.0191  -30.4351    6.3501 O.2       0 UNK        -0.5216 
      4 N         -49.2319  -30.0563    6.1227 N.am      1 UNK        -0.4461 
      5 CA        -49.2319  -29.5783    4.7320 C.3       1 UNK         0.0864 
      6 C6        -50.6117  -29.7674    4.0323 C.3       14 UNK        -0.0898 
      7 S7        -51.4581  -31.3394    4.4359 S.3       14 UNK        -0.2598 
      8 C8        -52.8881  -30.7631    5.4173 C.3       14 UNK         0.0286 
      9 C9        -52.4685  -30.0423    6.6933 C.ar      14 UNK        -0.0844 
     10 C10       -52.3860  -28.6458    6.7154 C.ar      14 UNK        -0.0881 
     11 C11       -51.9583  -27.9794    7.8642 C.ar      14 UNK        -0.0643 
     12 C12       -51.6407  -28.7162    9.0067 C.ar      14 UNK        -0.0930 
     13 C13       -51.7659  -30.1088    9.0202 C.ar      14 UNK        -0.0827 
     14 C14       -52.1680  -30.7670    7.8522 C.ar      14 UNK        -0.1249 
     15 C15       -51.4364  -30.9104   10.2773 C.3       14 UNK         0.0141 
     16 S16       -52.0352  -30.1403   11.8185 S.3       14 UNK        -0.2313 
     17 C17       -53.8157  -30.5421   11.7686 C.3       14 UNK        -0.0915 
     18 CA        -54.6900  -29.6365   12.6796 C.3       13 UNK         0.0968 
     19 C         -54.3447  -29.8017   14.1918 C.2       13 UNK         0.5732 
     20 N         -53.8812  -28.7687   14.8844 N.am      13 UNK        -0.7310 
     21 O         -54.5089  -30.8886   14.7415 O.2       13 UNK        -0.5035 
     22 N         -54.7042  -28.2473   12.1998 N.am      13 UNK        -0.4233 
     23 C         -55.6271  -27.3390   12.5378 C.2       13 UNK         0.4989 
     24 O         -56.6396  -27.5863   13.1962 O.2       13 UNK        -0.4996 
     25 CA        -55.3629  -25.8987   12.0733 C.3       12 UNK         0.0216 
     26 CB        -56.5349  -25.3514   11.2420 C.3       12 UNK        -0.1964 
     27 N         -55.0920  -24.9954   13.1943 N.am      12 UNK        -0.4276 
     28 C         -54.0784  -25.1197   14.0625 C.2       12 UNK         0.5020 
     29 O         -53.2461  -26.0281   14.0085 O.2       12 UNK        -0.5489 
     30 CA        -53.9258  -24.0051   15.1163 C.3       11 UNK         0.0294 
     31 CB        -55.2691  -23.4029   15.5896 C.3       11 UNK        -0.2019 
     32 N         -53.0916  -24.4305   16.2473 N.am      11 UNK        -0.4493 
     33 C         -53.3993  -25.3229   17.1997 C.2       11 UNK         0.4932 
     34 O         -54.4959  -25.8706   17.3257 O.2       11 UNK        -0.5029 
     35 CA        -52.2472  -25.6537   18.1599 C.3       10 UNK         0.0280 
     36 CB        -52.6873  -26.4098   19.4331 C.3       10 UNK        -0.1976 
     37 N         -51.1774  -26.3423   17.4317 N.am      10 UNK        -0.4242 
     38 C         -51.1684  -27.5973   16.9529 C.2       10 UNK         0.5072 
     39 O         -52.0441  -28.4299   17.1945 O.2       10 UNK        -0.5224 
     40 CA        -49.9842  -28.0084   16.0484 C.3       9 UNK         0.0343 
     41 CB        -50.4568  -28.8299   14.8371 C.3       9 UNK        -0.2003 
     42 N         -49.1947  -26.8706   15.5647 N.am      9 UNK        -0.4272 
     43 C         -48.2209  -26.2687   16.2625 C.2       9 UNK         0.4988 
     44 O         -47.8530  -26.6440   17.3758 O.2       9 UNK        -0.5108 
     45 CA        -47.5644  -25.0199   15.6486 C.3       8 UNK         0.0248 
     46 CB        -46.2870  -25.4107   14.8887 C.3       8 UNK        -0.2001 
     47 N         -48.4337  -24.2255   14.7724 N.am      8 UNK        -0.4140 
     48 C         -49.5768  -23.6255   15.1455 C.2       8 UNK         0.5028 
     49 O         -50.1093  -23.7643   16.2479 O.2       8 UNK        -0.5428 
     50 CA        -50.2844  -22.7856   14.0809 C.3       7 UNK         0.0264 
     51 CB        -49.3897  -21.6457   13.5518 C.3       7 UNK        -0.1988 
     52 N         -50.6814  -23.7047   13.0270 N.am      7 UNK        -0.4454 
     53 C         -51.4268  -23.4725   11.9457 C.2       7 UNK         0.5027 
     54 O         -51.9438  -22.3828   11.6951 O.2       7 UNK        -0.5083 
     55 CA        -51.6292  -24.6870   11.0051 C.3       6 UNK         0.0844 
     56 C56       -52.3810  -24.3239    9.6933 C.3       14 UNK        -0.0967 
     57 S57       -53.1762  -25.7722    8.9258 S.3       14 UNK        -0.2604 
     58 C58       -51.8531  -26.4641    7.8901 C.3       14 UNK         0.0134 
     59 N         -50.3550  -25.3645   10.7282 N.am      6 UNK        -0.4116 
     60 C         -49.6640  -26.1563   11.5620 C.2       5 UNK         0.5034 
     61 O         -50.0304  -26.4411   12.7014 O.2       5 UNK        -0.5045 
     62 CA        -48.2736  -26.6061   11.0929 C.3       5 UNK         0.0224 
     63 CB        -48.3587  -27.8984   10.2701 C.3       5 UNK        -0.1978 
     64 N         -47.5912  -25.5600   10.3265 N.am      5 UNK        -0.4737 
     65 C         -47.1631  -24.4066   10.8655 C.2       4 UNK         0.5027 
     66 O         -47.2461  -24.1470   12.0667 O.2       4 UNK        -0.5211 
     67 CA        -46.5689  -23.3543    9.9123 C.3       4 UNK         0.0297 
     68 CB        -45.0412  -23.5031    9.8406 C.3       4 UNK        -0.1993 
     69 N         -47.1269  -23.4070    8.5580 N.am      4 UNK        -0.4486 
     70 C         -48.4086  -23.1664    8.2460 C.2       3 UNK         0.4961 
     71 O         -49.2572  -22.8184    9.0654 O.2       3 UNK        -0.5105 
     72 CA        -48.8321  -23.3840    6.7815 C.3       3 UNK         0.0299 
     73 CB        -48.8449  -22.0465    6.0248 C.3       3 UNK        -0.1972 
     74 N         -48.0136  -24.3536    6.0417 N.am      3 UNK        -0.4305 
     75 C         -47.8658  -25.6447    6.3680 C.2       2 UNK         0.5006 
     76 O         -48.3305  -26.1515    7.3912 O.2       2 UNK        -0.5106 
     77 CA        -47.0052  -26.4979    5.4232 C.3       2 UNK         0.0296 
     78 CB        -45.5743  -26.6189    5.9718 C.3       2 UNK        -0.2002 
     79 N         -47.5720  -27.8367    5.2645 N.am      2 UNK        -0.4032 
     80 C         -48.7111  -28.1230    4.6207 C.2       1 UNK         0.5000 
     81 O         -49.3443  -27.2846    3.9739 O.2       1 UNK        -0.5238 
     82 H82       -49.3115  -31.7185    8.1658 H         1 UNK         0.0889 
     83 H83       -48.5211  -30.3217    8.9133 H         1 UNK         0.0889 
     84 H84       -47.5755  -31.7418    8.4630 H         1 UNK         0.0889 
     85 H85       -50.1476  -30.1038    6.5526 H         1 UNK         0.3028 
     86 H86       -48.5185  -30.1948    4.1806 H         1 UNK         0.0864 
     87 H87       -50.4738  -29.7365    2.9502 H         1 UNK         0.0720 
     88 H88       -51.2867  -28.9417    4.2513 H         1 UNK         0.0720 
     89 H89       -53.5096  -31.6230    5.6712 H         1 UNK         0.0814 
     90 H90       -53.5111  -30.1143    4.7994 H         1 UNK         0.0814 
     91 H91       -52.6455  -28.0735    5.8357 H         1 UNK         0.1469 
     92 H92       -51.3205  -28.1942    9.8971 H         1 UNK         0.1381 
     93 H93       -52.2447  -31.8459    7.8410 H         1 UNK         0.1206 
     94 H94       -51.8391  -31.9222   10.2092 H         1 UNK         0.0813 
     95 H95       -50.3546  -31.0141   10.3525 H         1 UNK         0.0813 
     96 H96       -53.9377  -31.5904   12.0465 H         1 UNK         0.0638 
     97 H97       -54.1633  -30.4656   10.7370 H         1 UNK         0.0638 
     98 H98       -55.7130  -30.0047   12.5831 H         1 UNK         0.0568 
     99 H99       -53.7205  -27.8706   14.4387 H         1 UNK         0.3450 
    100 H100      -53.6024  -28.8890   15.8491 H         1 UNK         0.3450 
    101 H101      -53.8814  -27.9551   11.6937 H         1 UNK         0.2987 
    102 H102      -54.4799  -25.9009   11.4378 H         1 UNK         0.0766 
    103 H103      -56.3089  -24.3640   10.8387 H         1 UNK         0.0798 
    104 H104      -57.4498  -25.2750   11.8312 H         1 UNK         0.0798 
    105 H105      -56.7465  -26.0038   10.3937 H         1 UNK         0.0798 
    106 H106      -55.7423  -24.2345   13.3237 H         1 UNK         0.3198 
    107 H107      -53.3713  -23.2065   14.6234 H         1 UNK         0.0843 
    108 H108      -55.1193  -22.7027   16.4116 H         1 UNK         0.0831 
    109 H109      -55.9638  -24.1712   15.9313 H         1 UNK         0.0831 
    110 H110      -55.7612  -22.8472   14.7909 H         1 UNK         0.0831 
    111 H111      -52.1320  -24.0990   16.2295 H         1 UNK         0.3133 
    112 H112      -51.8239  -24.7023   18.4862 H         1 UNK         0.0566 
    113 H113      -51.8350  -26.6430   20.0710 H         1 UNK         0.0814 
    114 H114      -53.3768  -25.8019   20.0197 H         1 UNK         0.0814 
    115 H115      -53.2024  -27.3431   19.2055 H         1 UNK         0.0814 
    116 H116      -50.4229  -25.7356   17.1333 H         1 UNK         0.3091 
    117 H117      -49.3394  -28.6527   16.6494 H         1 UNK         0.0702 
    118 H118      -51.1676  -28.2686   14.2296 H         1 UNK         0.0785 
    119 H119      -50.9544  -29.7487   15.1497 H         1 UNK         0.0785 
    120 H120      -49.6234  -29.1160   14.1955 H         1 UNK         0.0785 
    121 H121      -49.4414  -26.5214   14.6441 H         1 UNK         0.2998 
    122 H122      -47.2759  -24.3716   16.4786 H         1 UNK         0.0697 
    123 H123      -45.7559  -24.5309   14.5246 H         1 UNK         0.0825 
    124 H124      -45.5993  -25.9596   15.5336 H         1 UNK         0.0825 
    125 H125      -46.5075  -26.0464   14.0308 H         1 UNK         0.0825 
    126 H126      -48.0903  -24.0789   13.8251 H         1 UNK         0.3029 
    127 H127      -51.1794  -22.3483   14.5254 H         1 UNK         0.0897 
    128 H128      -49.9455  -20.9781   12.8937 H         1 UNK         0.0792 
    129 H129      -49.0063  -21.0383   14.3727 H         1 UNK         0.0792 
    130 H130      -48.5327  -22.0189   12.9916 H         1 UNK         0.0792 
    131 H131      -50.3702  -24.6663   13.1497 H         1 UNK         0.3086 
    132 H132      -52.2493  -25.3867   11.5659 H         1 UNK         0.0583 
    133 H133      -53.1914  -23.6197    9.8908 H         1 UNK         0.1020 
    134 H134      -51.7245  -23.8262    8.9781 H         1 UNK         0.1020 
    135 H135      -51.9241  -26.0447    6.8854 H         1 UNK         0.0694 
    136 H136      -50.8718  -26.1835    8.2683 H         1 UNK         0.0694 
    137 H137      -49.9035  -25.0991    9.8649 H         1 UNK         0.2989 
    138 H138      -47.6796  -26.8150   11.9852 H         1 UNK         0.1055 
    139 H139      -48.8472  -28.6895   10.8412 H         1 UNK         0.0806 
    140 H140      -47.3669  -28.2587    9.9969 H         1 UNK         0.0806 
    141 H141      -48.9274  -27.7599    9.3509 H         1 UNK         0.0806 
    142 H142      -47.5340  -25.6912    9.3222 H         1 UNK         0.3061 
    143 H143      -46.7996  -22.3716   10.3293 H         1 UNK         0.0734 
    144 H144      -44.5915  -22.7110    9.2418 H         1 UNK         0.0832 
    145 H145      -44.5980  -23.4449   10.8360 H         1 UNK         0.0832 
    146 H146      -44.7475  -24.4612    9.4096 H         1 UNK         0.0832 
    147 H147      -46.5020  -23.6845    7.8157 H         1 UNK         0.3156 
    148 H148      -49.8526  -23.7727    6.7997 H         1 UNK         0.0589 
    149 H149      -47.8446  -21.6198    5.9406 H         1 UNK         0.0808 
    150 H150      -49.2484  -22.1619    5.0186 H         1 UNK         0.0808 
    151 H151      -49.4691  -21.3134    6.5383 H         1 UNK         0.0808 
    152 H152      -47.5790  -24.0180    5.1935 H         1 UNK         0.3098 
    153 H153      -46.9681  -26.0227    4.4406 H         1 UNK         0.0720 
    154 H154      -45.5581  -27.0946    6.9537 H         1 UNK         0.0791 
    155 H155      -45.1087  -25.6380    6.0758 H         1 UNK         0.0791 
    156 H156      -44.9428  -27.2068    5.3053 H         1 UNK         0.0791 
    157 H157      -47.1347  -28.5923    5.7839 H         1 UNK         0.3028 
@<TRIPOS>BOND
     1    1    2 1    
     2    1   82 1    
     3    1   83 1    
     4    1   84 1    
     5    2    3 2    
     6    2    4 am   BACKBONE|DICT|INTERRES
     7    4    5 1    
     8    4   85 1    
     9    5    6 1    
    10    5   80 1    
    11    5   86 1    
    12    6    7 1    
    13    6   87 1    
    14    6   88 1    
    15    7    8 1    
    16    8    9 1    
    17    8   89 1    
    18    8   90 1    
    19    9   10 ar   
    20    9   14 ar   
    21   10   11 ar   
    22   10   91 1    
    23   11   12 ar   
    24   11   58 1    
    25   12   13 ar   
    26   12   92 1    
    27   13   14 ar   
    28   13   15 1    
    29   14   93 1    
    30   15   16 1    
    31   15   94 1    
    32   15   95 1    
    33   16   17 1    
    34   17   18 1    
    35   17   96 1    
    36   17   97 1    
    37   18   19 1    
    38   18   22 1    
    39   18   98 1    
    40   19   20 am   BACKBONE|DICT|INTERRES
    41   19   21 2    
    42   20   99 1    
    43   20  100 1    
    44   22   23 am   BACKBONE|DICT|INTERRES
    45   22  101 1    
    46   23   24 2    
    47   23   25 1    
    48   25   26 1    
    49   25   27 1    
    50   25  102 1    
    51   26  103 1    
    52   26  104 1    
    53   26  105 1    
    54   27   28 am   BACKBONE|DICT|INTERRES
    55   27  106 1    
    56   28   29 2    
    57   28   30 1    
    58   30   31 1    
    59   30   32 1    
    60   30  107 1    
    61   31  108 1    
    62   31  109 1    
    63   31  110 1    
    64   32   33 am   BACKBONE|DICT|INTERRES
    65   32  111 1    
    66   33   34 2    
    67   33   35 1    
    68   35   36 1    
    69   35   37 1    
    70   35  112 1    
    71   36  113 1    
    72   36  114 1    
    73   36  115 1    
    74   37   38 am   BACKBONE|DICT|INTERRES
    75   37  116 1    
    76   38   39 2    
    77   38   40 1    
    78   40   41 1    
    79   40   42 1    
    80   40  117 1    
    81   41  118 1    
    82   41  119 1    
    83   41  120 1    
    84   42   43 am   BACKBONE|DICT|INTERRES
    85   42  121 1    
    86   43   44 2    
    87   43   45 1    
    88   45   46 1    
    89   45   47 1    
    90   45  122 1    
    91   46  123 1    
    92   46  124 1    
    93   46  125 1    
    94   47   48 am   BACKBONE|DICT|INTERRES
    95   47  126 1    
    96   48   49 2    
    97   48   50 1    
    98   50   51 1    
    99   50   52 1    
   100   50  127 1    
   101   51  128 1    
   102   51  129 1    
   103   51  130 1    
   104   52   53 am   BACKBONE|DICT|INTERRES
   105   52  131 1    
   106   53   54 2    
   107   53   55 1    
   108   55   56 1    
   109   55   59 1    
   110   55  132 1    
   111   56   57 1    
   112   56  133 1    
   113   56  134 1    
   114   57   58 1    
   115   58  135 1    
   116   58  136 1    
   117   59   60 am   BACKBONE|DICT|INTERRES
   118   59  137 1    
   119   60   61 2    
   120   60   62 1    
   121   62   63 1    
   122   62   64 1    
   123   62  138 1    
   124   63  139 1    
   125   63  140 1    
   126   63  141 1    
   127   64   65 am   BACKBONE|DICT|INTERRES
   128   64  142 1    
   129   65   66 2    
   130   65   67 1    
   131   67   68 1    
   132   67   69 1    
   133   67  143 1    
   134   68  144 1    
   135   68  145 1    
   136   68  146 1    
   137   69   70 am   BACKBONE|DICT|INTERRES
   138   69  147 1    
   139   70   71 2    
   140   70   72 1    
   141   72   73 1    
   142   72   74 1    
   143   72  148 1    
   144   73  149 1    
   145   73  150 1    
   146   73  151 1    
   147   74   75 am   BACKBONE|DICT|INTERRES
   148   74  152 1    
   149   75   76 2    
   150   75   77 1    
   151   77   78 1    
   152   77   79 1    
   153   77  153 1    
   154   78  154 1    
   155   78  155 1    
   156   78  156 1    
   157   79   80 am   BACKBONE|DICT|INTERRES
   158   79  157 1    
   159   80   81 2    
@<TRIPOS>SUBSTRUCTURE
     1 UNK         1 GROUP             0       ****    0 ROOT    
