@<TRIPOS>MOLECULE
3R207
157   159    1
SMALL
USER_CHARGES


@<TRIPOS>ATOM
      1 CA        -47.2655  -28.1550    2.4666 C.3       0 UNK        -0.1975 
      2 C         -47.6486  -27.9140    3.9184 C.2       0 UNK         0.4852 
      3 O         -46.8327  -28.1444    4.8109 O.2       0 UNK        -0.5216 
      4 N         -48.8736  -27.4229    4.1616 N.am      1 UNK        -0.4461 
      5 CA        -49.4855  -27.2019    5.4859 C.3       1 UNK         0.0864 
      6 C6        -49.7995  -28.5245    6.2405 C.3       14 UNK        -0.0898 
      7 S7        -50.6919  -29.7724    5.2466 S.3       14 UNK        -0.2598 
      8 C8        -52.4317  -29.2365    5.3750 C.3       14 UNK         0.0286 
      9 C9        -52.9192  -29.0857    6.8113 C.ar      14 UNK        -0.0844 
     10 C10       -53.4840  -27.8775    7.2291 C.ar      14 UNK        -0.0881 
     11 C11       -53.9240  -27.7183    8.5446 C.ar      14 UNK        -0.0643 
     12 C12       -53.7956  -28.7788    9.4456 C.ar      14 UNK        -0.0930 
     13 C13       -53.2208  -29.9913    9.0496 C.ar      14 UNK        -0.0827 
     14 C14       -52.8003  -30.1401    7.7235 C.ar      14 UNK        -0.1249 
     15 C15       -52.9813  -31.1229   10.0476 C.3       14 UNK         0.0141 
     16 S16       -54.4544  -31.5919   11.0178 S.3       14 UNK        -0.2313 
     17 C17       -54.3481  -30.4700   12.4560 C.3       14 UNK        -0.0915 
     18 CA        -55.6668  -29.6774   12.6902 C.3       13 UNK         0.0968 
     19 C         -56.5893  -30.3802   13.7310 C.2       13 UNK         0.5732 
     20 N         -56.8370  -29.8046   14.9036 N.am      13 UNK        -0.7310 
     21 O         -57.1027  -31.4642   13.4647 O.2       13 UNK        -0.5035 
     22 N         -55.4042  -28.2634   12.9976 N.am      13 UNK        -0.4233 
     23 C         -56.2983  -27.2817   12.8048 C.2       13 UNK         0.4989 
     24 O         -57.3545  -27.4450   12.1917 O.2       13 UNK        -0.4996 
     25 CA        -55.9787  -25.8801   13.3696 C.3       12 UNK         0.0216 
     26 CB        -57.2360  -25.1880   13.9377 C.3       12 UNK        -0.1964 
     27 N         -54.8869  -25.8363   14.3520 N.am      12 UNK        -0.4276 
     28 C         -54.8195  -26.4715   15.5289 C.2       12 UNK         0.5020 
     29 O         -55.6912  -27.2419   15.9402 O.2       12 UNK        -0.5489 
     30 CA        -53.5320  -26.2422   16.3475 C.3       11 UNK         0.0294 
     31 CB        -53.5779  -26.9582   17.7125 C.3       11 UNK        -0.2019 
     32 N         -52.2808  -26.6037   15.6595 N.am      11 UNK        -0.4493 
     33 C         -52.0175  -27.7229   14.9622 C.2       11 UNK         0.4932 
     34 O         -52.8817  -28.5231   14.6058 O.2       11 UNK        -0.5029 
     35 CA        -50.5452  -28.0371   14.6213 C.3       10 UNK         0.0280 
     36 CB        -50.3267  -28.4678   13.1576 C.3       10 UNK        -0.1976 
     37 N         -49.5954  -26.9798   14.9975 N.am      10 UNK        -0.4242 
     38 C         -49.0149  -26.9070   16.2042 C.2       10 UNK         0.5072 
     39 O         -49.2357  -27.7017   17.1196 O.2       10 UNK        -0.5224 
     40 CA        -48.0198  -25.7595   16.4508 C.3       9 UNK         0.0343 
     41 CB        -46.6489  -26.1073   15.8474 C.3       9 UNK        -0.2003 
     42 N         -48.4263  -24.4326   15.9775 N.am      9 UNK        -0.4272 
     43 C         -49.5981  -23.8138   16.1810 C.2       9 UNK         0.4988 
     44 O         -50.5866  -24.3489   16.6842 O.2       9 UNK        -0.5108 
     45 CA        -49.6835  -22.3403   15.7549 C.3       8 UNK         0.0248 
     46 CB        -48.3176  -21.6287   15.6506 C.3       8 UNK        -0.2001 
     47 N         -50.3685  -22.2643   14.4713 N.am      8 UNK        -0.4140 
     48 C         -51.3053  -21.3647   14.1389 C.2       8 UNK         0.5028 
     49 O         -51.6792  -20.4601   14.8872 O.2       8 UNK        -0.5428 
     50 CA        -51.9354  -21.4714   12.7324 C.3       7 UNK         0.0264 
     51 CB        -51.3941  -20.3621   11.8153 C.3       7 UNK        -0.1988 
     52 N         -51.7164  -22.7685   12.0871 N.am      7 UNK        -0.4454 
     53 C         -52.2414  -23.9247   12.5146 C.2       7 UNK         0.5027 
     54 O         -53.0805  -23.9966   13.4114 O.2       7 UNK        -0.5083 
     55 CA        -51.6810  -25.2320   11.9204 C.3       6 UNK         0.0844 
     56 C56       -52.7111  -26.0341   11.1008 C.3       14 UNK        -0.0967 
     57 S57       -53.2301  -25.2334    9.5476 S.3       14 UNK        -0.2604 
     58 C58       -54.5207  -26.3929    8.9949 C.3       14 UNK         0.0134 
     59 N         -50.4006  -25.0886   11.2185 N.am      6 UNK        -0.4116 
     60 C         -49.2457  -24.7768   11.8196 C.2       5 UNK         0.5034 
     61 O         -49.1562  -24.5493   13.0271 O.2       5 UNK        -0.5045 
     62 CA        -48.0019  -24.7367   10.9203 C.3       5 UNK         0.0224 
     63 CB        -46.7542  -24.1881   11.6448 C.3       5 UNK        -0.1978 
     64 N         -47.7351  -26.0497   10.3251 N.am      5 UNK        -0.4737 
     65 C         -47.4369  -27.1935   10.9629 C.2       4 UNK         0.5027 
     66 O         -47.3353  -27.3072   12.1836 O.2       4 UNK        -0.5211 
     67 CA        -47.1913  -28.4211   10.0724 C.3       4 UNK         0.0297 
     68 CB        -48.5223  -29.0980    9.7036 C.3       4 UNK        -0.1993 
     69 N         -46.4612  -28.0497    8.8574 N.am      4 UNK        -0.4486 
     70 C         -45.1362  -27.8411    8.8134 C.2       3 UNK         0.4961 
     71 O         -44.3760  -28.0651    9.7559 O.2       3 UNK        -0.5105 
     72 CA        -44.5530  -27.2784    7.5050 C.3       3 UNK         0.0299 
     73 CB        -44.0836  -28.4205    6.5899 C.3       3 UNK        -0.1972 
     74 N         -45.5044  -26.4236    6.7888 N.am      3 UNK        -0.4305 
     75 C         -45.8158  -25.1719    7.1665 C.2       2 UNK         0.5006 
     76 O         -45.2652  -24.5884    8.1002 O.2       2 UNK        -0.5106 
     77 CA        -46.9372  -24.4385    6.4014 C.3       2 UNK         0.0296 
     78 CB        -46.3371  -23.4888    5.3522 C.3       2 UNK        -0.2002 
     79 N         -47.9020  -25.3274    5.7486 N.am      2 UNK        -0.4032 
     80 C         -48.6810  -26.2203    6.3770 C.2       1 UNK         0.5000 
     81 O         -48.7254  -26.3164    7.6065 O.2       1 UNK        -0.5238 
     82 H82       -48.0727  -27.8944    1.7824 H         1 UNK         0.0889 
     83 H83       -47.0192  -29.2057    2.3161 H         1 UNK         0.0889 
     84 H84       -46.3915  -27.5590    2.2053 H         1 UNK         0.0889 
     85 H85       -49.4855  -27.2431    3.3774 H         1 UNK         0.3028 
     86 H86       -50.4370  -26.7029    5.2969 H         1 UNK         0.0864 
     87 H87       -48.8719  -28.9913    6.5762 H         1 UNK         0.0720 
     88 H88       -50.3726  -28.3210    7.1457 H         1 UNK         0.0720 
     89 H89       -53.0616  -29.9673    4.8662 H         1 UNK         0.0814 
     90 H90       -52.5459  -28.3009    4.8255 H         1 UNK         0.0814 
     91 H91       -53.5748  -27.0531    6.5351 H         1 UNK         0.1469 
     92 H92       -54.1268  -28.6421   10.4622 H         1 UNK         0.1381 
     93 H93       -52.3485  -31.0687    7.4021 H         1 UNK         0.1206 
     94 H94       -52.1635  -30.8486   10.7152 H         1 UNK         0.0813 
     95 H95       -52.6444  -32.0165    9.5200 H         1 UNK         0.0813 
     96 H96       -53.5134  -29.7870   12.2986 H         1 UNK         0.0638 
     97 H97       -54.0636  -31.0516   13.3351 H         1 UNK         0.0638 
     98 H98       -56.2293  -29.6860   11.7546 H         1 UNK         0.0568 
     99 H99       -57.4403  -30.2717   15.5609 H         1 UNK         0.3450 
    100 H100      -56.4142  -28.9153   15.1539 H         1 UNK         0.3450 
    101 H101      -54.5829  -28.0880   13.5672 H         1 UNK         0.2987 
    102 H102      -55.6402  -25.2863   12.5195 H         1 UNK         0.0766 
    103 H103      -57.0052  -24.1893   14.3084 H         1 UNK         0.0798 
    104 H104      -57.6746  -25.7574   14.7579 H         1 UNK         0.0798 
    105 H105      -58.0052  -25.0757   13.1727 H         1 UNK         0.0798 
    106 H106      -54.1218  -25.2047   14.1080 H         1 UNK         0.3198 
    107 H107      -53.4779  -25.1691   16.5393 H         1 UNK         0.0843 
    108 H108      -53.6167  -28.0420   17.5957 H         1 UNK         0.0831 
    109 H109      -54.4573  -26.6590   18.2843 H         1 UNK         0.0831 
    110 H110      -52.7023  -26.7172   18.3156 H         1 UNK         0.0831 
    111 H111      -51.5012  -25.9889   15.8745 H         1 UNK         0.3133 
    112 H112      -50.3223  -28.9269   15.2138 H         1 UNK         0.0566 
    113 H113      -50.2832  -27.6318   12.4663 H         1 UNK         0.0814 
    114 H114      -49.3829  -29.0046   13.0615 H         1 UNK         0.0814 
    115 H115      -51.1078  -29.1448   12.8102 H         1 UNK         0.0814 
    116 H116      -49.3572  -26.2809   14.3012 H         1 UNK         0.3091 
    117 H117      -47.8970  -25.6743   17.5322 H         1 UNK         0.0702 
    118 H118      -45.8907  -25.3772   16.1308 H         1 UNK         0.0785 
    119 H119      -46.6886  -26.1463   14.7576 H         1 UNK         0.0785 
    120 H120      -46.3032  -27.0819   16.1951 H         1 UNK         0.0785 
    121 H121      -47.7110  -23.9060   15.4985 H         1 UNK         0.2998 
    122 H122      -50.2719  -21.8354   16.5240 H         1 UNK         0.0697 
    123 H123      -47.7109  -22.0162   14.8311 H         1 UNK         0.0825 
    124 H124      -47.7451  -21.7324   16.5736 H         1 UNK         0.0825 
    125 H125      -48.4511  -20.5605   15.4781 H         1 UNK         0.0825 
    126 H126      -50.1268  -22.9986   13.8130 H         1 UNK         0.3029 
    127 H127      -53.0121  -21.3283   12.8489 H         1 UNK         0.0897 
    128 H128      -51.5734  -19.3765   12.2475 H         1 UNK         0.0792 
    129 H129      -51.8819  -20.3786   10.8404 H         1 UNK         0.0792 
    130 H130      -50.3190  -20.4570   11.6571 H         1 UNK         0.0792 
    131 H131      -51.0497  -22.7946   11.3299 H         1 UNK         0.3086 
    132 H132      -51.4750  -25.8303   12.8061 H         1 UNK         0.0583 
    133 H133      -52.2780  -27.0049   10.8579 H         1 UNK         0.1020 
    134 H134      -53.5918  -26.2492   11.7042 H         1 UNK         0.1020 
    135 H135      -55.2451  -26.5500    9.7958 H         1 UNK         0.0694 
    136 H136      -55.0733  -25.9382    8.1714 H         1 UNK         0.0694 
    137 H137      -50.4099  -25.2716   10.2244 H         1 UNK         0.2989 
    138 H138      -48.2271  -24.0581   10.0959 H         1 UNK         0.1055 
    139 H139      -46.9307  -23.1762   12.0114 H         1 UNK         0.0806 
    140 H140      -45.8961  -24.1463   10.9736 H         1 UNK         0.0806 
    141 H141      -46.4768  -24.7986   12.5045 H         1 UNK         0.0806 
    142 H142      -47.8747  -26.1066    9.3192 H         1 UNK         0.3061 
    143 H143      -46.5931  -29.1388   10.6382 H         1 UNK         0.0734 
    144 H144      -48.3705  -29.9383    9.0261 H         1 UNK         0.0832 
    145 H145      -49.0169  -29.4874   10.5938 H         1 UNK         0.0832 
    146 H146      -49.2165  -28.4035    9.2310 H         1 UNK         0.0832 
    147 H147      -47.0164  -27.8036    8.0494 H         1 UNK         0.3156 
    148 H148      -43.6784  -26.6767    7.7618 H         1 UNK         0.0589 
    149 H149      -44.8973  -29.1034    6.3434 H         1 UNK         0.0808 
    150 H150      -43.6702  -28.0393    5.6561 H         1 UNK         0.0808 
    151 H151      -43.3036  -29.0094    7.0743 H         1 UNK         0.0808 
    152 H152      -45.9993  -26.8551    6.0117 H         1 UNK         0.3098 
    153 H153      -47.4861  -23.8396    7.1313 H         1 UNK         0.0720 
    154 H154      -47.1100  -22.8925    4.8667 H         1 UNK         0.0791 
    155 H155      -45.7947  -24.0333    4.5780 H         1 UNK         0.0791 
    156 H156      -45.6352  -22.7918    5.8126 H         1 UNK         0.0791 
    157 H157      -47.9154  -25.3194    4.7391 H         1 UNK         0.3028 
@<TRIPOS>BOND
     1    1    2 1    
     2    1   82 1    
     3    1   83 1    
     4    1   84 1    
     5    2    3 2    
     6    2    4 am   BACKBONE|DICT|INTERRES
     7    4    5 1    
     8    4   85 1    
     9    5    6 1    
    10    5   80 1    
    11    5   86 1    
    12    6    7 1    
    13    6   87 1    
    14    6   88 1    
    15    7    8 1    
    16    8    9 1    
    17    8   89 1    
    18    8   90 1    
    19    9   10 ar   
    20    9   14 ar   
    21   10   11 ar   
    22   10   91 1    
    23   11   12 ar   
    24   11   58 1    
    25   12   13 ar   
    26   12   92 1    
    27   13   14 ar   
    28   13   15 1    
    29   14   93 1    
    30   15   16 1    
    31   15   94 1    
    32   15   95 1    
    33   16   17 1    
    34   17   18 1    
    35   17   96 1    
    36   17   97 1    
    37   18   19 1    
    38   18   22 1    
    39   18   98 1    
    40   19   20 am   BACKBONE|DICT|INTERRES
    41   19   21 2    
    42   20   99 1    
    43   20  100 1    
    44   22   23 am   BACKBONE|DICT|INTERRES
    45   22  101 1    
    46   23   24 2    
    47   23   25 1    
    48   25   26 1    
    49   25   27 1    
    50   25  102 1    
    51   26  103 1    
    52   26  104 1    
    53   26  105 1    
    54   27   28 am   BACKBONE|DICT|INTERRES
    55   27  106 1    
    56   28   29 2    
    57   28   30 1    
    58   30   31 1    
    59   30   32 1    
    60   30  107 1    
    61   31  108 1    
    62   31  109 1    
    63   31  110 1    
    64   32   33 am   BACKBONE|DICT|INTERRES
    65   32  111 1    
    66   33   34 2    
    67   33   35 1    
    68   35   36 1    
    69   35   37 1    
    70   35  112 1    
    71   36  113 1    
    72   36  114 1    
    73   36  115 1    
    74   37   38 am   BACKBONE|DICT|INTERRES
    75   37  116 1    
    76   38   39 2    
    77   38   40 1    
    78   40   41 1    
    79   40   42 1    
    80   40  117 1    
    81   41  118 1    
    82   41  119 1    
    83   41  120 1    
    84   42   43 am   BACKBONE|DICT|INTERRES
    85   42  121 1    
    86   43   44 2    
    87   43   45 1    
    88   45   46 1    
    89   45   47 1    
    90   45  122 1    
    91   46  123 1    
    92   46  124 1    
    93   46  125 1    
    94   47   48 am   BACKBONE|DICT|INTERRES
    95   47  126 1    
    96   48   49 2    
    97   48   50 1    
    98   50   51 1    
    99   50   52 1    
   100   50  127 1    
   101   51  128 1    
   102   51  129 1    
   103   51  130 1    
   104   52   53 am   BACKBONE|DICT|INTERRES
   105   52  131 1    
   106   53   54 2    
   107   53   55 1    
   108   55   56 1    
   109   55   59 1    
   110   55  132 1    
   111   56   57 1    
   112   56  133 1    
   113   56  134 1    
   114   57   58 1    
   115   58  135 1    
   116   58  136 1    
   117   59   60 am   BACKBONE|DICT|INTERRES
   118   59  137 1    
   119   60   61 2    
   120   60   62 1    
   121   62   63 1    
   122   62   64 1    
   123   62  138 1    
   124   63  139 1    
   125   63  140 1    
   126   63  141 1    
   127   64   65 am   BACKBONE|DICT|INTERRES
   128   64  142 1    
   129   65   66 2    
   130   65   67 1    
   131   67   68 1    
   132   67   69 1    
   133   67  143 1    
   134   68  144 1    
   135   68  145 1    
   136   68  146 1    
   137   69   70 am   BACKBONE|DICT|INTERRES
   138   69  147 1    
   139   70   71 2    
   140   70   72 1    
   141   72   73 1    
   142   72   74 1    
   143   72  148 1    
   144   73  149 1    
   145   73  150 1    
   146   73  151 1    
   147   74   75 am   BACKBONE|DICT|INTERRES
   148   74  152 1    
   149   75   76 2    
   150   75   77 1    
   151   77   78 1    
   152   77   79 1    
   153   77  153 1    
   154   78  154 1    
   155   78  155 1    
   156   78  156 1    
   157   79   80 am   BACKBONE|DICT|INTERRES
   158   79  157 1    
   159   80   81 2    
@<TRIPOS>SUBSTRUCTURE
     1 UNK         1 GROUP             0       ****    0 ROOT    
