@<TRIPOS>MOLECULE
3R207
157   159    1
SMALL
USER_CHARGES


@<TRIPOS>ATOM
      1 CA        -45.3152  -31.3016    3.8322 C.3       0 UNK        -0.1975 
      2 C         -45.9081  -30.9173    5.1804 C.2       0 UNK         0.4852 
      3 O         -45.7601  -31.6705    6.1440 O.2       0 UNK        -0.5216 
      4 N         -46.5814  -29.7586    5.2421 N.am      1 UNK        -0.4461 
      5 CA        -47.1898  -29.1531    6.4358 C.3       1 UNK         0.0864 
      6 C6        -48.2167  -30.0935    7.1361 C.3       14 UNK        -0.0898 
      7 S7        -49.5659  -29.1876    7.9666 S.3       14 UNK        -0.2598 
      8 C8        -51.0265  -29.8061    7.0783 C.3       14 UNK         0.0286 
      9 C9        -52.2879  -29.1502    7.6143 C.ar      14 UNK        -0.0844 
     10 C10       -52.7852  -27.9914    7.0139 C.ar      14 UNK        -0.0881 
     11 C11       -53.9015  -27.3386    7.5453 C.ar      14 UNK        -0.0643 
     12 C12       -54.5590  -27.8935    8.6489 C.ar      14 UNK        -0.0930 
     13 C13       -54.0884  -29.0698    9.2421 C.ar      14 UNK        -0.0827 
     14 C14       -52.9453  -29.6872    8.7243 C.ar      14 UNK        -0.1249 
     15 C15       -54.8138  -29.6858   10.4327 C.3       14 UNK         0.0141 
     16 S16       -54.7640  -28.6086   11.8997 S.3       14 UNK        -0.2313 
     17 C17       -56.3725  -27.7423   11.8095 C.3       14 UNK        -0.0915 
     18 CA        -57.1858  -27.8181   13.1299 C.3       13 UNK         0.0968 
     19 C         -57.7697  -29.2396   13.3880 C.2       13 UNK         0.5732 
     20 N         -57.4214  -29.9266   14.4710 N.am      13 UNK        -0.7310 
     21 O         -58.5702  -29.7234   12.5911 O.2       13 UNK        -0.5035 
     22 N         -56.4220  -27.2575   14.2514 N.am      13 UNK        -0.4233 
     23 C         -56.9417  -26.7700   15.3840 C.2       13 UNK         0.4989 
     24 O         -58.1506  -26.6168   15.5669 O.2       13 UNK        -0.4996 
     25 CA        -55.9402  -26.3915   16.4988 C.3       12 UNK         0.0216 
     26 CB        -56.5573  -26.5146   17.9085 C.3       12 UNK        -0.1964 
     27 N         -54.6589  -27.1171   16.4348 N.am      12 UNK        -0.4276 
     28 C         -54.4852  -28.4483   16.4782 C.2       12 UNK         0.5020 
     29 O         -55.4171  -29.2509   16.5526 O.2       12 UNK        -0.5489 
     30 CA        -53.0517  -28.9962   16.3728 C.3       11 UNK         0.0294 
     31 CB        -52.8766  -29.7898   15.0666 C.3       11 UNK        -0.2019 
     32 N         -52.0083  -27.9689   16.4366 N.am      11 UNK        -0.4493 
     33 C         -51.4664  -27.5021   17.5696 C.2       11 UNK         0.4932 
     34 O         -51.8685  -27.8071   18.6924 O.2       11 UNK        -0.5029 
     35 CA        -50.2662  -26.5522   17.4367 C.3       10 UNK         0.0280 
     36 CB        -48.9812  -27.3502   17.1593 C.3       10 UNK        -0.1976 
     37 N         -50.4634  -25.5702   16.3687 N.am      10 UNK        -0.4242 
     38 C         -50.4456  -24.2394   16.5346 C.2       10 UNK         0.5072 
     39 O         -50.2194  -23.6845   17.6112 O.2       10 UNK        -0.5224 
     40 CA        -50.7275  -23.3604   15.2973 C.3       9 UNK         0.0343 
     41 CB        -49.4093  -22.8740   14.6724 C.3       9 UNK        -0.2003 
     42 N         -51.5282  -24.0169   14.2613 N.am      9 UNK        -0.4272 
     43 C         -52.7745  -24.4812   14.4270 C.2       9 UNK         0.4988 
     44 O         -53.4276  -24.3420   15.4600 O.2       9 UNK        -0.5108 
     45 CA        -53.3847  -25.2877   13.2686 C.3       8 UNK         0.0248 
     46 CB        -54.2403  -24.3684   12.3826 C.3       8 UNK        -0.2001 
     47 N         -52.4262  -26.0064   12.4233 N.am      8 UNK        -0.4140 
     48 C         -51.4321  -26.8201   12.8106 C.2       8 UNK         0.5028 
     49 O         -51.1528  -27.0448   13.9892 O.2       8 UNK        -0.5428 
     50 CA        -50.5932  -27.4867   11.7052 C.3       7 UNK         0.0264 
     51 CB        -50.7995  -29.0096   11.7167 C.3       7 UNK        -0.1988 
     52 N         -50.8623  -26.9713   10.3570 N.am      7 UNK        -0.4454 
     53 C         -50.5177  -25.7499    9.9267 C.2       7 UNK         0.5027 
     54 O         -49.9360  -24.9186   10.6270 O.2       7 UNK        -0.5083 
     55 CA        -50.9497  -25.3859    8.5006 C.3       6 UNK         0.0844 
     56 C56       -52.3658  -24.7541    8.4977 C.3       14 UNK        -0.0967 
     57 S57       -53.0806  -24.7522    6.8181 S.3       14 UNK        -0.2604 
     58 C58       -54.3897  -26.0241    6.9440 C.3       14 UNK         0.0134 
     59 N         -49.9521  -24.4795    7.9429 N.am      6 UNK        -0.4116 
     60 C         -49.0671  -24.7839    6.9908 C.2       5 UNK         0.5034 
     61 O         -49.0490  -25.8503    6.3755 O.2       5 UNK        -0.5045 
     62 CA        -47.9875  -23.7319    6.6949 C.3       5 UNK         0.0224 
     63 CB        -48.5187  -22.6019    5.7907 C.3       5 UNK        -0.1978 
     64 N         -47.3282  -23.2231    7.9070 N.am      5 UNK        -0.4737 
     65 C         -47.7979  -22.4043    8.8610 C.2       4 UNK         0.5027 
     66 O         -48.9220  -21.9027    8.8230 O.2       4 UNK        -0.5211 
     67 CA        -46.8906  -22.1287   10.0814 C.3       4 UNK         0.0297 
     68 CB        -47.6902  -22.1603   11.3971 C.3       4 UNK        -0.1993 
     69 N         -45.7789  -23.0782   10.1898 N.am      4 UNK        -0.4486 
     70 C         -44.5849  -22.9583    9.5933 C.2       3 UNK         0.4961 
     71 O         -44.2397  -21.9709    8.9448 O.2       3 UNK        -0.5105 
     72 CA        -43.6272  -24.1629    9.7035 C.3       3 UNK         0.0299 
     73 CB        -42.6028  -23.9310   10.8259 C.3       3 UNK        -0.1972 
     74 N         -44.3011  -25.4520    9.9204 N.am      3 UNK        -0.4305 
     75 C         -45.1759  -26.0168    9.0750 C.2       2 UNK         0.5006 
     76 O         -45.5050  -25.5085    8.0014 O.2       2 UNK        -0.5106 
     77 CA        -45.8320  -27.3257    9.5535 C.3       2 UNK         0.0296 
     78 CB        -46.7628  -27.0567   10.7499 C.3       2 UNK        -0.2002 
     79 N         -46.6167  -27.9837    8.5073 N.am      2 UNK        -0.4032 
     80 C         -46.1309  -28.5783    7.4110 C.2       1 UNK         0.5000 
     81 O         -44.9238  -28.6662    7.1635 O.2       1 UNK        -0.5238 
     82 H82       -45.7195  -32.2587    3.5035 H         1 UNK         0.0889 
     83 H83       -44.2328  -31.3984    3.9134 H         1 UNK         0.0889 
     84 H84       -45.5322  -30.5603    3.0634 H         1 UNK         0.0889 
     85 H85       -46.6337  -29.1880    4.4097 H         1 UNK         0.3028 
     86 H86       -47.7332  -28.2888    6.0496 H         1 UNK         0.0864 
     87 H87       -47.7272  -30.7449    7.8628 H         1 UNK         0.0720 
     88 H88       -48.6641  -30.7656    6.4021 H         1 UNK         0.0720 
     89 H89       -51.0912  -30.8897    7.1891 H         1 UNK         0.0814 
     90 H90       -50.9172  -29.6061    6.0111 H         1 UNK         0.0814 
     91 H91       -52.2743  -27.5671    6.1598 H         1 UNK         0.1469 
     92 H92       -55.4334  -27.4052    9.0556 H         1 UNK         0.1381 
     93 H93       -52.5618  -30.5873    9.1856 H         1 UNK         0.1206 
     94 H94       -54.3531  -30.6370   10.7032 H         1 UNK         0.0813 
     95 H95       -55.8423  -29.9229   10.1586 H         1 UNK         0.0813 
     96 H96       -56.9653  -28.1231   10.9767 H         1 UNK         0.0638 
     97 H97       -56.1758  -26.6991   11.5653 H         1 UNK         0.0638 
     98 H98       -58.0587  -27.1775   12.9912 H         1 UNK         0.0568 
     99 H99       -57.8183  -30.8405   14.6167 H         1 UNK         0.3450 
    100 H100      -56.7572  -29.5566   15.1440 H         1 UNK         0.3450 
    101 H101      -55.4248  -27.3920   14.1984 H         1 UNK         0.2987 
    102 H102      -55.7058  -25.3389   16.3384 H         1 UNK         0.0766 
    103 H103      -57.4286  -25.8673   18.0152 H         1 UNK         0.0798 
    104 H104      -55.8444  -26.2230   18.6798 H         1 UNK         0.0798 
    105 H105      -56.8818  -27.5341   18.1199 H         1 UNK         0.0798 
    106 H106      -53.8341  -26.5349   16.3640 H         1 UNK         0.3198 
    107 H107      -52.9171  -29.6904   17.2054 H         1 UNK         0.0843 
    108 H108      -52.9819  -29.1511   14.1905 H         1 UNK         0.0831 
    109 H109      -53.6204  -30.5834   14.9819 H         1 UNK         0.0831 
    110 H110      -51.8951  -30.2616   15.0181 H         1 UNK         0.0831 
    111 H111      -51.6222  -27.6701   15.5400 H         1 UNK         0.3133 
    112 H112      -50.1483  -26.0507   18.3995 H         1 UNK         0.0566 
    113 H113      -48.1079  -26.6979   17.1443 H         1 UNK         0.0814 
    114 H114      -49.0261  -27.8702   16.2012 H         1 UNK         0.0814 
    115 H115      -48.8116  -28.1010   17.9324 H         1 UNK         0.0814 
    116 H116      -50.6643  -25.9421   15.4436 H         1 UNK         0.3091 
    117 H117      -51.2872  -22.4881   15.6411 H         1 UNK         0.0702 
    118 H118      -49.5916  -22.1704   13.8600 H         1 UNK         0.0785 
    119 H119      -48.8210  -23.7023   14.2751 H         1 UNK         0.0785 
    120 H120      -48.7923  -22.3600   15.4109 H         1 UNK         0.0785 
    121 H121      -51.0721  -24.1877   13.3762 H         1 UNK         0.2998 
    122 H122      -54.0323  -26.0432   13.7106 H         1 UNK         0.0697 
    123 H123      -53.6435  -23.5725   11.9350 H         1 UNK         0.0825 
    124 H124      -55.0326  -23.8941   12.9638 H         1 UNK         0.0825 
    125 H125      -54.7190  -24.9173   11.5728 H         1 UNK         0.0825 
    126 H126      -52.5631  -25.9141   11.4295 H         1 UNK         0.3029 
    127 H127      -49.5475  -27.2839   11.9436 H         1 UNK         0.0897 
    128 H128      -51.8283  -29.2800   11.4796 H         1 UNK         0.0792 
    129 H129      -50.5716  -29.4287   12.6978 H         1 UNK         0.0792 
    130 H130      -50.1477  -29.5049   10.9972 H         1 UNK         0.0792 
    131 H131      -51.3346  -27.6019    9.7209 H         1 UNK         0.3086 
    132 H132      -50.9637  -26.3112    7.9260 H         1 UNK         0.0583 
    133 H133      -53.0458  -25.2856    9.1656 H         1 UNK         0.1020 
    134 H134      -52.3330  -23.7274    8.8679 H         1 UNK         0.1020 
    135 H135      -55.2116  -25.6136    7.5327 H         1 UNK         0.0694 
    136 H136      -54.7908  -26.2174    5.9484 H         1 UNK         0.0694 
    137 H137      -49.8318  -23.5937    8.4257 H         1 UNK         0.2989 
    138 H138      -47.2032  -24.2480    6.1379 H         1 UNK         0.1055 
    139 H139      -49.3474  -22.0610    6.2482 H         1 UNK         0.0806 
    140 H140      -48.8836  -23.0051    4.8452 H         1 UNK         0.0806 
    141 H141      -47.7357  -21.8812    5.5555 H         1 UNK         0.0806 
    142 H142      -46.4243  -23.6520    8.0766 H         1 UNK         0.3061 
    143 H143      -46.4901  -21.1205    9.9565 H         1 UNK         0.0734 
    144 H144      -48.1478  -23.1352   11.5676 H         1 UNK         0.0832 
    145 H145      -47.0559  -21.9327   12.2540 H         1 UNK         0.0832 
    146 H146      -48.4931  -21.4221   11.3892 H         1 UNK         0.0832 
    147 H147      -45.9681  -23.9308   10.6958 H         1 UNK         0.3156 
    148 H148      -43.0859  -24.2324    8.7576 H         1 UNK         0.0589 
    149 H149      -43.0802  -23.8788   11.8053 H         1 UNK         0.0808 
    150 H150      -42.0652  -22.9934   10.6759 H         1 UNK         0.0808 
    151 H151      -41.8577  -24.7263   10.8557 H         1 UNK         0.0808 
    152 H152      -44.0823  -25.9326   10.7819 H         1 UNK         0.3098 
    153 H153      -45.0401  -28.0104    9.8641 H         1 UNK         0.0720 
    154 H154      -46.2144  -26.6581   11.6040 H         1 UNK         0.0791 
    155 H155      -47.2498  -27.9726   11.0860 H         1 UNK         0.0791 
    156 H156      -47.5420  -26.3365   10.4979 H         1 UNK         0.0791 
    157 H157      -47.6223  -27.9537    8.6088 H         1 UNK         0.3028 
@<TRIPOS>BOND
     1    1    2 1    
     2    1   82 1    
     3    1   83 1    
     4    1   84 1    
     5    2    3 2    
     6    2    4 am   BACKBONE|DICT|INTERRES
     7    4    5 1    
     8    4   85 1    
     9    5    6 1    
    10    5   80 1    
    11    5   86 1    
    12    6    7 1    
    13    6   87 1    
    14    6   88 1    
    15    7    8 1    
    16    8    9 1    
    17    8   89 1    
    18    8   90 1    
    19    9   10 ar   
    20    9   14 ar   
    21   10   11 ar   
    22   10   91 1    
    23   11   12 ar   
    24   11   58 1    
    25   12   13 ar   
    26   12   92 1    
    27   13   14 ar   
    28   13   15 1    
    29   14   93 1    
    30   15   16 1    
    31   15   94 1    
    32   15   95 1    
    33   16   17 1    
    34   17   18 1    
    35   17   96 1    
    36   17   97 1    
    37   18   19 1    
    38   18   22 1    
    39   18   98 1    
    40   19   20 am   BACKBONE|DICT|INTERRES
    41   19   21 2    
    42   20   99 1    
    43   20  100 1    
    44   22   23 am   BACKBONE|DICT|INTERRES
    45   22  101 1    
    46   23   24 2    
    47   23   25 1    
    48   25   26 1    
    49   25   27 1    
    50   25  102 1    
    51   26  103 1    
    52   26  104 1    
    53   26  105 1    
    54   27   28 am   BACKBONE|DICT|INTERRES
    55   27  106 1    
    56   28   29 2    
    57   28   30 1    
    58   30   31 1    
    59   30   32 1    
    60   30  107 1    
    61   31  108 1    
    62   31  109 1    
    63   31  110 1    
    64   32   33 am   BACKBONE|DICT|INTERRES
    65   32  111 1    
    66   33   34 2    
    67   33   35 1    
    68   35   36 1    
    69   35   37 1    
    70   35  112 1    
    71   36  113 1    
    72   36  114 1    
    73   36  115 1    
    74   37   38 am   BACKBONE|DICT|INTERRES
    75   37  116 1    
    76   38   39 2    
    77   38   40 1    
    78   40   41 1    
    79   40   42 1    
    80   40  117 1    
    81   41  118 1    
    82   41  119 1    
    83   41  120 1    
    84   42   43 am   BACKBONE|DICT|INTERRES
    85   42  121 1    
    86   43   44 2    
    87   43   45 1    
    88   45   46 1    
    89   45   47 1    
    90   45  122 1    
    91   46  123 1    
    92   46  124 1    
    93   46  125 1    
    94   47   48 am   BACKBONE|DICT|INTERRES
    95   47  126 1    
    96   48   49 2    
    97   48   50 1    
    98   50   51 1    
    99   50   52 1    
   100   50  127 1    
   101   51  128 1    
   102   51  129 1    
   103   51  130 1    
   104   52   53 am   BACKBONE|DICT|INTERRES
   105   52  131 1    
   106   53   54 2    
   107   53   55 1    
   108   55   56 1    
   109   55   59 1    
   110   55  132 1    
   111   56   57 1    
   112   56  133 1    
   113   56  134 1    
   114   57   58 1    
   115   58  135 1    
   116   58  136 1    
   117   59   60 am   BACKBONE|DICT|INTERRES
   118   59  137 1    
   119   60   61 2    
   120   60   62 1    
   121   62   63 1    
   122   62   64 1    
   123   62  138 1    
   124   63  139 1    
   125   63  140 1    
   126   63  141 1    
   127   64   65 am   BACKBONE|DICT|INTERRES
   128   64  142 1    
   129   65   66 2    
   130   65   67 1    
   131   67   68 1    
   132   67   69 1    
   133   67  143 1    
   134   68  144 1    
   135   68  145 1    
   136   68  146 1    
   137   69   70 am   BACKBONE|DICT|INTERRES
   138   69  147 1    
   139   70   71 2    
   140   70   72 1    
   141   72   73 1    
   142   72   74 1    
   143   72  148 1    
   144   73  149 1    
   145   73  150 1    
   146   73  151 1    
   147   74   75 am   BACKBONE|DICT|INTERRES
   148   74  152 1    
   149   75   76 2    
   150   75   77 1    
   151   77   78 1    
   152   77   79 1    
   153   77  153 1    
   154   78  154 1    
   155   78  155 1    
   156   78  156 1    
   157   79   80 am   BACKBONE|DICT|INTERRES
   158   79  157 1    
   159   80   81 2    
@<TRIPOS>SUBSTRUCTURE
     1 UNK         1 GROUP             0       ****    0 ROOT    
