@<TRIPOS>MOLECULE
3R207
157   159    1
SMALL
USER_CHARGES


@<TRIPOS>ATOM
      1 CA        -51.8453  -29.7976    3.0961 C.3       0 UNK        -0.1975 
      2 C         -51.6431  -28.7142    4.1450 C.2       0 UNK         0.4852 
      3 O         -52.4071  -27.7493    4.1821 O.2       0 UNK        -0.5216 
      4 N         -50.6173  -28.8647    4.9943 N.am      1 UNK        -0.4461 
      5 CA        -50.2803  -27.9336    6.0795 C.3       1 UNK         0.0864 
      6 C6        -49.3042  -28.5763    7.0989 C.3       14 UNK        -0.0898 
      7 S7        -50.1161  -29.8550    8.1167 S.3       14 UNK        -0.2598 
      8 C8        -50.1856  -29.0521    9.7548 C.3       14 UNK         0.0286 
      9 C9        -51.3782  -28.1143    9.9019 C.ar      14 UNK        -0.0844 
     10 C10       -51.3972  -26.8812    9.2451 C.ar      14 UNK        -0.0881 
     11 C11       -52.4644  -25.9961    9.4129 C.ar      14 UNK        -0.0643 
     12 C12       -53.5191  -26.3457   10.2585 C.ar      14 UNK        -0.0930 
     13 C13       -53.5092  -27.5687   10.9338 C.ar      14 UNK        -0.0827 
     14 C14       -52.4436  -28.4544   10.7416 C.ar      14 UNK        -0.1249 
     15 C15       -54.6239  -27.8972   11.9130 C.3       14 UNK         0.0141 
     16 S16       -56.0235  -28.7411   11.1144 S.3       14 UNK        -0.2313 
     17 C17       -55.4724  -30.4821   11.1120 C.3       14 UNK        -0.0915 
     18 CA        -56.2020  -31.3431   12.1854 C.3       13 UNK         0.0968 
     19 C         -55.9329  -32.8714   12.0234 C.2       13 UNK         0.5732 
     20 N         -55.9357  -33.6589   13.0925 N.am      13 UNK        -0.7310 
     21 O         -55.7555  -33.3635   10.9111 O.2       13 UNK        -0.5035 
     22 N         -56.0245  -30.8230   13.5543 N.am      13 UNK        -0.4233 
     23 C         -54.8825  -30.7673   14.2504 C.2       13 UNK         0.4989 
     24 O         -53.7982  -31.1745   13.8305 O.2       13 UNK        -0.4996 
     25 CA        -54.9723  -30.1052   15.6397 C.3       12 UNK         0.0216 
     26 CB        -53.6972  -30.3240   16.4759 C.3       12 UNK        -0.1964 
     27 N         -55.2385  -28.6653   15.5419 N.am      12 UNK        -0.4276 
     28 C         -56.4263  -28.1182   15.2350 C.2       12 UNK         0.5020 
     29 O         -57.4347  -28.7932   15.0176 O.2       12 UNK        -0.5489 
     30 CA        -56.5341  -26.5838   15.1488 C.3       11 UNK         0.0294 
     31 CB        -57.6071  -26.0492   16.1140 C.3       11 UNK        -0.2019 
     32 N         -55.2656  -25.9120   15.4334 N.am      11 UNK        -0.4493 
     33 C         -54.6845  -24.9702   14.6825 C.2       11 UNK         0.4932 
     34 O         -55.1644  -24.5274   13.6391 O.2       11 UNK        -0.5029 
     35 CA        -53.3338  -24.4263   15.1857 C.3       10 UNK         0.0280 
     36 CB        -53.4099  -23.9196   16.6410 C.3       10 UNK        -0.1976 
     37 N         -52.2182  -25.3638   15.0070 N.am      10 UNK        -0.4242 
     38 C         -52.0796  -26.5945   15.5243 C.2       10 UNK         0.5072 
     39 O         -52.9065  -27.1305   16.2642 O.2       10 UNK        -0.5224 
     40 CA        -50.8097  -27.3726   15.1515 C.3       9 UNK         0.0343 
     41 CB        -50.9559  -28.0057   13.7606 C.3       9 UNK        -0.2003 
     42 N         -49.5960  -26.5572   15.1941 N.am      9 UNK        -0.4272 
     43 C         -49.0275  -26.0929   16.3163 C.2       9 UNK         0.4988 
     44 O         -49.4789  -26.2811   17.4464 O.2       9 UNK        -0.5108 
     45 CA        -47.7246  -25.2949   16.1516 C.3       8 UNK         0.0248 
     46 CB        -46.5353  -26.2321   15.8808 C.3       8 UNK        -0.2001 
     47 N         -47.8282  -24.3064   15.0791 N.am      8 UNK        -0.4140 
     48 C         -48.4319  -23.1164   15.2040 C.2       8 UNK         0.5028 
     49 O         -48.9025  -22.6919   16.2600 O.2       8 UNK        -0.5428 
     50 CA        -48.5345  -22.2499   13.9364 C.3       7 UNK         0.0264 
     51 CB        -47.3459  -21.2796   13.8455 C.3       7 UNK        -0.1988 
     52 N         -48.6181  -23.0401   12.7044 N.am      7 UNK        -0.4454 
     53 C         -49.6893  -23.7741   12.3626 C.2       7 UNK         0.5027 
     54 O         -50.6958  -23.8690   13.0659 O.2       7 UNK        -0.5083 
     55 CA        -49.6062  -24.5895   11.0532 C.3       6 UNK         0.0844 
     56 C56       -50.0188  -23.7517    9.8154 C.3       14 UNK        -0.0967 
     57 S57       -51.7964  -23.3346    9.7693 S.3       14 UNK        -0.2604 
     58 C58       -52.4643  -24.6509    8.7039 C.3       14 UNK         0.0134 
     59 N         -48.2944  -25.2090   10.8491 N.am      6 UNK        -0.4116 
     60 C         -47.6802  -26.0325   11.7124 C.2       5 UNK         0.5034 
     61 O         -48.1985  -26.4462   12.7479 O.2       5 UNK        -0.5045 
     62 CA        -46.2190  -26.4161   11.4144 C.3       5 UNK         0.0224 
     63 CB        -46.1637  -27.8011   10.7502 C.3       5 UNK        -0.1978 
     64 N         -45.5010  -25.4511   10.5744 N.am      5 UNK        -0.4737 
     65 C         -45.3695  -24.1359   10.8072 C.2       4 UNK         0.5027 
     66 O         -45.7696  -23.5816   11.8309 O.2       4 UNK        -0.5211 
     67 CA        -44.7566  -23.2825    9.6804 C.3       4 UNK         0.0297 
     68 CB        -43.3035  -22.9159   10.0206 C.3       4 UNK        -0.1993 
     69 N         -44.8020  -23.9049    8.3488 N.am      4 UNK        -0.4486 
     70 C         -45.9097  -24.2920    7.6994 C.2       3 UNK         0.4961 
     71 O         -47.0524  -24.1827    8.1544 O.2       3 UNK        -0.5105 
     72 CA        -45.6827  -24.9806    6.3493 C.3       3 UNK         0.0299 
     73 CB        -45.1315  -26.4064    6.5541 C.3       3 UNK        -0.1972 
     74 N         -46.9436  -25.0421    5.6181 N.am      3 UNK        -0.4305 
     75 C         -47.0804  -25.2292    4.3011 C.2       2 UNK         0.5006 
     76 O         -46.1280  -25.3350    3.5254 O.2       2 UNK        -0.5106 
     77 CA        -48.5239  -25.3620    3.7747 C.3       2 UNK         0.0296 
     78 CB        -48.5930  -25.4606    2.2388 C.3       2 UNK        -0.2002 
     79 N         -49.1878  -26.5330    4.3543 N.am      2 UNK        -0.4032 
     80 C         -49.7141  -26.5848    5.5860 C.2       1 UNK         0.5000 
     81 O         -49.7325  -25.6166    6.3482 O.2       1 UNK        -0.5238 
     82 H82       -52.8314  -30.2477    3.2079 H         1 UNK         0.0889 
     83 H83       -51.1006  -30.5893    3.1777 H         1 UNK         0.0889 
     84 H84       -51.7774  -29.3696    2.0963 H         1 UNK         0.0889 
     85 H85       -50.0393  -29.6913    4.9324 H         1 UNK         0.3028 
     86 H86       -51.2126  -27.6941    6.5945 H         1 UNK         0.0864 
     87 H87       -48.4588  -29.0331    6.5812 H         1 UNK         0.0720 
     88 H88       -48.8620  -27.8300    7.7615 H         1 UNK         0.0720 
     89 H89       -49.2606  -28.5087    9.9524 H         1 UNK         0.0814 
     90 H90       -50.2331  -29.8352   10.5131 H         1 UNK         0.0814 
     91 H91       -50.5657  -26.5887    8.6238 H         1 UNK         0.1469 
     92 H92       -54.3360  -25.6533   10.4109 H         1 UNK         0.1381 
     93 H93       -52.4245  -29.3939   11.2759 H         1 UNK         0.1206 
     94 H94       -54.2347  -28.4949   12.7353 H         1 UNK         0.0813 
     95 H95       -54.9932  -26.9761   12.3641 H         1 UNK         0.0813 
     96 H96       -55.6726  -30.8689   10.1116 H         1 UNK         0.0638 
     97 H97       -54.3925  -30.5398   11.2421 H         1 UNK         0.0638 
     98 H98       -57.2702  -31.2475   11.9889 H         1 UNK         0.0568 
     99 H99       -56.0947  -33.2752   14.0098 H         1 UNK         0.3450 
    100 H100      -55.7732  -34.6467   12.9777 H         1 UNK         0.3450 
    101 H101      -56.8415  -30.3892   13.9730 H         1 UNK         0.2987 
    102 H102      -55.8000  -30.5764   16.1744 H         1 UNK         0.0766 
    103 H103      -53.7926  -29.8840   17.4688 H         1 UNK         0.0798 
    104 H104      -52.8196  -29.8849   15.9999 H         1 UNK         0.0798 
    105 H105      -53.4962  -31.3876   16.6103 H         1 UNK         0.0798 
    106 H106      -54.4381  -28.0603   15.7076 H         1 UNK         0.3198 
    107 H107      -56.8504  -26.3616   14.1274 H         1 UNK         0.0843 
    108 H108      -57.3555  -26.2621   17.1536 H         1 UNK         0.0831 
    109 H109      -58.5789  -26.5023   15.9130 H         1 UNK         0.0831 
    110 H110      -57.7283  -24.9706   16.0122 H         1 UNK         0.0831 
    111 H111      -54.7390  -26.2438   16.2346 H         1 UNK         0.3133 
    112 H112      -53.0952  -23.5650   14.5596 H         1 UNK         0.0566 
    113 H113      -52.4905  -23.4057   16.9226 H         1 UNK         0.0814 
    114 H114      -54.2280  -23.2088   16.7641 H         1 UNK         0.0814 
    115 H115      -53.5681  -24.7259   17.3575 H         1 UNK         0.0814 
    116 H116      -51.4984  -25.0268   14.3714 H         1 UNK         0.3091 
    117 H117      -50.6940  -28.1805   15.8772 H         1 UNK         0.0702 
    118 H118      -51.8382  -28.6456   13.7135 H         1 UNK         0.0785 
    119 H119      -50.0935  -28.6247   13.5127 H         1 UNK         0.0785 
    120 H120      -51.0544  -27.2474   12.9824 H         1 UNK         0.0785 
    121 H121      -49.1242  -26.4020   14.3050 H         1 UNK         0.2998 
    122 H122      -47.5299  -24.7727   17.0911 H         1 UNK         0.0697 
    123 H123      -46.6585  -26.7948   14.9550 H         1 UNK         0.0825 
    124 H124      -46.4219  -26.9572   16.6879 H         1 UNK         0.0825 
    125 H125      -45.6001  -25.6759   15.8127 H         1 UNK         0.0825 
    126 H126      -47.4907  -24.5799   14.1673 H         1 UNK         0.3029 
    127 H127      -49.4493  -21.6585   14.0191 H         1 UNK         0.0897 
    128 H128      -47.4303  -20.6268   12.9765 H         1 UNK         0.0792 
    129 H129      -46.3949  -21.8091   13.7771 H         1 UNK         0.0792 
    130 H130      -47.2983  -20.6396   14.7277 H         1 UNK         0.0792 
    131 H131      -47.7826  -23.0747   12.1292 H         1 UNK         0.3086 
    132 H132      -50.3102  -25.4129   11.1707 H         1 UNK         0.0583 
    133 H133      -49.4419  -22.8260    9.7669 H         1 UNK         0.1020 
    134 H134      -49.7711  -24.2878    8.8975 H         1 UNK         0.1020 
    135 H135      -53.4843  -24.3883    8.4193 H         1 UNK         0.0694 
    136 H136      -51.8947  -24.7017    7.7748 H         1 UNK         0.0694 
    137 H137      -47.7872  -24.9183   10.0203 H         1 UNK         0.2989 
    138 H138      -45.6988  -26.4672   12.3732 H         1 UNK         0.1055 
    139 H139      -46.6752  -28.5476   11.3600 H         1 UNK         0.0806 
    140 H140      -45.1356  -28.1408   10.6235 H         1 UNK         0.0806 
    141 H141      -46.6411  -27.7992    9.7693 H         1 UNK         0.0806 
    142 H142      -45.1320  -25.8029    9.7034 H         1 UNK         0.3061 
    143 H143      -45.3393  -22.3604    9.6283 H         1 UNK         0.0734 
    144 H144      -42.8842  -22.2264    9.2877 H         1 UNK         0.0832 
    145 H145      -43.2425  -22.4255   10.9934 H         1 UNK         0.0832 
    146 H146      -42.6627  -23.7977   10.0605 H         1 UNK         0.0832 
    147 H147      -43.9102  -24.0484    7.8959 H         1 UNK         0.3156 
    148 H148      -44.9675  -24.3852    5.7778 H         1 UNK         0.0589 
    149 H149      -45.8284  -27.0290    7.1171 H         1 UNK         0.0808 
    150 H150      -44.9410  -26.9008    5.6014 H         1 UNK         0.0808 
    151 H151      -44.1869  -26.3957    7.0990 H         1 UNK         0.0808 
    152 H152      -47.7778  -24.9462    6.1936 H         1 UNK         0.3098 
    153 H153      -49.0642  -24.4608    4.0732 H         1 UNK         0.0720 
    154 H154      -49.6255  -25.5018    1.8909 H         1 UNK         0.0791 
    155 H155      -48.0775  -26.3463    1.8651 H         1 UNK         0.0791 
    156 H156      -48.1297  -24.5910    1.7706 H         1 UNK         0.0791 
    157 H157      -49.1836  -27.3779    3.8020 H         1 UNK         0.3028 
@<TRIPOS>BOND
     1    1    2 1    
     2    1   82 1    
     3    1   83 1    
     4    1   84 1    
     5    2    3 2    
     6    2    4 am   BACKBONE|DICT|INTERRES
     7    4    5 1    
     8    4   85 1    
     9    5    6 1    
    10    5   80 1    
    11    5   86 1    
    12    6    7 1    
    13    6   87 1    
    14    6   88 1    
    15    7    8 1    
    16    8    9 1    
    17    8   89 1    
    18    8   90 1    
    19    9   10 ar   
    20    9   14 ar   
    21   10   11 ar   
    22   10   91 1    
    23   11   12 ar   
    24   11   58 1    
    25   12   13 ar   
    26   12   92 1    
    27   13   14 ar   
    28   13   15 1    
    29   14   93 1    
    30   15   16 1    
    31   15   94 1    
    32   15   95 1    
    33   16   17 1    
    34   17   18 1    
    35   17   96 1    
    36   17   97 1    
    37   18   19 1    
    38   18   22 1    
    39   18   98 1    
    40   19   20 am   BACKBONE|DICT|INTERRES
    41   19   21 2    
    42   20   99 1    
    43   20  100 1    
    44   22   23 am   BACKBONE|DICT|INTERRES
    45   22  101 1    
    46   23   24 2    
    47   23   25 1    
    48   25   26 1    
    49   25   27 1    
    50   25  102 1    
    51   26  103 1    
    52   26  104 1    
    53   26  105 1    
    54   27   28 am   BACKBONE|DICT|INTERRES
    55   27  106 1    
    56   28   29 2    
    57   28   30 1    
    58   30   31 1    
    59   30   32 1    
    60   30  107 1    
    61   31  108 1    
    62   31  109 1    
    63   31  110 1    
    64   32   33 am   BACKBONE|DICT|INTERRES
    65   32  111 1    
    66   33   34 2    
    67   33   35 1    
    68   35   36 1    
    69   35   37 1    
    70   35  112 1    
    71   36  113 1    
    72   36  114 1    
    73   36  115 1    
    74   37   38 am   BACKBONE|DICT|INTERRES
    75   37  116 1    
    76   38   39 2    
    77   38   40 1    
    78   40   41 1    
    79   40   42 1    
    80   40  117 1    
    81   41  118 1    
    82   41  119 1    
    83   41  120 1    
    84   42   43 am   BACKBONE|DICT|INTERRES
    85   42  121 1    
    86   43   44 2    
    87   43   45 1    
    88   45   46 1    
    89   45   47 1    
    90   45  122 1    
    91   46  123 1    
    92   46  124 1    
    93   46  125 1    
    94   47   48 am   BACKBONE|DICT|INTERRES
    95   47  126 1    
    96   48   49 2    
    97   48   50 1    
    98   50   51 1    
    99   50   52 1    
   100   50  127 1    
   101   51  128 1    
   102   51  129 1    
   103   51  130 1    
   104   52   53 am   BACKBONE|DICT|INTERRES
   105   52  131 1    
   106   53   54 2    
   107   53   55 1    
   108   55   56 1    
   109   55   59 1    
   110   55  132 1    
   111   56   57 1    
   112   56  133 1    
   113   56  134 1    
   114   57   58 1    
   115   58  135 1    
   116   58  136 1    
   117   59   60 am   BACKBONE|DICT|INTERRES
   118   59  137 1    
   119   60   61 2    
   120   60   62 1    
   121   62   63 1    
   122   62   64 1    
   123   62  138 1    
   124   63  139 1    
   125   63  140 1    
   126   63  141 1    
   127   64   65 am   BACKBONE|DICT|INTERRES
   128   64  142 1    
   129   65   66 2    
   130   65   67 1    
   131   67   68 1    
   132   67   69 1    
   133   67  143 1    
   134   68  144 1    
   135   68  145 1    
   136   68  146 1    
   137   69   70 am   BACKBONE|DICT|INTERRES
   138   69  147 1    
   139   70   71 2    
   140   70   72 1    
   141   72   73 1    
   142   72   74 1    
   143   72  148 1    
   144   73  149 1    
   145   73  150 1    
   146   73  151 1    
   147   74   75 am   BACKBONE|DICT|INTERRES
   148   74  152 1    
   149   75   76 2    
   150   75   77 1    
   151   77   78 1    
   152   77   79 1    
   153   77  153 1    
   154   78  154 1    
   155   78  155 1    
   156   78  156 1    
   157   79   80 am   BACKBONE|DICT|INTERRES
   158   79  157 1    
   159   80   81 2    
@<TRIPOS>SUBSTRUCTURE
     1 UNK         1 GROUP             0       ****    0 ROOT    
