@<TRIPOS>MOLECULE
3R207
157   159    1
SMALL
USER_CHARGES


@<TRIPOS>ATOM
      1 CA        -47.1314  -26.7455   11.1557 C.3       0 UNK        -0.1975 
      2 C         -47.3163  -27.8640   10.1415 C.2       0 UNK         0.4852 
      3 O         -46.7196  -28.9306   10.2932 O.2       0 UNK        -0.5216 
      4 N         -48.1419  -27.6272    9.1135 N.am      1 UNK        -0.4461 
      5 CA        -48.4130  -28.5585    8.0100 C.3       1 UNK         0.0864 
      6 C6        -49.6285  -28.1205    7.1553 C.3       14 UNK        -0.0898 
      7 S7        -51.1385  -27.9553    8.1598 S.3       14 UNK        -0.2598 
      8 C8        -52.3434  -27.3774    6.9266 C.3       14 UNK         0.0286 
      9 C9        -53.5417  -26.7271    7.6046 C.ar      14 UNK        -0.0844 
     10 C10       -53.7951  -25.3631    7.4323 C.ar      14 UNK        -0.0881 
     11 C11       -54.8678  -24.7466    8.0880 C.ar      14 UNK        -0.0643 
     12 C12       -55.6977  -25.5170    8.9094 C.ar      14 UNK        -0.0930 
     13 C13       -55.4709  -26.8875    9.0716 C.ar      14 UNK        -0.0827 
     14 C14       -54.3948  -27.4870    8.4108 C.ar      14 UNK        -0.1249 
     15 C15       -56.4033  -27.7177    9.9443 C.3       14 UNK         0.0141 
     16 S16       -55.8715  -27.7327   11.6860 S.3       14 UNK        -0.2313 
     17 C17       -54.5641  -29.0071   11.6749 C.3       14 UNK        -0.0915 
     18 CA        -54.8345  -30.1682   12.6699 C.3       13 UNK         0.0968 
     19 C         -53.7856  -31.3112   12.5301 C.2       13 UNK         0.5732 
     20 N         -53.1961  -31.8256   13.6045 N.am      13 UNK        -0.7310 
     21 O         -53.5121  -31.7611   11.4201 O.2       13 UNK        -0.5035 
     22 N         -54.9742  -29.6855   14.0530 N.am      13 UNK        -0.4233 
     23 C         -55.8973  -30.1224   14.9187 C.2       13 UNK         0.4989 
     24 O         -56.7809  -30.9298   14.6235 O.2       13 UNK        -0.4996 
     25 CA        -55.8253  -29.5665   16.3564 C.3       12 UNK         0.0216 
     26 CB        -56.6032  -30.4320   17.3710 C.3       12 UNK        -0.1964 
     27 N         -54.4597  -29.3224   16.8384 N.am      12 UNK        -0.4276 
     28 C         -53.4538  -30.2084   16.9335 C.2       12 UNK         0.5020 
     29 O         -53.5495  -31.3828   16.5735 O.2       12 UNK        -0.5489 
     30 CA        -52.1092  -29.6982   17.4910 C.3       11 UNK         0.0294 
     31 CB        -50.9136  -30.3503   16.7717 C.3       11 UNK        -0.2019 
     32 N         -52.0020  -28.2462   17.3506 N.am      11 UNK        -0.4493 
     33 C         -52.0739  -27.3485   18.3431 C.2       11 UNK         0.4932 
     34 O         -52.1428  -27.6491   19.5346 O.2       11 UNK        -0.5029 
     35 CA        -52.1068  -25.8588   17.9417 C.3       10 UNK         0.0280 
     36 CB        -50.7164  -25.2281   18.1140 C.3       10 UNK        -0.1976 
     37 N         -52.5758  -25.6336   16.5691 N.am      10 UNK        -0.4242 
     38 C         -53.8156  -25.9144   16.1330 C.2       10 UNK         0.5072 
     39 O         -54.7213  -26.3017   16.8715 O.2       10 UNK        -0.5224 
     40 CA        -54.0743  -25.8453   14.6155 C.3       9 UNK         0.0343 
     41 CB        -54.7327  -24.5107   14.2384 C.3       9 UNK        -0.2003 
     42 N         -52.8674  -26.0525   13.8074 N.am      9 UNK        -0.4272 
     43 C         -52.1200  -27.1685   13.8348 C.2       9 UNK         0.4988 
     44 O         -52.4534  -28.1738   14.4626 O.2       9 UNK        -0.5108 
     45 CA        -50.7701  -27.1804   13.0895 C.3       8 UNK         0.0248 
     46 CB        -50.8715  -28.0488   11.8280 C.3       8 UNK        -0.2001 
     47 N         -50.2615  -25.8559   12.7234 N.am      8 UNK        -0.4140 
     48 C         -49.9842  -24.8592   13.5796 C.2       8 UNK         0.5028 
     49 O         -50.0287  -24.9800   14.8043 O.2       8 UNK        -0.5428 
     50 CA        -49.6993  -23.4722   12.9672 C.3       7 UNK         0.0264 
     51 CB        -48.1868  -23.2083   12.8965 C.3       7 UNK        -0.1988 
     52 N         -50.2909  -23.2840   11.6354 N.am      7 UNK        -0.4454 
     53 C         -51.5961  -23.4019   11.3436 C.2       7 UNK         0.5027 
     54 O         -52.4549  -23.5823   12.2064 O.2       7 UNK        -0.5083 
     55 CA        -52.0316  -23.3729    9.8622 C.3       6 UNK         0.0844 
     56 C56       -53.1429  -22.3137    9.6391 C.3       14 UNK        -0.0967 
     57 S57       -53.6914  -22.1923    7.9006 S.3       14 UNK        -0.2604 
     58 C58       -55.1697  -23.2626    7.8889 C.3       14 UNK         0.0134 
     59 N         -50.9433  -23.2449    8.8843 N.am      6 UNK        -0.4116 
     60 C         -49.9687  -24.1297    8.6371 C.2       5 UNK         0.5034 
     61 O         -49.7330  -25.1113    9.3430 O.2       5 UNK        -0.5045 
     62 CA        -49.0960  -23.8598    7.4011 C.3       5 UNK         0.0224 
     63 CB        -49.7640  -22.9479    6.3505 C.3       5 UNK        -0.1978 
     64 N         -47.8170  -23.2758    7.8026 N.am      5 UNK        -0.4737 
     65 C         -46.7357  -23.9917    8.1237 C.2       4 UNK         0.5027 
     66 O         -46.7012  -25.2240    8.1307 O.2       4 UNK        -0.5211 
     67 CA        -45.4727  -23.2101    8.5031 C.3       4 UNK         0.0297 
     68 CB        -45.3132  -23.1562   10.0310 C.3       4 UNK        -0.1993 
     69 N         -44.3365  -23.9159    7.9189 N.am      4 UNK        -0.4486 
     70 C         -43.7658  -23.6045    6.7489 C.2       3 UNK         0.4961 
     71 O         -43.9375  -22.5388    6.1559 O.2       3 UNK        -0.5105 
     72 CA        -42.8875  -24.6956    6.1092 C.3       3 UNK         0.0299 
     73 CB        -41.4394  -24.5935    6.6147 C.3       3 UNK        -0.1972 
     74 N         -43.3997  -26.0506    6.3512 N.am      3 UNK        -0.4305 
     75 C         -44.5625  -26.5295    5.8804 C.2       2 UNK         0.5006 
     76 O         -45.3021  -25.9026    5.1202 O.2       2 UNK        -0.5106 
     77 CA        -44.9838  -27.9366    6.3284 C.3       2 UNK         0.0296 
     78 CB        -43.9459  -28.6732    7.2058 C.3       2 UNK        -0.2002 
     79 N         -46.2562  -27.8376    7.0408 N.am      2 UNK        -0.4032 
     80 C         -47.1772  -28.8083    7.1159 C.2       1 UNK         0.5000 
     81 O         -47.0759  -29.8877    6.5281 O.2       1 UNK        -0.5238 
     82 H82       -47.6221  -25.8289   10.8321 H         1 UNK         0.0889 
     83 H83       -46.0715  -26.5306   11.2872 H         1 UNK         0.0889 
     84 H84       -47.5457  -27.0367   12.1204 H         1 UNK         0.0889 
     85 H85       -48.6185  -26.7308    9.0591 H         1 UNK         0.3028 
     86 H86       -48.6603  -29.5205    8.4642 H         1 UNK         0.0864 
     87 H87       -49.8261  -28.8481    6.3656 H         1 UNK         0.0720 
     88 H88       -49.4270  -27.1691    6.6610 H         1 UNK         0.0720 
     89 H89       -51.8586  -26.6732    6.2488 H         1 UNK         0.0814 
     90 H90       -52.6749  -28.2202    6.3186 H         1 UNK         0.0814 
     91 H91       -53.1493  -24.7749    6.7953 H         1 UNK         0.1469 
     92 H92       -56.5328  -25.0529    9.4163 H         1 UNK         0.1381 
     93 H93       -54.2072  -28.5447    8.5317 H         1 UNK         0.1206 
     94 H94       -56.4787  -28.7387    9.5669 H         1 UNK         0.0813 
     95 H95       -57.4124  -27.3063    9.8943 H         1 UNK         0.0813 
     96 H96       -54.4603  -29.3995   10.6633 H         1 UNK         0.0638 
     97 H97       -53.6205  -28.5193   11.9004 H         1 UNK         0.0638 
     98 H98       -55.7769  -30.6217   12.3584 H         1 UNK         0.0568 
     99 H99       -53.4302  -31.5129   14.5399 H         1 UNK         0.3450 
    100 H100      -52.5283  -32.5693   13.4823 H         1 UNK         0.3450 
    101 H101      -54.2317  -29.0738   14.3752 H         1 UNK         0.2987 
    102 H102      -56.3104  -28.5899   16.3194 H         1 UNK         0.0766 
    103 H103      -56.5642  -30.0015   18.3717 H         1 UNK         0.0798 
    104 H104      -57.6559  -30.5107   17.0963 H         1 UNK         0.0798 
    105 H105      -56.2040  -31.4454   17.4258 H         1 UNK         0.0798 
    106 H106      -54.2783  -28.3666   17.1249 H         1 UNK         0.3198 
    107 H107      -52.0726  -29.9834   18.5443 H         1 UNK         0.0843 
    108 H108      -49.9658  -29.9750   17.1575 H         1 UNK         0.0831 
    109 H109      -50.9380  -30.1611   15.6976 H         1 UNK         0.0831 
    110 H110      -50.9123  -31.4320   16.9122 H         1 UNK         0.0831 
    111 H111      -51.9856  -27.9164   16.3907 H         1 UNK         0.3133 
    112 H112      -52.7984  -25.3513   18.6173 H         1 UNK         0.0566 
    113 H113      -49.9757  -25.7029   17.4691 H         1 UNK         0.0814 
    114 H114      -50.3660  -25.3296   19.1421 H         1 UNK         0.0814 
    115 H115      -50.7300  -24.1634   17.8801 H         1 UNK         0.0814 
    116 H116      -51.8754  -25.3371   15.8970 H         1 UNK         0.3091 
    117 H117      -54.7736  -26.6468   14.3702 H         1 UNK         0.0702 
    118 H118      -55.6551  -24.3570   14.8002 H         1 UNK         0.0785 
    119 H119      -54.9905  -24.4837   13.1792 H         1 UNK         0.0785 
    120 H120      -54.0768  -23.6644   14.4464 H         1 UNK         0.0785 
    121 H121      -52.5628  -25.2603   13.2494 H         1 UNK         0.2998 
    122 H122      -50.0409  -27.6366   13.7619 H         1 UNK         0.0697 
    123 H123      -51.5506  -27.6118   11.0950 H         1 UNK         0.0825 
    124 H124      -51.2394  -29.0483   12.0648 H         1 UNK         0.0825 
    125 H125      -49.9028  -28.1755   11.3500 H         1 UNK         0.0825 
    126 H126      -50.2053  -25.6545   11.7333 H         1 UNK         0.3029 
    127 H127      -50.1472  -22.7311   13.6326 H         1 UNK         0.0897 
    128 H128      -47.9764  -22.1923   12.5622 H         1 UNK         0.0792 
    129 H129      -47.7248  -23.3258   13.8779 H         1 UNK         0.0792 
    130 H130      -47.6850  -23.8964   12.2169 H         1 UNK         0.0792 
    131 H131      -49.6494  -23.1663   10.8649 H         1 UNK         0.3086 
    132 H132      -52.4768  -24.3537    9.6873 H         1 UNK         0.0583 
    133 H133      -54.0089  -22.5280   10.2692 H         1 UNK         0.1020 
    134 H134      -52.7902  -21.3263    9.9433 H         1 UNK         0.1020 
    135 H135      -55.8667  -22.9033    8.6478 H         1 UNK         0.0694 
    136 H136      -55.6738  -23.1430    6.9292 H         1 UNK         0.0694 
    137 H137      -51.0387  -22.4655    8.2498 H         1 UNK         0.2989 
    138 H138      -48.9224  -24.8275    6.9254 H         1 UNK         0.1055 
    139 H139      -49.1627  -22.9013    5.4422 H         1 UNK         0.0806 
    140 H140      -49.8953  -21.9250    6.7054 H         1 UNK         0.0806 
    141 H141      -50.7441  -23.3304    6.0602 H         1 UNK         0.0806 
    142 H142      -47.7667  -22.2675    7.8429 H         1 UNK         0.3061 
    143 H143      -45.5360  -22.1912    8.1149 H         1 UNK         0.0734 
    144 H144      -46.1427  -22.6172   10.4899 H         1 UNK         0.0832 
    145 H145      -45.2867  -24.1530   10.4731 H         1 UNK         0.0832 
    146 H146      -44.3957  -22.6403   10.3146 H         1 UNK         0.0832 
    147 H147      -44.1759  -24.8447    8.2807 H         1 UNK         0.3156 
    148 H148      -42.8843  -24.5279    5.0300 H         1 UNK         0.0589 
    149 H149      -41.3700  -24.7734    7.6883 H         1 UNK         0.0808 
    150 H150      -40.7909  -25.3101    6.1104 H         1 UNK         0.0808 
    151 H151      -41.0305  -23.6001    6.4245 H         1 UNK         0.0808 
    152 H152      -42.8468  -26.6461    6.9508 H         1 UNK         0.3098 
    153 H153      -45.1315  -28.5139    5.4134 H         1 UNK         0.0720 
    154 H154      -44.2756  -29.6883    7.4286 H         1 UNK         0.0791 
    155 H155      -42.9840  -28.7616    6.6990 H         1 UNK         0.0791 
    156 H156      -43.7857  -28.1691    8.1598 H         1 UNK         0.0791 
    157 H157      -46.4452  -26.9441    7.4968 H         1 UNK         0.3028 
@<TRIPOS>BOND
     1    1    2 1    
     2    1   82 1    
     3    1   83 1    
     4    1   84 1    
     5    2    3 2    
     6    2    4 am   BACKBONE|DICT|INTERRES
     7    4    5 1    
     8    4   85 1    
     9    5    6 1    
    10    5   80 1    
    11    5   86 1    
    12    6    7 1    
    13    6   87 1    
    14    6   88 1    
    15    7    8 1    
    16    8    9 1    
    17    8   89 1    
    18    8   90 1    
    19    9   10 ar   
    20    9   14 ar   
    21   10   11 ar   
    22   10   91 1    
    23   11   12 ar   
    24   11   58 1    
    25   12   13 ar   
    26   12   92 1    
    27   13   14 ar   
    28   13   15 1    
    29   14   93 1    
    30   15   16 1    
    31   15   94 1    
    32   15   95 1    
    33   16   17 1    
    34   17   18 1    
    35   17   96 1    
    36   17   97 1    
    37   18   19 1    
    38   18   22 1    
    39   18   98 1    
    40   19   20 am   BACKBONE|DICT|INTERRES
    41   19   21 2    
    42   20   99 1    
    43   20  100 1    
    44   22   23 am   BACKBONE|DICT|INTERRES
    45   22  101 1    
    46   23   24 2    
    47   23   25 1    
    48   25   26 1    
    49   25   27 1    
    50   25  102 1    
    51   26  103 1    
    52   26  104 1    
    53   26  105 1    
    54   27   28 am   BACKBONE|DICT|INTERRES
    55   27  106 1    
    56   28   29 2    
    57   28   30 1    
    58   30   31 1    
    59   30   32 1    
    60   30  107 1    
    61   31  108 1    
    62   31  109 1    
    63   31  110 1    
    64   32   33 am   BACKBONE|DICT|INTERRES
    65   32  111 1    
    66   33   34 2    
    67   33   35 1    
    68   35   36 1    
    69   35   37 1    
    70   35  112 1    
    71   36  113 1    
    72   36  114 1    
    73   36  115 1    
    74   37   38 am   BACKBONE|DICT|INTERRES
    75   37  116 1    
    76   38   39 2    
    77   38   40 1    
    78   40   41 1    
    79   40   42 1    
    80   40  117 1    
    81   41  118 1    
    82   41  119 1    
    83   41  120 1    
    84   42   43 am   BACKBONE|DICT|INTERRES
    85   42  121 1    
    86   43   44 2    
    87   43   45 1    
    88   45   46 1    
    89   45   47 1    
    90   45  122 1    
    91   46  123 1    
    92   46  124 1    
    93   46  125 1    
    94   47   48 am   BACKBONE|DICT|INTERRES
    95   47  126 1    
    96   48   49 2    
    97   48   50 1    
    98   50   51 1    
    99   50   52 1    
   100   50  127 1    
   101   51  128 1    
   102   51  129 1    
   103   51  130 1    
   104   52   53 am   BACKBONE|DICT|INTERRES
   105   52  131 1    
   106   53   54 2    
   107   53   55 1    
   108   55   56 1    
   109   55   59 1    
   110   55  132 1    
   111   56   57 1    
   112   56  133 1    
   113   56  134 1    
   114   57   58 1    
   115   58  135 1    
   116   58  136 1    
   117   59   60 am   BACKBONE|DICT|INTERRES
   118   59  137 1    
   119   60   61 2    
   120   60   62 1    
   121   62   63 1    
   122   62   64 1    
   123   62  138 1    
   124   63  139 1    
   125   63  140 1    
   126   63  141 1    
   127   64   65 am   BACKBONE|DICT|INTERRES
   128   64  142 1    
   129   65   66 2    
   130   65   67 1    
   131   67   68 1    
   132   67   69 1    
   133   67  143 1    
   134   68  144 1    
   135   68  145 1    
   136   68  146 1    
   137   69   70 am   BACKBONE|DICT|INTERRES
   138   69  147 1    
   139   70   71 2    
   140   70   72 1    
   141   72   73 1    
   142   72   74 1    
   143   72  148 1    
   144   73  149 1    
   145   73  150 1    
   146   73  151 1    
   147   74   75 am   BACKBONE|DICT|INTERRES
   148   74  152 1    
   149   75   76 2    
   150   75   77 1    
   151   77   78 1    
   152   77   79 1    
   153   77  153 1    
   154   78  154 1    
   155   78  155 1    
   156   78  156 1    
   157   79   80 am   BACKBONE|DICT|INTERRES
   158   79  157 1    
   159   80   81 2    
@<TRIPOS>SUBSTRUCTURE
     1 UNK         1 GROUP             0       ****    0 ROOT    
