@<TRIPOS>MOLECULE
3R207
157   159    1
SMALL
USER_CHARGES


@<TRIPOS>ATOM
      1 CA        -52.5618  -30.8314    7.3718 C.3       0 UNK        -0.1975 
      2 C         -51.8577  -30.4494    6.0802 C.2       0 UNK         0.4852 
      3 O         -51.2353  -31.3025    5.4470 O.2       0 UNK        -0.5216 
      4 N         -51.9560  -29.1730    5.6846 N.am      1 UNK        -0.4461 
      5 CA        -51.3326  -28.6206    4.4774 C.3       1 UNK         0.0864 
      6 C6        -51.8453  -27.1966    4.1397 C.3       14 UNK        -0.0898 
      7 S7        -53.6307  -26.9726    3.7923 S.3       14 UNK        -0.2598 
      8 C8        -54.5810  -27.5355    5.2576 C.3       14 UNK         0.0286 
      9 C9        -54.1894  -26.9755    6.6298 C.ar      14 UNK        -0.0844 
     10 C10       -53.3308  -25.8820    6.8021 C.ar      14 UNK        -0.0881 
     11 C11       -52.9432  -25.4688    8.0796 C.ar      14 UNK        -0.0643 
     12 C12       -53.4971  -26.0971    9.2002 C.ar      14 UNK        -0.0930 
     13 C13       -54.4223  -27.1344    9.0495 C.ar      14 UNK        -0.0827 
     14 C14       -54.7395  -27.5831    7.7642 C.ar      14 UNK        -0.1249 
     15 C15       -55.1326  -27.7258   10.2632 C.3       14 UNK         0.0141 
     16 S16       -53.9952  -28.3698   11.5286 S.3       14 UNK        -0.2313 
     17 C17       -53.3608  -29.8795   10.7343 C.3       14 UNK        -0.0915 
     18 CA        -53.0392  -31.0096   11.7483 C.3       13 UNK         0.0968 
     19 C         -52.5632  -32.2800   10.9845 C.2       13 UNK         0.5732 
     20 N         -51.2814  -32.6259   11.0046 N.am      13 UNK        -0.7310 
     21 O         -53.3739  -32.9585   10.3590 O.2       13 UNK        -0.5035 
     22 N         -52.1404  -30.5422   12.8196 N.am      13 UNK        -0.4233 
     23 C         -51.8158  -31.2326   13.9211 C.2       13 UNK         0.4989 
     24 O         -52.2424  -32.3575   14.1830 O.2       13 UNK        -0.4996 
     25 CA        -50.8492  -30.5417   14.8967 C.3       12 UNK         0.0216 
     26 CB        -49.5388  -30.1171   14.2081 C.3       12 UNK        -0.1964 
     27 N         -51.4683  -29.3832   15.5434 N.am      12 UNK        -0.4276 
     28 C         -52.3437  -29.4544   16.5568 C.2       12 UNK         0.5020 
     29 O         -52.7271  -30.5110   17.0603 O.2       12 UNK        -0.5489 
     30 CA        -52.8625  -28.1239   17.1308 C.3       11 UNK         0.0294 
     31 CB        -52.0173  -27.7016   18.3430 C.3       11 UNK        -0.2019 
     32 N         -52.8788  -27.0404   16.1432 N.am      11 UNK        -0.4493 
     33 C         -53.8069  -26.9262   15.1797 C.2       11 UNK         0.4932 
     34 O         -54.7505  -27.7089   15.0619 O.2       11 UNK        -0.5029 
     35 CA        -53.6511  -25.7740   14.1662 C.3       10 UNK         0.0280 
     36 CB        -54.9996  -25.2589   13.6192 C.3       10 UNK        -0.1976 
     37 N         -52.8061  -24.6739   14.6404 N.am      10 UNK        -0.4242 
     38 C         -53.0565  -23.8203   15.6439 C.2       10 UNK         0.5072 
     39 O         -54.0980  -23.8228   16.3025 O.2       10 UNK        -0.5224 
     40 CA        -51.9510  -22.7935   15.9679 C.3       9 UNK         0.0343 
     41 CB        -52.0579  -22.2404   17.4052 C.3       9 UNK        -0.2003 
     42 N         -50.5852  -23.2697   15.7068 N.am      9 UNK        -0.4272 
     43 C         -49.9756  -24.3362   16.2495 C.2       9 UNK         0.4988 
     44 O         -50.5520  -25.1258   16.9983 O.2       9 UNK        -0.5108 
     45 CA        -48.4923  -24.5909   15.8959 C.3       8 UNK         0.0248 
     46 CB        -48.2072  -26.0948   15.7220 C.3       8 UNK        -0.2001 
     47 N         -48.0427  -23.8803   14.6948 N.am      8 UNK        -0.4140 
     48 C         -47.6607  -22.5965   14.6343 C.2       8 UNK         0.5028 
     49 O         -47.5486  -21.8685   15.6205 O.2       8 UNK        -0.5428 
     50 CA        -47.4439  -22.0038   13.2272 C.3       7 UNK         0.0264 
     51 CB        -46.0045  -22.2425   12.7468 C.3       7 UNK        -0.1988 
     52 N         -48.3972  -22.5300   12.2408 N.am      7 UNK        -0.4454 
     53 C         -49.7271  -22.3573   12.3160 C.2       7 UNK         0.5027 
     54 O         -50.2677  -21.6406   13.1590 O.2       7 UNK        -0.5083 
     55 CA        -50.6161  -23.1743   11.3584 C.3       6 UNK         0.0844 
     56 C56       -50.9221  -22.4158   10.0432 C.3       14 UNK        -0.0967 
     57 S57       -52.4776  -23.0088    9.2946 S.3       14 UNK        -0.2604 
     58 C58       -51.8946  -24.3751    8.2429 C.3       14 UNK         0.0134 
     59 N         -50.0489  -24.5034   11.1169 N.am      6 UNK        -0.4116 
     60 C         -50.0509  -25.5023   12.0076 C.2       5 UNK         0.5034 
     61 O         -50.5601  -25.4255   13.1236 O.2       5 UNK        -0.5045 
     62 CA        -49.3177  -26.7890   11.6054 C.3       5 UNK         0.0224 
     63 CB        -50.2276  -27.6958   10.7657 C.3       5 UNK        -0.1978 
     64 N         -48.0735  -26.5160   10.8851 N.am      5 UNK        -0.4737 
     65 C         -46.9869  -25.9883   11.4695 C.2       4 UNK         0.5027 
     66 O         -46.9264  -25.7237   12.6687 O.2       4 UNK        -0.5211 
     67 CA        -45.7808  -25.6589   10.5726 C.3       4 UNK         0.0297 
     68 CB        -44.8055  -26.8456   10.5369 C.3       4 UNK        -0.1993 
     69 N         -46.1473  -25.2914    9.2044 N.am      4 UNK        -0.4486 
     70 C         -46.9514  -24.2768    8.8553 C.2       3 UNK         0.4961 
     71 O         -47.4505  -23.4858    9.6570 O.2       3 UNK        -0.5105 
     72 CA        -47.3095  -24.1704    7.3626 C.3       3 UNK         0.0299 
     73 CB        -46.3573  -23.1973    6.6508 C.3       3 UNK        -0.1972 
     74 N         -47.3083  -25.4635    6.6627 N.am      3 UNK        -0.4305 
     75 C         -48.1184  -26.4881    6.9632 C.2       2 UNK         0.5006 
     76 O         -48.9382  -26.4670    7.8849 O.2       2 UNK        -0.5106 
     77 CA        -47.9789  -27.7609    6.1242 C.3       2 UNK         0.0296 
     78 CB        -47.2363  -28.8542    6.9104 C.3       2 UNK        -0.2002 
     79 N         -49.3331  -28.2041    5.8241 N.am      2 UNK        -0.4032 
     80 C         -49.7962  -28.5460    4.6155 C.2       1 UNK         0.5000 
     81 O         -49.0820  -28.7398    3.6298 O.2       1 UNK        -0.5238 
     82 H82       -53.1548  -30.0075    7.7653 H         1 UNK         0.0889 
     83 H83       -51.8291  -31.1190    8.1252 H         1 UNK         0.0889 
     84 H84       -53.2282  -31.6772    7.2044 H         1 UNK         0.0889 
     85 H85       -52.4950  -28.5185    6.2356 H         1 UNK         0.3028 
     86 H86       -51.5643  -29.2825    3.6401 H         1 UNK         0.0864 
     87 H87       -51.3438  -26.8513    3.2328 H         1 UNK         0.0720 
     88 H88       -51.5263  -26.4914    4.9047 H         1 UNK         0.0720 
     89 H89       -54.5562  -28.6255    5.2839 H         1 UNK         0.0814 
     90 H90       -55.6259  -27.2755    5.0830 H         1 UNK         0.0814 
     91 H91       -52.9477  -25.3473    5.9473 H         1 UNK         0.1469 
     92 H92       -53.2238  -25.7625   10.1918 H         1 UNK         0.1381 
     93 H93       -55.4415  -28.3974    7.6434 H         1 UNK         0.1206 
     94 H94       -55.8262  -28.5152    9.9699 H         1 UNK         0.0813 
     95 H95       -55.7419  -26.9431   10.7164 H         1 UNK         0.0813 
     96 H96       -54.1037  -30.2268   10.0141 H         1 UNK         0.0638 
     97 H97       -52.4739  -29.6113   10.1585 H         1 UNK         0.0638 
     98 H98       -53.9757  -31.2878   12.2354 H         1 UNK         0.0568 
     99 H99       -50.9879  -33.4528   10.5096 H         1 UNK         0.3450 
    100 H100      -50.6093  -32.0786   11.5158 H         1 UNK         0.3450 
    101 H101      -51.7727  -29.6124   12.7009 H         1 UNK         0.2987 
    102 H102      -50.5897  -31.2686   15.6699 H         1 UNK         0.0766 
    103 H103      -49.6995  -29.3608   13.4415 H         1 UNK         0.0798 
    104 H104      -49.0567  -30.9702   13.7287 H         1 UNK         0.0798 
    105 H105      -48.8284  -29.7120   14.9293 H         1 UNK         0.0798 
    106 H106      -51.2203  -28.4681   15.1986 H         1 UNK         0.3198 
    107 H107      -53.8852  -28.2902   17.4771 H         1 UNK         0.0843 
    108 H108      -52.3782  -26.7677   18.7744 H         1 UNK         0.0831 
    109 H109      -50.9685  -27.5642   18.0769 H         1 UNK         0.0831 
    110 H110      -52.0564  -28.4586   19.1274 H         1 UNK         0.0831 
    111 H111      -52.1511  -26.3371   16.2212 H         1 UNK         0.3133 
    112 H112      -53.1111  -26.2035   13.3228 H         1 UNK         0.0566 
    113 H113      -55.5556  -26.0613   13.1335 H         1 UNK         0.0814 
    114 H114      -55.6351  -24.8608   14.4103 H         1 UNK         0.0814 
    115 H115      -54.8521  -24.4753   12.8762 H         1 UNK         0.0814 
    116 H116      -51.8929  -24.6354   14.1924 H         1 UNK         0.3091 
    117 H117      -52.1127  -21.9598   15.2833 H         1 UNK         0.0702 
    118 H118      -51.2840  -21.4988   17.6032 H         1 UNK         0.0785 
    119 H119      -51.9630  -23.0319   18.1495 H         1 UNK         0.0785 
    120 H120      -53.0198  -21.7530   17.5690 H         1 UNK         0.0785 
    121 H121      -50.0575  -22.7021   15.0549 H         1 UNK         0.2998 
    122 H122      -47.9042  -24.2380   16.7451 H         1 UNK         0.0697 
    123 H123      -47.1579  -26.2751   15.4878 H         1 UNK         0.0825 
    124 H124      -48.4323  -26.6492   16.6340 H         1 UNK         0.0825 
    125 H125      -48.8062  -26.5277   14.9209 H         1 UNK         0.0825 
    126 H126      -48.0293  -24.4238   13.8381 H         1 UNK         0.3029 
    127 H127      -47.6043  -20.9254   13.2940 H         1 UNK         0.0897 
    128 H128      -45.8491  -21.8567   11.7390 H         1 UNK         0.0792 
    129 H129      -45.2910  -21.7404   13.4015 H         1 UNK         0.0792 
    130 H130      -45.7495  -23.3013   12.7464 H         1 UNK         0.0792 
    131 H131      -48.0169  -23.0669   11.4655 H         1 UNK         0.3086 
    132 H132      -51.5618  -23.3145   11.8882 H         1 UNK         0.0583 
    133 H133      -51.0565  -21.3489   10.2338 H         1 UNK         0.1020 
    134 H134      -50.0975  -22.4915    9.3317 H         1 UNK         0.1020 
    135 H135      -51.5958  -23.9667    7.2763 H         1 UNK         0.0694 
    136 H136      -51.0011  -24.8301    8.6667 H         1 UNK         0.0694 
    137 H137      -49.5528  -24.6364   10.2475 H         1 UNK         0.2989 
    138 H138      -49.0614  -27.3171   12.5253 H         1 UNK         0.1055 
    139 H139      -50.5490  -27.2142    9.8416 H         1 UNK         0.0806 
    140 H140      -51.1262  -27.9475   11.3253 H         1 UNK         0.0806 
    141 H141      -49.7318  -28.6307   10.5039 H         1 UNK         0.0806 
    142 H142      -48.0788  -26.6659    9.8826 H         1 UNK         0.3061 
    143 H143      -45.2636  -24.8047   11.0122 H         1 UNK         0.0734 
    144 H144      -43.9002  -26.6010    9.9810 H         1 UNK         0.0832 
    145 H145      -44.4972  -27.1259   11.5453 H         1 UNK         0.0832 
    146 H146      -45.2562  -27.7266   10.0780 H         1 UNK         0.0832 
    147 H147      -45.7904  -25.8809    8.4671 H         1 UNK         0.3156 
    148 H148      -48.3213  -23.7636    7.3013 H         1 UNK         0.0589 
    149 H149      -45.3290  -23.5614    6.6530 H         1 UNK         0.0808 
    150 H150      -46.6554  -23.0355    5.6147 H         1 UNK         0.0808 
    151 H151      -46.3584  -22.2226    7.1412 H         1 UNK         0.0808 
    152 H152      -46.6610  -25.5616    5.8929 H         1 UNK         0.3098 
    153 H153      -47.4339  -27.5333    5.2055 H         1 UNK         0.0720 
    154 H154      -46.2189  -28.5428    7.1501 H         1 UNK         0.0791 
    155 H155      -47.7383  -29.0892    7.8503 H         1 UNK         0.0791 
    156 H156      -47.1663  -29.7754    6.3315 H         1 UNK         0.0791 
    157 H157      -49.9978  -28.0276    6.5661 H         1 UNK         0.3028 
@<TRIPOS>BOND
     1    1    2 1    
     2    1   82 1    
     3    1   83 1    
     4    1   84 1    
     5    2    3 2    
     6    2    4 am   BACKBONE|DICT|INTERRES
     7    4    5 1    
     8    4   85 1    
     9    5    6 1    
    10    5   80 1    
    11    5   86 1    
    12    6    7 1    
    13    6   87 1    
    14    6   88 1    
    15    7    8 1    
    16    8    9 1    
    17    8   89 1    
    18    8   90 1    
    19    9   10 ar   
    20    9   14 ar   
    21   10   11 ar   
    22   10   91 1    
    23   11   12 ar   
    24   11   58 1    
    25   12   13 ar   
    26   12   92 1    
    27   13   14 ar   
    28   13   15 1    
    29   14   93 1    
    30   15   16 1    
    31   15   94 1    
    32   15   95 1    
    33   16   17 1    
    34   17   18 1    
    35   17   96 1    
    36   17   97 1    
    37   18   19 1    
    38   18   22 1    
    39   18   98 1    
    40   19   20 am   BACKBONE|DICT|INTERRES
    41   19   21 2    
    42   20   99 1    
    43   20  100 1    
    44   22   23 am   BACKBONE|DICT|INTERRES
    45   22  101 1    
    46   23   24 2    
    47   23   25 1    
    48   25   26 1    
    49   25   27 1    
    50   25  102 1    
    51   26  103 1    
    52   26  104 1    
    53   26  105 1    
    54   27   28 am   BACKBONE|DICT|INTERRES
    55   27  106 1    
    56   28   29 2    
    57   28   30 1    
    58   30   31 1    
    59   30   32 1    
    60   30  107 1    
    61   31  108 1    
    62   31  109 1    
    63   31  110 1    
    64   32   33 am   BACKBONE|DICT|INTERRES
    65   32  111 1    
    66   33   34 2    
    67   33   35 1    
    68   35   36 1    
    69   35   37 1    
    70   35  112 1    
    71   36  113 1    
    72   36  114 1    
    73   36  115 1    
    74   37   38 am   BACKBONE|DICT|INTERRES
    75   37  116 1    
    76   38   39 2    
    77   38   40 1    
    78   40   41 1    
    79   40   42 1    
    80   40  117 1    
    81   41  118 1    
    82   41  119 1    
    83   41  120 1    
    84   42   43 am   BACKBONE|DICT|INTERRES
    85   42  121 1    
    86   43   44 2    
    87   43   45 1    
    88   45   46 1    
    89   45   47 1    
    90   45  122 1    
    91   46  123 1    
    92   46  124 1    
    93   46  125 1    
    94   47   48 am   BACKBONE|DICT|INTERRES
    95   47  126 1    
    96   48   49 2    
    97   48   50 1    
    98   50   51 1    
    99   50   52 1    
   100   50  127 1    
   101   51  128 1    
   102   51  129 1    
   103   51  130 1    
   104   52   53 am   BACKBONE|DICT|INTERRES
   105   52  131 1    
   106   53   54 2    
   107   53   55 1    
   108   55   56 1    
   109   55   59 1    
   110   55  132 1    
   111   56   57 1    
   112   56  133 1    
   113   56  134 1    
   114   57   58 1    
   115   58  135 1    
   116   58  136 1    
   117   59   60 am   BACKBONE|DICT|INTERRES
   118   59  137 1    
   119   60   61 2    
   120   60   62 1    
   121   62   63 1    
   122   62   64 1    
   123   62  138 1    
   124   63  139 1    
   125   63  140 1    
   126   63  141 1    
   127   64   65 am   BACKBONE|DICT|INTERRES
   128   64  142 1    
   129   65   66 2    
   130   65   67 1    
   131   67   68 1    
   132   67   69 1    
   133   67  143 1    
   134   68  144 1    
   135   68  145 1    
   136   68  146 1    
   137   69   70 am   BACKBONE|DICT|INTERRES
   138   69  147 1    
   139   70   71 2    
   140   70   72 1    
   141   72   73 1    
   142   72   74 1    
   143   72  148 1    
   144   73  149 1    
   145   73  150 1    
   146   73  151 1    
   147   74   75 am   BACKBONE|DICT|INTERRES
   148   74  152 1    
   149   75   76 2    
   150   75   77 1    
   151   77   78 1    
   152   77   79 1    
   153   77  153 1    
   154   78  154 1    
   155   78  155 1    
   156   78  156 1    
   157   79   80 am   BACKBONE|DICT|INTERRES
   158   79  157 1    
   159   80   81 2    
@<TRIPOS>SUBSTRUCTURE
     1 UNK         1 GROUP             0       ****    0 ROOT    
