@<TRIPOS>MOLECULE
3R207
157   159    1
SMALL
USER_CHARGES


@<TRIPOS>ATOM
      1 CA        -44.8222  -30.3066    7.6750 C.3       0 UNK        -0.1975 
      2 C         -46.0539  -29.8307    6.9198 C.2       0 UNK         0.4852 
      3 O         -46.0161  -29.7175    5.6935 O.2       0 UNK        -0.5216 
      4 N         -47.1439  -29.5386    7.6415 N.am      1 UNK        -0.4461 
      5 CA        -48.4418  -29.0870    7.1204 C.3       1 UNK         0.0864 
      6 C6        -49.5745  -29.3314    8.1497 C.3       14 UNK        -0.0898 
      7 S7        -49.8224  -31.1008    8.5192 S.3       14 UNK        -0.2598 
      8 C8        -50.5147  -31.0344   10.2035 C.3       14 UNK         0.0286 
      9 C9        -51.7753  -30.1827   10.2699 C.ar      14 UNK        -0.0844 
     10 C10       -51.7126  -28.8809   10.7740 C.ar      14 UNK        -0.0881 
     11 C11       -52.8564  -28.0795   10.8260 C.ar      14 UNK        -0.0643 
     12 C12       -54.0741  -28.5956   10.3770 C.ar      14 UNK        -0.0930 
     13 C13       -54.1561  -29.9067    9.8985 C.ar      14 UNK        -0.0827 
     14 C14       -53.0028  -30.6950    9.8398 C.ar      14 UNK        -0.1249 
     15 C15       -55.5002  -30.4694    9.4719 C.3       14 UNK         0.0141 
     16 S16       -56.4821  -30.9360   10.9320 S.3       14 UNK        -0.2313 
     17 C17       -58.1337  -30.3394   10.4424 C.3       14 UNK        -0.0915 
     18 CA        -58.3561  -28.8317   10.7704 C.3       13 UNK         0.0968 
     19 C         -59.7004  -28.2855   10.1978 C.2       13 UNK         0.5732 
     20 N         -60.3487  -27.3196   10.8383 N.am      13 UNK        -0.7310 
     21 O         -60.1502  -28.7148    9.1376 O.2       13 UNK        -0.5035 
     22 N         -58.1062  -28.4942   12.1846 N.am      13 UNK        -0.4233 
     23 C         -58.7865  -28.9406   13.2469 C.2       13 UNK         0.4989 
     24 O         -59.7253  -29.7364   13.1793 O.2       13 UNK        -0.4996 
     25 CA        -58.3376  -28.3930   14.6172 C.3       12 UNK         0.0216 
     26 CB        -59.2381  -28.8739   15.7715 C.3       12 UNK        -0.1964 
     27 N         -56.9458  -28.7284   14.9336 N.am      12 UNK        -0.4276 
     28 C         -55.8637  -28.1260   14.4255 C.2       12 UNK         0.5020 
     29 O         -55.9119  -27.2472   13.5595 O.2       12 UNK        -0.5489 
     30 CA        -54.5040  -28.6087   14.9594 C.3       11 UNK         0.0294 
     31 CB        -53.9548  -29.7543   14.0943 C.3       11 UNK        -0.2019 
     32 N         -53.5224  -27.5224   15.0102 N.am      11 UNK        -0.4493 
     33 C         -53.5613  -26.5020   15.8797 C.2       11 UNK         0.4932 
     34 O         -54.4184  -26.3931   16.7592 O.2       11 UNK        -0.5029 
     35 CA        -52.4541  -25.4327   15.7490 C.3       10 UNK         0.0280 
     36 CB        -52.3175  -24.5500   17.0073 C.3       10 UNK        -0.1976 
     37 N         -51.1448  -25.9732   15.3624 N.am      10 UNK        -0.4242 
     38 C         -50.4274  -26.9116   15.9998 C.2       10 UNK         0.5072 
     39 O         -50.7815  -27.4730   17.0375 O.2       10 UNK        -0.5224 
     40 CA        -49.0854  -27.3034   15.3594 C.3       9 UNK         0.0343 
     41 CB        -49.3166  -28.2551   14.1736 C.3       9 UNK        -0.2003 
     42 N         -48.2806  -26.1544   14.9295 N.am      9 UNK        -0.4272 
     43 C         -47.7221  -25.2654   15.7664 C.2       9 UNK         0.4988 
     44 O         -47.8375  -25.3111   16.9918 O.2       9 UNK        -0.5108 
     45 CA        -46.8689  -24.1474   15.1414 C.3       8 UNK         0.0248 
     46 CB        -45.4887  -24.6836   14.7271 C.3       8 UNK        -0.2001 
     47 N         -47.5157  -23.5125   13.9932 N.am      8 UNK        -0.4140 
     48 C         -48.5894  -22.7126   14.0687 C.2       8 UNK         0.5028 
     49 O         -49.0990  -22.3437   15.1275 O.2       8 UNK        -0.5428 
     50 CA        -49.2278  -22.2761   12.7343 C.3       7 UNK         0.0264 
     51 CB        -48.5190  -21.0355   12.1707 C.3       7 UNK        -0.1988 
     52 N         -49.2538  -23.3458   11.7274 N.am      7 UNK        -0.4454 
     53 C         -49.8784  -24.5193   11.9129 C.2       7 UNK         0.5027 
     54 O         -50.5081  -24.7937   12.9341 O.2       7 UNK        -0.5083 
     55 CA        -49.7180  -25.6069   10.8327 C.3       6 UNK         0.0844 
     56 C56       -50.7787  -25.5521    9.7018 C.3       14 UNK        -0.0967 
     57 S57       -52.5348  -25.3740   10.1944 S.3       14 UNK        -0.2604 
     58 C58       -52.8003  -26.6869   11.4333 C.3       14 UNK         0.0134 
     59 N         -48.3483  -25.6343   10.3146 N.am      6 UNK        -0.4116 
     60 C         -47.2975  -26.0834   11.0175 C.2       5 UNK         0.5034 
     61 O         -47.3891  -26.5761   12.1414 O.2       5 UNK        -0.5045 
     62 CA        -45.9045  -25.9023   10.3933 C.3       5 UNK         0.0224 
     63 CB        -45.6004  -27.0110    9.3778 C.3       5 UNK        -0.1978 
     64 N         -45.7413  -24.5914    9.7630 N.am      5 UNK        -0.4737 
     65 C         -45.7235  -23.4398   10.4495 C.2       4 UNK         0.5027 
     66 O         -45.7992  -23.3793   11.6755 O.2       4 UNK        -0.5211 
     67 CA        -45.6465  -22.1323    9.6453 C.3       4 UNK         0.0297 
     68 CB        -44.1833  -21.6908    9.4876 C.3       4 UNK        -0.1993 
     69 N         -46.2774  -22.1980    8.3268 N.am      4 UNK        -0.4486 
     70 C         -47.5478  -22.5380    8.0663 C.2       3 UNK         0.4961 
     71 O         -48.3662  -22.8698    8.9270 O.2       3 UNK        -0.5105 
     72 CA        -47.9686  -22.5168    6.5846 C.3       3 UNK         0.0299 
     73 CB        -47.1045  -21.5767    5.7140 C.3       3 UNK        -0.1972 
     74 N         -48.0216  -23.8444    5.9608 N.am      3 UNK        -0.4305 
     75 C         -47.1147  -24.8328    6.0132 C.2       2 UNK         0.5006 
     76 O         -46.1093  -24.8353    6.7284 O.2       2 UNK        -0.5106 
     77 CA        -47.3567  -26.0063    5.0469 C.3       2 UNK         0.0296 
     78 CB        -46.2252  -26.0918    4.0091 C.3       2 UNK        -0.2002 
     79 N         -47.4868  -27.2987    5.7196 N.am      2 UNK        -0.4032 
     80 C         -48.4167  -27.6185    6.6271 C.2       1 UNK         0.5000 
     81 O         -49.2403  -26.8087    7.0549 O.2       1 UNK        -0.5238 
     82 H82       -44.4976  -31.2734    7.2911 H         1 UNK         0.0889 
     83 H83       -45.0134  -30.4136    8.7426 H         1 UNK         0.0889 
     84 H84       -44.0062  -29.5962    7.5453 H         1 UNK         0.0889 
     85 H85       -47.1131  -29.6684    8.6420 H         1 UNK         0.3028 
     86 H86       -48.6715  -29.6893    6.2384 H         1 UNK         0.0864 
     87 H87       -50.5286  -28.9491    7.7805 H         1 UNK         0.0720 
     88 H88       -49.3615  -28.7903    9.0733 H         1 UNK         0.0720 
     89 H89       -49.7554  -30.6556   10.8896 H         1 UNK         0.0814 
     90 H90       -50.7422  -32.0491   10.5335 H         1 UNK         0.0814 
     91 H91       -50.7688  -28.5025   11.1325 H         1 UNK         0.1469 
     92 H92       -54.9669  -27.9883   10.4363 H         1 UNK         0.1381 
     93 H93       -53.0587  -31.7080    9.4649 H         1 UNK         0.1206 
     94 H94       -55.3733  -31.3420    8.8295 H         1 UNK         0.0813 
     95 H95       -56.0260  -29.7226    8.8755 H         1 UNK         0.0813 
     96 H96       -58.8805  -30.9544   10.9464 H         1 UNK         0.0638 
     97 H97       -58.2624  -30.5316    9.3757 H         1 UNK         0.0638 
     98 H98       -57.5978  -28.2760   10.2189 H         1 UNK         0.0568 
     99 H99       -61.2102  -26.9656   10.4535 H         1 UNK         0.3450 
    100 H100      -59.9863  -26.9423   11.6987 H         1 UNK         0.3450 
    101 H101      -57.3256  -27.8696   12.3672 H         1 UNK         0.2987 
    102 H102      -58.4251  -27.3053   14.5672 H         1 UNK         0.0766 
    103 H103      -58.9470  -28.4190   16.7187 H         1 UNK         0.0798 
    104 H104      -59.1983  -29.9573   15.8924 H         1 UNK         0.0798 
    105 H105      -60.2800  -28.6038   15.5936 H         1 UNK         0.0798 
    106 H106      -56.8113  -29.4740   15.6019 H         1 UNK         0.3198 
    107 H107      -54.6406  -28.9818   15.9770 H         1 UNK         0.0843 
    108 H108      -54.6430  -30.6005   14.0820 H         1 UNK         0.0831 
    109 H109      -52.9997  -30.1194   14.4724 H         1 UNK         0.0831 
    110 H110      -53.8109  -29.4468   13.0599 H         1 UNK         0.0831 
    111 H111      -52.8015  -27.5257   14.3060 H         1 UNK         0.3133 
    112 H112      -52.7613  -24.7846   14.9269 H         1 UNK         0.0566 
    113 H113      -51.5507  -23.7866   16.8723 H         1 UNK         0.0814 
    114 H114      -53.2522  -24.0335   17.2291 H         1 UNK         0.0814 
    115 H115      -52.0531  -25.1390   17.8861 H         1 UNK         0.0814 
    116 H116      -50.7612  -25.5759   14.5037 H         1 UNK         0.3091 
    117 H117      -48.5082  -27.8440   16.1126 H         1 UNK         0.0702 
    118 H118      -48.3727  -28.6184   13.7670 H         1 UNK         0.0785 
    119 H119      -49.8629  -27.7675   13.3673 H         1 UNK         0.0785 
    120 H120      -49.8949  -29.1283   14.4789 H         1 UNK         0.0785 
    121 H121      -48.0855  -26.0829   13.9356 H         1 UNK         0.2998 
    122 H122      -46.7151  -23.3815   15.9046 H         1 UNK         0.0697 
    123 H123      -45.5643  -25.4306   13.9361 H         1 UNK         0.0825 
    124 H124      -44.9806  -25.1509   15.5717 H         1 UNK         0.0825 
    125 H125      -44.8456  -23.8812   14.3651 H         1 UNK         0.0825 
    126 H126      -47.0993  -23.6840   13.0818 H         1 UNK         0.3029 
    127 H127      -50.2664  -22.0076   12.9398 H         1 UNK         0.0897 
    128 H128      -48.9118  -20.7548   11.1931 H         1 UNK         0.0792 
    129 H129      -48.6551  -20.1808   12.8346 H         1 UNK         0.0792 
    130 H130      -47.4463  -21.1962   12.0745 H         1 UNK         0.0792 
    131 H131      -48.7848  -23.1732   10.8423 H         1 UNK         0.3086 
    132 H132      -49.8628  -26.5532   11.3487 H         1 UNK         0.0583 
    133 H133      -50.5478  -24.7319    9.0195 H         1 UNK         0.1020 
    134 H134      -50.7087  -26.4602    9.1033 H         1 UNK         0.1020 
    135 H135      -52.0413  -26.6515   12.2114 H         1 UNK         0.0694 
    136 H136      -53.7427  -26.4809   11.9433 H         1 UNK         0.0694 
    137 H137      -48.1876  -25.1812    9.4249 H         1 UNK         0.2989 
    138 H138      -45.1752  -25.9785   11.2033 H         1 UNK         0.1055 
    139 H139      -45.7176  -27.9964    9.8301 H         1 UNK         0.0806 
    140 H140      -44.5761  -26.9421    9.0113 H         1 UNK         0.0806 
    141 H141      -46.2645  -26.9568    8.5165 H         1 UNK         0.0806 
    142 H142      -45.7087  -24.5610    8.7476 H         1 UNK         0.3061 
    143 H143      -46.1713  -21.3628   10.2114 H         1 UNK         0.0734 
    144 H144      -43.6944  -21.6088   10.4596 H         1 UNK         0.0832 
    145 H145      -43.6086  -22.4026    8.8934 H         1 UNK         0.0832 
    146 H146      -44.1105  -20.7144    9.0083 H         1 UNK         0.0832 
    147 H147      -45.6855  -21.9842    7.5375 H         1 UNK         0.3156 
    148 H148      -48.9883  -22.1286    6.5702 H         1 UNK         0.0589 
    149 H149      -46.0910  -21.9553    5.5752 H         1 UNK         0.0808 
    150 H150      -47.5424  -21.4544    4.7232 H         1 UNK         0.0808 
    151 H151      -47.0345  -20.5802    6.1529 H         1 UNK         0.0808 
    152 H152      -48.8345  -24.0017    5.3814 H         1 UNK         0.3098 
    153 H153      -48.2903  -25.8310    4.5083 H         1 UNK         0.0720 
    154 H154      -46.1103  -25.1468    3.4762 H         1 UNK         0.0791 
    155 H155      -46.4263  -26.8615    3.2636 H         1 UNK         0.0791 
    156 H156      -45.2669  -26.3210    4.4775 H         1 UNK         0.0791 
    157 H157      -46.8279  -28.0282    5.4592 H         1 UNK         0.3028 
@<TRIPOS>BOND
     1    1    2 1    
     2    1   82 1    
     3    1   83 1    
     4    1   84 1    
     5    2    3 2    
     6    2    4 am   BACKBONE|DICT|INTERRES
     7    4    5 1    
     8    4   85 1    
     9    5    6 1    
    10    5   80 1    
    11    5   86 1    
    12    6    7 1    
    13    6   87 1    
    14    6   88 1    
    15    7    8 1    
    16    8    9 1    
    17    8   89 1    
    18    8   90 1    
    19    9   10 ar   
    20    9   14 ar   
    21   10   11 ar   
    22   10   91 1    
    23   11   12 ar   
    24   11   58 1    
    25   12   13 ar   
    26   12   92 1    
    27   13   14 ar   
    28   13   15 1    
    29   14   93 1    
    30   15   16 1    
    31   15   94 1    
    32   15   95 1    
    33   16   17 1    
    34   17   18 1    
    35   17   96 1    
    36   17   97 1    
    37   18   19 1    
    38   18   22 1    
    39   18   98 1    
    40   19   20 am   BACKBONE|DICT|INTERRES
    41   19   21 2    
    42   20   99 1    
    43   20  100 1    
    44   22   23 am   BACKBONE|DICT|INTERRES
    45   22  101 1    
    46   23   24 2    
    47   23   25 1    
    48   25   26 1    
    49   25   27 1    
    50   25  102 1    
    51   26  103 1    
    52   26  104 1    
    53   26  105 1    
    54   27   28 am   BACKBONE|DICT|INTERRES
    55   27  106 1    
    56   28   29 2    
    57   28   30 1    
    58   30   31 1    
    59   30   32 1    
    60   30  107 1    
    61   31  108 1    
    62   31  109 1    
    63   31  110 1    
    64   32   33 am   BACKBONE|DICT|INTERRES
    65   32  111 1    
    66   33   34 2    
    67   33   35 1    
    68   35   36 1    
    69   35   37 1    
    70   35  112 1    
    71   36  113 1    
    72   36  114 1    
    73   36  115 1    
    74   37   38 am   BACKBONE|DICT|INTERRES
    75   37  116 1    
    76   38   39 2    
    77   38   40 1    
    78   40   41 1    
    79   40   42 1    
    80   40  117 1    
    81   41  118 1    
    82   41  119 1    
    83   41  120 1    
    84   42   43 am   BACKBONE|DICT|INTERRES
    85   42  121 1    
    86   43   44 2    
    87   43   45 1    
    88   45   46 1    
    89   45   47 1    
    90   45  122 1    
    91   46  123 1    
    92   46  124 1    
    93   46  125 1    
    94   47   48 am   BACKBONE|DICT|INTERRES
    95   47  126 1    
    96   48   49 2    
    97   48   50 1    
    98   50   51 1    
    99   50   52 1    
   100   50  127 1    
   101   51  128 1    
   102   51  129 1    
   103   51  130 1    
   104   52   53 am   BACKBONE|DICT|INTERRES
   105   52  131 1    
   106   53   54 2    
   107   53   55 1    
   108   55   56 1    
   109   55   59 1    
   110   55  132 1    
   111   56   57 1    
   112   56  133 1    
   113   56  134 1    
   114   57   58 1    
   115   58  135 1    
   116   58  136 1    
   117   59   60 am   BACKBONE|DICT|INTERRES
   118   59  137 1    
   119   60   61 2    
   120   60   62 1    
   121   62   63 1    
   122   62   64 1    
   123   62  138 1    
   124   63  139 1    
   125   63  140 1    
   126   63  141 1    
   127   64   65 am   BACKBONE|DICT|INTERRES
   128   64  142 1    
   129   65   66 2    
   130   65   67 1    
   131   67   68 1    
   132   67   69 1    
   133   67  143 1    
   134   68  144 1    
   135   68  145 1    
   136   68  146 1    
   137   69   70 am   BACKBONE|DICT|INTERRES
   138   69  147 1    
   139   70   71 2    
   140   70   72 1    
   141   72   73 1    
   142   72   74 1    
   143   72  148 1    
   144   73  149 1    
   145   73  150 1    
   146   73  151 1    
   147   74   75 am   BACKBONE|DICT|INTERRES
   148   74  152 1    
   149   75   76 2    
   150   75   77 1    
   151   77   78 1    
   152   77   79 1    
   153   77  153 1    
   154   78  154 1    
   155   78  155 1    
   156   78  156 1    
   157   79   80 am   BACKBONE|DICT|INTERRES
   158   79  157 1    
   159   80   81 2    
@<TRIPOS>SUBSTRUCTURE
     1 UNK         1 GROUP             0       ****    0 ROOT    
