@<TRIPOS>MOLECULE
3R207
157   159    1
SMALL
USER_CHARGES


@<TRIPOS>ATOM
      1 CA        -45.8772  -30.4338    7.3922 C.3       0 UNK        -0.1975 
      2 C         -46.7460  -30.0321    6.2095 C.2       0 UNK         0.4852 
      3 O         -46.2370  -29.8999    5.0960 O.2       0 UNK        -0.5216 
      4 N         -48.0526  -29.8467    6.4430 N.am      1 UNK        -0.4461 
      5 CA        -49.0530  -29.4828    5.4291 C.3       1 UNK         0.0864 
      6 C6        -50.4946  -29.5920    5.9819 C.3       14 UNK        -0.0898 
      7 S7        -50.8868  -31.2542    6.6219 S.3       14 UNK        -0.2598 
      8 C8        -52.5906  -31.0104    7.2177 C.3       14 UNK         0.0286 
      9 C9        -52.6449  -30.1022    8.4384 C.ar      14 UNK        -0.0844 
     10 C10       -52.9573  -28.7468    8.2962 C.ar      14 UNK        -0.0881 
     11 C11       -53.0089  -27.9083    9.4129 C.ar      14 UNK        -0.0643 
     12 C12       -52.7486  -28.4350   10.6797 C.ar      14 UNK        -0.0930 
     13 C13       -52.4612  -29.7947   10.8395 C.ar      14 UNK        -0.0827 
     14 C14       -52.4017  -30.6215    9.7134 C.ar      14 UNK        -0.1249 
     15 C15       -52.2388  -30.3756   12.2289 C.3       14 UNK         0.0141 
     16 S16       -53.6157  -30.0065   13.3667 S.3       14 UNK        -0.2313 
     17 C17       -55.0034  -30.9310   12.6199 C.3       14 UNK        -0.0915 
     18 CA        -55.8084  -30.1374   11.5507 C.3       13 UNK         0.0968 
     19 C         -57.0096  -30.9768   11.0264 C.2       13 UNK         0.5732 
     20 N         -58.2529  -30.5414   11.1944 N.am      13 UNK        -0.7310 
     21 O         -56.8094  -32.0445   10.4522 O.2       13 UNK        -0.5035 
     22 N         -56.1483  -28.7759   11.9996 N.am      13 UNK        -0.4233 
     23 C         -56.4506  -27.7565   11.1839 C.2       13 UNK         0.4989 
     24 O         -56.5201  -27.8595    9.9590 O.2       13 UNK        -0.4996 
     25 CA        -56.7436  -26.3865   11.8254 C.3       12 UNK         0.0216 
     26 CB        -58.2308  -26.0263   11.6659 C.3       12 UNK        -0.1964 
     27 N         -56.3858  -26.3010   13.2450 N.am      12 UNK        -0.4276 
     28 C         -55.1452  -26.1172   13.7137 C.2       12 UNK         0.5020 
     29 O         -54.1435  -26.0067   13.0027 O.2       12 UNK        -0.5489 
     30 CA        -55.0129  -26.0609   15.2394 C.3       11 UNK         0.0294 
     31 CB        -55.1182  -27.4670   15.8614 C.3       11 UNK        -0.2019 
     32 N         -53.7305  -25.4620   15.5926 N.am      11 UNK        -0.4493 
     33 C         -53.4385  -24.8935   16.7686 C.2       11 UNK         0.4932 
     34 O         -54.2533  -24.7596   17.6840 O.2       11 UNK        -0.5029 
     35 CA        -51.9864  -24.4132   16.9485 C.3       10 UNK         0.0280 
     36 CB        -51.6431  -24.0151   18.3995 C.3       10 UNK        -0.1976 
     37 N         -51.0247  -25.3865   16.4236 N.am      10 UNK        -0.4242 
     38 C         -50.8185  -26.6482   16.8310 C.2       10 UNK         0.5072 
     39 O         -51.3733  -27.1688   17.7997 O.2       10 UNK        -0.5224 
     40 CA        -49.8251  -27.4814   16.0022 C.3       9 UNK         0.0343 
     41 CB        -50.5660  -28.2317   14.8846 C.3       9 UNK        -0.2003 
     42 N         -48.7508  -26.6766   15.4148 N.am      9 UNK        -0.4272 
     43 C         -47.7647  -26.1010   16.1183 C.2       9 UNK         0.4988 
     44 O         -47.6058  -26.2546   17.3300 O.2       9 UNK        -0.5108 
     45 CA        -46.8017  -25.1841   15.3453 C.3       8 UNK         0.0248 
     46 CB        -45.7316  -26.0116   14.6157 C.3       8 UNK        -0.2001 
     47 N         -47.4908  -24.3035   14.3964 N.am      8 UNK        -0.4140 
     48 C         -48.3457  -23.3311   14.7499 C.2       8 UNK         0.5028 
     49 O         -48.6033  -23.0351   15.9167 O.2       8 UNK        -0.5428 
     50 CA        -49.0552  -22.5695   13.6180 C.3       7 UNK         0.0264 
     51 CB        -48.1497  -21.4624   13.0558 C.3       7 UNK        -0.1988 
     52 N         -49.5043  -23.4397   12.5295 N.am      7 UNK        -0.4454 
     53 C         -50.4298  -24.4042   12.6485 C.2       7 UNK         0.5027 
     54 O         -51.0378  -24.6427   13.6916 O.2       7 UNK        -0.5083 
     55 CA        -50.6848  -25.2767   11.4028 C.3       6 UNK         0.0844 
     56 C56       -51.6288  -24.5429   10.4185 C.3       14 UNK        -0.0967 
     57 S57       -51.9190  -25.4352    8.8533 S.3       14 UNK        -0.2604 
     58 C58       -53.3794  -26.4438    9.2479 C.3       14 UNK         0.0134 
     59 N         -49.4258  -25.7164   10.7919 N.am      6 UNK        -0.4116 
     60 C         -48.4998  -26.4644   11.4114 C.2       5 UNK         0.5034 
     61 O         -48.6267  -26.9218   12.5466 O.2       5 UNK        -0.5045 
     62 CA        -47.1775  -26.6849   10.6654 C.3       5 UNK         0.0224 
     63 CB        -47.2888  -27.8604    9.6810 C.3       5 UNK        -0.1978 
     64 N         -46.7513  -25.4703    9.9662 N.am      5 UNK        -0.4737 
     65 C         -46.2726  -24.3810   10.5852 C.2       4 UNK         0.5027 
     66 O         -46.0954  -24.3132   11.8006 O.2       4 UNK        -0.5211 
     67 CA        -45.9797  -23.1467    9.7139 C.3       4 UNK         0.0297 
     68 CB        -44.5657  -23.2322    9.1188 C.3       4 UNK        -0.1993 
     69 N         -46.9547  -22.9605    8.6369 N.am      4 UNK        -0.4486 
     70 C         -48.2563  -22.7019    8.8266 C.2       3 UNK         0.4961 
     71 O         -48.7626  -22.5237    9.9336 O.2       3 UNK        -0.5105 
     72 CA        -49.1579  -22.6899    7.5783 C.3       3 UNK         0.0299 
     73 CB        -49.2619  -21.2667    7.0085 C.3       3 UNK        -0.1972 
     74 N         -48.7473  -23.6166    6.5138 N.am      3 UNK        -0.4305 
     75 C         -48.5646  -24.9356    6.6663 C.2       2 UNK         0.5006 
     76 O         -48.6457  -25.5201    7.7500 O.2       2 UNK        -0.5106 
     77 CA        -48.1798  -25.7274    5.4124 C.3       2 UNK         0.0296 
     78 CB        -46.7059  -25.4905    5.0382 C.3       2 UNK        -0.2002 
     79 N         -48.3832  -27.1423    5.6991 N.am      2 UNK        -0.4032 
     80 C         -48.8261  -28.0715    4.8459 C.2       1 UNK         0.5000 
     81 O         -49.0620  -27.8571    3.6550 O.2       1 UNK        -0.5238 
     82 H82       -46.4608  -30.5610    8.3038 H         1 UNK         0.0889 
     83 H83       -45.1184  -29.6737    7.5758 H         1 UNK         0.0889 
     84 H84       -45.3712  -31.3757    7.1820 H         1 UNK         0.0889 
     85 H85       -48.4208  -30.0140    7.3685 H         1 UNK         0.3028 
     86 H86       -48.9514  -30.1899    4.6029 H         1 UNK         0.0864 
     87 H87       -51.2229  -29.3491    5.2054 H         1 UNK         0.0720 
     88 H88       -50.6409  -28.8666    6.7840 H         1 UNK         0.0720 
     89 H89       -53.0182  -31.9824    7.4685 H         1 UNK         0.0814 
     90 H90       -53.2056  -30.6094    6.4104 H         1 UNK         0.0814 
     91 H91       -53.1588  -28.3402    7.3147 H         1 UNK         0.1469 
     92 H92       -52.8102  -27.7958   11.5494 H         1 UNK         0.1381 
     93 H93       -52.1743  -31.6728    9.8263 H         1 UNK         0.1206 
     94 H94       -52.0937  -31.4560   12.1858 H         1 UNK         0.0813 
     95 H95       -51.3189  -29.9572   12.6368 H         1 UNK         0.0813 
     96 H96       -55.6636  -31.2305   13.4358 H         1 UNK         0.0638 
     97 H97       -54.6133  -31.8568   12.1930 H         1 UNK         0.0638 
     98 H98       -55.1610  -30.0229   10.6814 H         1 UNK         0.0568 
     99 H99       -58.4295  -29.6664   11.6597 H         1 UNK         0.3450 
    100 H100      -59.0203  -31.0943   10.8470 H         1 UNK         0.3450 
    101 H101      -56.0990  -28.6109   12.9923 H         1 UNK         0.2987 
    102 H102      -56.1562  -25.6463   11.2776 H         1 UNK         0.0766 
    103 H103      -58.5270  -26.0404   10.6158 H         1 UNK         0.0798 
    104 H104      -58.4394  -25.0250   12.0432 H         1 UNK         0.0798 
    105 H105      -58.8774  -26.7272   12.1953 H         1 UNK         0.0798 
    106 H106      -57.1469  -26.3775   13.9054 H         1 UNK         0.3198 
    107 H107      -55.8170  -25.4294   15.6237 H         1 UNK         0.0843 
    108 H108      -55.1079  -27.4200   16.9504 H         1 UNK         0.0831 
    109 H109      -54.2876  -28.1020   15.5526 H         1 UNK         0.0831 
    110 H110      -56.0423  -27.9680   15.5719 H         1 UNK         0.0831 
    111 H111      -53.0391  -25.4768   14.8486 H         1 UNK         0.3133 
    112 H112      -51.8795  -23.5216   16.3289 H         1 UNK         0.0566 
    113 H113      -50.6104  -23.6750   18.4804 H         1 UNK         0.0814 
    114 H114      -51.7791  -24.8456   19.0928 H         1 UNK         0.0814 
    115 H115      -52.2812  -23.1994   18.7410 H         1 UNK         0.0814 
    116 H116      -50.5787  -25.1042   15.5561 H         1 UNK         0.3091 
    117 H117      -49.3722  -28.2192   16.6677 H         1 UNK         0.0702 
    118 H118      -49.8875  -28.8789   14.3290 H         1 UNK         0.0785 
    119 H119      -51.0308  -27.5461   14.1742 H         1 UNK         0.0785 
    120 H120      -51.3563  -28.8622   15.2942 H         1 UNK         0.0785 
    121 H121      -48.7670  -26.5620   14.4038 H         1 UNK         0.2998 
    122 H122      -46.2952  -24.5484   16.0745 H         1 UNK         0.0697 
    123 H123      -46.1689  -26.6550   13.8523 H         1 UNK         0.0825 
    124 H124      -45.1918  -26.6533   15.3132 H         1 UNK         0.0825 
    125 H125      -44.9958  -25.3695   14.1312 H         1 UNK         0.0825 
    126 H126      -47.2707  -24.4307   13.4128 H         1 UNK         0.3029 
    127 H127      -49.9421  -22.0975   14.0467 H         1 UNK         0.0897 
    128 H128      -47.2542  -21.8720   12.5875 H         1 UNK         0.0792 
    129 H129      -47.8249  -20.7842   13.8460 H         1 UNK         0.0792 
    130 H130      -48.6723  -20.8642   12.3090 H         1 UNK         0.0792 
    131 H131      -49.0980  -23.2644   11.6121 H         1 UNK         0.3086 
    132 H132      -51.1966  -26.1764   11.7464 H         1 UNK         0.0583 
    133 H133      -52.5872  -24.3373   10.8998 H         1 UNK         0.1020 
    134 H134      -51.2205  -23.5657   10.1560 H         1 UNK         0.1020 
    135 H135      -53.8748  -26.0764   10.1472 H         1 UNK         0.0694 
    136 H136      -54.1075  -26.3392    8.4421 H         1 UNK         0.0694 
    137 H137      -49.2542  -25.4211    9.8377 H         1 UNK         0.2989 
    138 H138      -46.4136  -26.9361   11.4044 H         1 UNK         0.1055 
    139 H139      -48.1098  -27.7306    8.9765 H         1 UNK         0.0806 
    140 H140      -46.3685  -27.9869    9.1114 H         1 UNK         0.0806 
    141 H141      -47.4716  -28.7928   10.2168 H         1 UNK         0.0806 
    142 H142      -46.9775  -25.4135    8.9804 H         1 UNK         0.3061 
    143 H143      -46.0256  -22.2679   10.3607 H         1 UNK         0.0734 
    144 H144      -44.4611  -24.0803    8.4409 H         1 UNK         0.0832 
    145 H145      -44.3106  -22.3267    8.5680 H         1 UNK         0.0832 
    146 H146      -43.8196  -23.3510    9.9059 H         1 UNK         0.0832 
    147 H147      -46.6269  -23.0895    7.6910 H         1 UNK         0.3156 
    148 H148      -50.1543  -22.9976    7.9006 H         1 UNK         0.0589 
    149 H149      -49.9887  -21.2147    6.1976 H         1 UNK         0.0808 
    150 H150      -49.5868  -20.5623    7.7759 H         1 UNK         0.0808 
    151 H151      -48.3037  -20.9126    6.6262 H         1 UNK         0.0808 
    152 H152      -48.6434  -23.2203    5.5904 H         1 UNK         0.3098 
    153 H153      -48.8300  -25.4143    4.5928 H         1 UNK         0.0720 
    154 H154      -46.5198  -24.4426    4.8005 H         1 UNK         0.0791 
    155 H155      -46.4241  -26.0743    4.1615 H         1 UNK         0.0791 
    156 H156      -46.0338  -25.7683    5.8514 H         1 UNK         0.0791 
    157 H157      -48.2916  -27.3795    6.6781 H         1 UNK         0.3028 
@<TRIPOS>BOND
     1    1    2 1    
     2    1   82 1    
     3    1   83 1    
     4    1   84 1    
     5    2    3 2    
     6    2    4 am   BACKBONE|DICT|INTERRES
     7    4    5 1    
     8    4   85 1    
     9    5    6 1    
    10    5   80 1    
    11    5   86 1    
    12    6    7 1    
    13    6   87 1    
    14    6   88 1    
    15    7    8 1    
    16    8    9 1    
    17    8   89 1    
    18    8   90 1    
    19    9   10 ar   
    20    9   14 ar   
    21   10   11 ar   
    22   10   91 1    
    23   11   12 ar   
    24   11   58 1    
    25   12   13 ar   
    26   12   92 1    
    27   13   14 ar   
    28   13   15 1    
    29   14   93 1    
    30   15   16 1    
    31   15   94 1    
    32   15   95 1    
    33   16   17 1    
    34   17   18 1    
    35   17   96 1    
    36   17   97 1    
    37   18   19 1    
    38   18   22 1    
    39   18   98 1    
    40   19   20 am   BACKBONE|DICT|INTERRES
    41   19   21 2    
    42   20   99 1    
    43   20  100 1    
    44   22   23 am   BACKBONE|DICT|INTERRES
    45   22  101 1    
    46   23   24 2    
    47   23   25 1    
    48   25   26 1    
    49   25   27 1    
    50   25  102 1    
    51   26  103 1    
    52   26  104 1    
    53   26  105 1    
    54   27   28 am   BACKBONE|DICT|INTERRES
    55   27  106 1    
    56   28   29 2    
    57   28   30 1    
    58   30   31 1    
    59   30   32 1    
    60   30  107 1    
    61   31  108 1    
    62   31  109 1    
    63   31  110 1    
    64   32   33 am   BACKBONE|DICT|INTERRES
    65   32  111 1    
    66   33   34 2    
    67   33   35 1    
    68   35   36 1    
    69   35   37 1    
    70   35  112 1    
    71   36  113 1    
    72   36  114 1    
    73   36  115 1    
    74   37   38 am   BACKBONE|DICT|INTERRES
    75   37  116 1    
    76   38   39 2    
    77   38   40 1    
    78   40   41 1    
    79   40   42 1    
    80   40  117 1    
    81   41  118 1    
    82   41  119 1    
    83   41  120 1    
    84   42   43 am   BACKBONE|DICT|INTERRES
    85   42  121 1    
    86   43   44 2    
    87   43   45 1    
    88   45   46 1    
    89   45   47 1    
    90   45  122 1    
    91   46  123 1    
    92   46  124 1    
    93   46  125 1    
    94   47   48 am   BACKBONE|DICT|INTERRES
    95   47  126 1    
    96   48   49 2    
    97   48   50 1    
    98   50   51 1    
    99   50   52 1    
   100   50  127 1    
   101   51  128 1    
   102   51  129 1    
   103   51  130 1    
   104   52   53 am   BACKBONE|DICT|INTERRES
   105   52  131 1    
   106   53   54 2    
   107   53   55 1    
   108   55   56 1    
   109   55   59 1    
   110   55  132 1    
   111   56   57 1    
   112   56  133 1    
   113   56  134 1    
   114   57   58 1    
   115   58  135 1    
   116   58  136 1    
   117   59   60 am   BACKBONE|DICT|INTERRES
   118   59  137 1    
   119   60   61 2    
   120   60   62 1    
   121   62   63 1    
   122   62   64 1    
   123   62  138 1    
   124   63  139 1    
   125   63  140 1    
   126   63  141 1    
   127   64   65 am   BACKBONE|DICT|INTERRES
   128   64  142 1    
   129   65   66 2    
   130   65   67 1    
   131   67   68 1    
   132   67   69 1    
   133   67  143 1    
   134   68  144 1    
   135   68  145 1    
   136   68  146 1    
   137   69   70 am   BACKBONE|DICT|INTERRES
   138   69  147 1    
   139   70   71 2    
   140   70   72 1    
   141   72   73 1    
   142   72   74 1    
   143   72  148 1    
   144   73  149 1    
   145   73  150 1    
   146   73  151 1    
   147   74   75 am   BACKBONE|DICT|INTERRES
   148   74  152 1    
   149   75   76 2    
   150   75   77 1    
   151   77   78 1    
   152   77   79 1    
   153   77  153 1    
   154   78  154 1    
   155   78  155 1    
   156   78  156 1    
   157   79   80 am   BACKBONE|DICT|INTERRES
   158   79  157 1    
   159   80   81 2    
@<TRIPOS>SUBSTRUCTURE
     1 UNK         1 GROUP             0       ****    0 ROOT    
