@<TRIPOS>MOLECULE
3R207
157   159    1
SMALL
USER_CHARGES


@<TRIPOS>ATOM
      1 CA        -48.3705  -29.1241    5.8165 C.3       0 UNK        -0.1975 
      2 C         -48.3228  -27.6092    5.9382 C.2       0 UNK         0.4852 
      3 O         -47.2680  -27.0068    5.7280 O.2       0 UNK        -0.5216 
      4 N         -49.4680  -27.0001    6.2710 N.am      1 UNK        -0.4461 
      5 CA        -49.6998  -25.5537    6.3568 C.3       1 UNK         0.0864 
      6 C6        -51.1304  -25.2282    6.8419 C.3       14 UNK        -0.0898 
      7 S7        -52.4410  -25.9521    5.7985 S.3       14 UNK        -0.2598 
      8 C8        -53.8425  -26.0491    6.9764 C.3       14 UNK         0.0286 
      9 C9        -53.5919  -26.8994    8.2245 C.ar      14 UNK        -0.0844 
     10 C10       -52.6759  -27.9564    8.2228 C.ar      14 UNK        -0.0881 
     11 C11       -52.4122  -28.6771    9.3872 C.ar      14 UNK        -0.0643 
     12 C12       -53.1278  -28.3922   10.5517 C.ar      14 UNK        -0.0930 
     13 C13       -54.0721  -27.3620   10.5667 C.ar      14 UNK        -0.0827 
     14 C14       -54.2878  -26.6115    9.4042 C.ar      14 UNK        -0.1249 
     15 C15       -54.8319  -27.0492   11.8512 C.3       14 UNK         0.0141 
     16 S16       -56.6392  -27.1008   11.6321 S.3       14 UNK        -0.2313 
     17 C17       -56.9172  -28.8420   11.1616 C.3       14 UNK        -0.0915 
     18 CA        -57.7316  -29.6175   12.2269 C.3       13 UNK         0.0968 
     19 C         -58.1992  -30.9972   11.6792 C.2       13 UNK         0.5732 
     20 N         -57.7599  -32.1215   12.2337 N.am      13 UNK        -0.7310 
     21 O         -58.9889  -31.0480   10.7390 O.2       13 UNK        -0.5035 
     22 N         -57.0091  -29.7029   13.5051 N.am      13 UNK        -0.4233 
     23 C         -57.5867  -29.8165   14.7038 C.2       13 UNK         0.4989 
     24 O         -58.8050  -29.7620   14.8783 O.2       13 UNK        -0.4996 
     25 CA        -56.6775  -30.0387   15.9287 C.3       12 UNK         0.0216 
     26 CB        -56.6254  -31.5356   16.2931 C.3       12 UNK        -0.1964 
     27 N         -55.3184  -29.4766   15.8582 N.am      12 UNK        -0.4276 
     28 C         -54.3017  -29.7813   15.0417 C.2       12 UNK         0.5020 
     29 O         -54.4064  -30.5300   14.0682 O.2       12 UNK        -0.5489 
     30 CA        -52.9459  -29.1230   15.3695 C.3       11 UNK         0.0294 
     31 CB        -51.7913  -29.7308   14.5556 C.3       11 UNK        -0.2019 
     32 N         -52.9438  -27.6708   15.1751 N.am      11 UNK        -0.4493 
     33 C         -53.5653  -26.7777   15.9572 C.2       11 UNK         0.4932 
     34 O         -54.2869  -27.0856   16.9090 O.2       11 UNK        -0.5029 
     35 CA        -53.2922  -25.2986   15.6335 C.3       10 UNK         0.0280 
     36 CB        -54.0184  -24.3222   16.5819 C.3       10 UNK        -0.1976 
     37 N         -51.8544  -25.0123   15.5880 N.am      10 UNK        -0.4242 
     38 C         -50.9459  -25.1796   16.5638 C.2       10 UNK         0.5072 
     39 O         -51.2166  -25.5554   17.7051 O.2       10 UNK        -0.5224 
     40 CA        -49.4712  -24.8998   16.2109 C.3       9 UNK         0.0343 
     41 CB        -48.7133  -26.2246   16.0271 C.3       9 UNK        -0.2003 
     42 N         -49.3011  -24.0867   15.0047 N.am      9 UNK        -0.4272 
     43 C         -49.5951  -22.7824   14.9106 C.2       9 UNK         0.4988 
     44 O         -49.9471  -22.0853   15.8624 O.2       9 UNK        -0.5108 
     45 CA        -49.5315  -22.1668   13.5029 C.3       8 UNK         0.0248 
     46 CB        -48.0991  -21.7301   13.1547 C.3       8 UNK        -0.2001 
     47 N         -50.0409  -23.0776   12.4719 N.am      8 UNK        -0.4140 
     48 C         -51.3228  -23.4567   12.3604 C.2       8 UNK         0.5028 
     49 O         -52.2202  -23.0686   13.1070 O.2       8 UNK        -0.5428 
     50 CA        -51.6589  -24.4548   11.2431 C.3       7 UNK         0.0264 
     51 CB        -51.8246  -23.7173    9.9059 C.3       7 UNK        -0.1988 
     52 N         -50.6682  -25.5321   11.1328 N.am      7 UNK        -0.4454 
     53 C         -50.5304  -26.5089   12.0458 C.2       7 UNK         0.5027 
     54 O         -51.3063  -26.6700   12.9914 O.2       7 UNK        -0.5083 
     55 CA        -49.2789  -27.4095   11.9528 C.3       6 UNK         0.0844 
     56 C56       -49.5595  -28.8281   11.3990 C.3       14 UNK        -0.0967 
     57 S57       -49.6851  -28.9572    9.5824 S.3       14 UNK        -0.2604 
     58 C58       -51.3211  -29.7318    9.3769 C.3       14 UNK         0.0134 
     59 N         -48.1482  -26.7553   11.2915 N.am      6 UNK        -0.4116 
     60 C         -47.4500  -25.7363   11.8093 C.2       5 UNK         0.5034 
     61 O         -47.7173  -25.2236   12.8966 O.2       5 UNK        -0.5045 
     62 CA        -46.3015  -25.1574   10.9640 C.3       5 UNK         0.0224 
     63 CB        -45.1097  -24.6856   11.8229 C.3       5 UNK        -0.1978 
     64 N         -45.8637  -26.0388    9.8747 N.am      5 UNK        -0.4737 
     65 C         -45.2252  -27.2158    9.9566 C.2       4 UNK         0.5027 
     66 O         -44.8963  -27.7534   11.0134 O.2       4 UNK        -0.5211 
     67 CA        -44.9207  -27.9268    8.6253 C.3       4 UNK         0.0297 
     68 CB        -45.9307  -29.0584    8.3886 C.3       4 UNK        -0.1993 
     69 N         -44.9374  -27.0046    7.4833 N.am      4 UNK        -0.4486 
     70 C         -43.9269  -26.1769    7.1806 C.2       3 UNK         0.4961 
     71 O         -42.8308  -26.1942    7.7415 O.2       3 UNK        -0.5105 
     72 CA        -44.2049  -25.1202    6.1010 C.3       3 UNK         0.0299 
     73 CB        -44.1752  -25.7381    4.6933 C.3       3 UNK        -0.1972 
     74 N         -45.4815  -24.4360    6.3279 N.am      3 UNK        -0.4305 
     75 C         -45.6943  -23.5369    7.3031 C.2       2 UNK         0.5006 
     76 O         -44.8248  -23.1744    8.0950 O.2       2 UNK        -0.5106 
     77 CA        -47.1032  -22.9276    7.4317 C.3       2 UNK         0.0296 
     78 CB        -47.1224  -21.4969    6.8689 C.3       2 UNK        -0.2002 
     79 N         -48.1407  -23.7166    6.7664 N.am      2 UNK        -0.4032 
     80 C         -48.6757  -24.8395    7.2621 C.2       1 UNK         0.5000 
     81 O         -48.4057  -25.3015    8.3753 O.2       1 UNK        -0.5238 
     82 H82       -48.6753  -29.5796    6.7579 H         1 UNK         0.0889 
     83 H83       -47.3917  -29.5204    5.5474 H         1 UNK         0.0889 
     84 H84       -49.0781  -29.4217    5.0431 H         1 UNK         0.0889 
     85 H85       -50.2833  -27.5659    6.4484 H         1 UNK         0.3028 
     86 H86       -49.5885  -25.1661    5.3421 H         1 UNK         0.0864 
     87 H87       -51.2944  -24.1494    6.8803 H         1 UNK         0.0720 
     88 H88       -51.2434  -25.6009    7.8594 H         1 UNK         0.0720 
     89 H89       -54.7085  -26.4546    6.4521 H         1 UNK         0.0814 
     90 H90       -54.1085  -25.0325    7.2702 H         1 UNK         0.0814 
     91 H91       -52.1318  -28.2035    7.3239 H         1 UNK         0.1469 
     92 H92       -52.9353  -28.9584   11.4515 H         1 UNK         0.1381 
     93 H93       -55.0041  -25.8015    9.4210 H         1 UNK         0.1206 
     94 H94       -54.5503  -26.0559   12.2004 H         1 UNK         0.0813 
     95 H95       -54.5559  -27.7426   12.6466 H         1 UNK         0.0813 
     96 H96       -55.9658  -29.3424   10.9750 H         1 UNK         0.0638 
     97 H97       -57.4440  -28.8296   10.2057 H         1 UNK         0.0638 
     98 H98       -58.6495  -29.0523   12.3993 H         1 UNK         0.0568 
     99 H99       -58.0771  -33.0067   11.8716 H         1 UNK         0.3450 
    100 H100      -57.1031  -32.0925   12.9966 H         1 UNK         0.3450 
    101 H101      -56.0042  -29.8502   13.4572 H         1 UNK         0.2987 
    102 H102      -57.1602  -29.5178   16.7572 H         1 UNK         0.0766 
    103 H103      -56.0855  -31.6973   17.2262 H         1 UNK         0.0798 
    104 H104      -56.1375  -32.1269   15.5176 H         1 UNK         0.0798 
    105 H105      -57.6292  -31.9415   16.4271 H         1 UNK         0.0798 
    106 H106      -55.1219  -28.7404   16.5344 H         1 UNK         0.3198 
    107 H107      -52.7402  -29.3209   16.4239 H         1 UNK         0.0843 
    108 H108      -51.9536  -29.5991   13.4878 H         1 UNK         0.0831 
    109 H109      -51.7042  -30.8021   14.7412 H         1 UNK         0.0831 
    110 H110      -50.8344  -29.2758   14.8127 H         1 UNK         0.0831 
    111 H111      -52.3729  -27.3187   14.4083 H         1 UNK         0.3133 
    112 H112      -53.6723  -25.1256   14.6255 H         1 UNK         0.0566 
    113 H113      -53.8272  -23.2861   16.3022 H         1 UNK         0.0814 
    114 H114      -55.0977  -24.4746   16.5456 H         1 UNK         0.0814 
    115 H115      -53.7065  -24.4531   17.6185 H         1 UNK         0.0814 
    116 H116      -51.5137  -24.7016   14.6882 H         1 UNK         0.3091 
    117 H117      -49.0259  -24.3611   17.0499 H         1 UNK         0.0702 
    118 H118      -47.6635  -26.0543   15.7870 H         1 UNK         0.0785 
    119 H119      -49.1478  -26.8262   15.2286 H         1 UNK         0.0785 
    120 H120      -48.7458  -26.8226   16.9388 H         1 UNK         0.0785 
    121 H121      -48.9197  -24.5564   14.1866 H         1 UNK         0.2998 
    122 H122      -50.1650  -21.2770   13.5029 H         1 UNK         0.0697 
    123 H123      -47.4073  -22.5720   13.1441 H         1 UNK         0.0825 
    124 H124      -47.7243  -21.0134   13.8866 H         1 UNK         0.0825 
    125 H125      -48.0562  -21.2464   12.1787 H         1 UNK         0.0825 
    126 H126      -49.3634  -23.4686   11.8354 H         1 UNK         0.3029 
    127 H127      -52.6220  -24.9012   11.4951 H         1 UNK         0.0897 
    128 H128      -52.3608  -22.7757   10.0360 H         1 UNK         0.0792 
    129 H129      -52.4187  -24.3089    9.2132 H         1 UNK         0.0792 
    130 H130      -50.8666  -23.4852    9.4398 H         1 UNK         0.0792 
    131 H131      -50.0080  -25.4896   10.3676 H         1 UNK         0.3086 
    132 H132      -48.9711  -27.5610   12.9891 H         1 UNK         0.0583 
    133 H133      -48.7456  -29.4882   11.7029 H         1 UNK         0.1020 
    134 H134      -50.4485  -29.2493   11.8649 H         1 UNK         0.1020 
    135 H135      -51.3387  -30.2667    8.4261 H         1 UNK         0.0694 
    136 H136      -51.4906  -30.4831   10.1497 H         1 UNK         0.0694 
    137 H137      -47.9126  -27.0858   10.3664 H         1 UNK         0.2989 
    138 H138      -46.7178  -24.2739   10.4788 H         1 UNK         0.1055 
    139 H139      -45.4138  -23.9096   12.5259 H         1 UNK         0.0806 
    140 H140      -44.3183  -24.2651   11.2021 H         1 UNK         0.0806 
    141 H141      -44.6826  -25.4997   12.4087 H         1 UNK         0.0806 
    142 H142      -46.1404  -25.7355    8.9504 H         1 UNK         0.3061 
    143 H143      -43.9265  -28.3717    8.7061 H         1 UNK         0.0734 
    144 H144      -45.7262  -29.5876    7.4582 H         1 UNK         0.0832 
    145 H145      -45.8896  -29.7924    9.1946 H         1 UNK         0.0832 
    146 H146      -46.9512  -28.6797    8.3506 H         1 UNK         0.0832 
    147 H147      -45.7905  -26.9555    6.9292 H         1 UNK         0.3156 
    148 H148      -43.4077  -24.3750    6.1514 H         1 UNK         0.0589 
    149 H149      -44.9518  -26.4911    4.5578 H         1 UNK         0.0808 
    150 H150      -44.3090  -24.9773    3.9241 H         1 UNK         0.0808 
    151 H151      -43.2170  -26.2237    4.5035 H         1 UNK         0.0808 
    152 H152      -46.2561  -24.7191    5.7436 H         1 UNK         0.3098 
    153 H153      -47.3395  -22.8725    8.4965 H         1 UNK         0.0720 
    154 H154      -48.0945  -21.0255    7.0155 H         1 UNK         0.0791 
    155 H155      -46.8959  -21.4777    5.8020 H         1 UNK         0.0791 
    156 H156      -46.3828  -20.8703    7.3698 H         1 UNK         0.0791 
    157 H157      -48.4339  -23.3947    5.8546 H         1 UNK         0.3028 
@<TRIPOS>BOND
     1    1    2 1    
     2    1   82 1    
     3    1   83 1    
     4    1   84 1    
     5    2    3 2    
     6    2    4 am   BACKBONE|DICT|INTERRES
     7    4    5 1    
     8    4   85 1    
     9    5    6 1    
    10    5   80 1    
    11    5   86 1    
    12    6    7 1    
    13    6   87 1    
    14    6   88 1    
    15    7    8 1    
    16    8    9 1    
    17    8   89 1    
    18    8   90 1    
    19    9   10 ar   
    20    9   14 ar   
    21   10   11 ar   
    22   10   91 1    
    23   11   12 ar   
    24   11   58 1    
    25   12   13 ar   
    26   12   92 1    
    27   13   14 ar   
    28   13   15 1    
    29   14   93 1    
    30   15   16 1    
    31   15   94 1    
    32   15   95 1    
    33   16   17 1    
    34   17   18 1    
    35   17   96 1    
    36   17   97 1    
    37   18   19 1    
    38   18   22 1    
    39   18   98 1    
    40   19   20 am   BACKBONE|DICT|INTERRES
    41   19   21 2    
    42   20   99 1    
    43   20  100 1    
    44   22   23 am   BACKBONE|DICT|INTERRES
    45   22  101 1    
    46   23   24 2    
    47   23   25 1    
    48   25   26 1    
    49   25   27 1    
    50   25  102 1    
    51   26  103 1    
    52   26  104 1    
    53   26  105 1    
    54   27   28 am   BACKBONE|DICT|INTERRES
    55   27  106 1    
    56   28   29 2    
    57   28   30 1    
    58   30   31 1    
    59   30   32 1    
    60   30  107 1    
    61   31  108 1    
    62   31  109 1    
    63   31  110 1    
    64   32   33 am   BACKBONE|DICT|INTERRES
    65   32  111 1    
    66   33   34 2    
    67   33   35 1    
    68   35   36 1    
    69   35   37 1    
    70   35  112 1    
    71   36  113 1    
    72   36  114 1    
    73   36  115 1    
    74   37   38 am   BACKBONE|DICT|INTERRES
    75   37  116 1    
    76   38   39 2    
    77   38   40 1    
    78   40   41 1    
    79   40   42 1    
    80   40  117 1    
    81   41  118 1    
    82   41  119 1    
    83   41  120 1    
    84   42   43 am   BACKBONE|DICT|INTERRES
    85   42  121 1    
    86   43   44 2    
    87   43   45 1    
    88   45   46 1    
    89   45   47 1    
    90   45  122 1    
    91   46  123 1    
    92   46  124 1    
    93   46  125 1    
    94   47   48 am   BACKBONE|DICT|INTERRES
    95   47  126 1    
    96   48   49 2    
    97   48   50 1    
    98   50   51 1    
    99   50   52 1    
   100   50  127 1    
   101   51  128 1    
   102   51  129 1    
   103   51  130 1    
   104   52   53 am   BACKBONE|DICT|INTERRES
   105   52  131 1    
   106   53   54 2    
   107   53   55 1    
   108   55   56 1    
   109   55   59 1    
   110   55  132 1    
   111   56   57 1    
   112   56  133 1    
   113   56  134 1    
   114   57   58 1    
   115   58  135 1    
   116   58  136 1    
   117   59   60 am   BACKBONE|DICT|INTERRES
   118   59  137 1    
   119   60   61 2    
   120   60   62 1    
   121   62   63 1    
   122   62   64 1    
   123   62  138 1    
   124   63  139 1    
   125   63  140 1    
   126   63  141 1    
   127   64   65 am   BACKBONE|DICT|INTERRES
   128   64  142 1    
   129   65   66 2    
   130   65   67 1    
   131   67   68 1    
   132   67   69 1    
   133   67  143 1    
   134   68  144 1    
   135   68  145 1    
   136   68  146 1    
   137   69   70 am   BACKBONE|DICT|INTERRES
   138   69  147 1    
   139   70   71 2    
   140   70   72 1    
   141   72   73 1    
   142   72   74 1    
   143   72  148 1    
   144   73  149 1    
   145   73  150 1    
   146   73  151 1    
   147   74   75 am   BACKBONE|DICT|INTERRES
   148   74  152 1    
   149   75   76 2    
   150   75   77 1    
   151   77   78 1    
   152   77   79 1    
   153   77  153 1    
   154   78  154 1    
   155   78  155 1    
   156   78  156 1    
   157   79   80 am   BACKBONE|DICT|INTERRES
   158   79  157 1    
   159   80   81 2    
@<TRIPOS>SUBSTRUCTURE
     1 UNK         1 GROUP             0       ****    0 ROOT    
