@<TRIPOS>MOLECULE
3R207
157   159    1
SMALL
USER_CHARGES


@<TRIPOS>ATOM
      1 CA        -45.8687  -28.6789    5.8521 C.3       0 UNK        -0.1975 
      2 C         -47.0521  -27.8317    5.4085 C.2       0 UNK         0.4852 
      3 O         -46.8694  -26.8749    4.6552 O.2       0 UNK        -0.5216 
      4 N         -48.2617  -28.1822    5.8657 N.am      1 UNK        -0.4461 
      5 CA        -49.5124  -27.4634    5.6070 C.3       1 UNK         0.0864 
      6 C6        -50.7315  -28.1752    6.2305 C.3       14 UNK        -0.0898 
      7 S7        -50.9363  -29.9323    5.7864 S.3       14 UNK        -0.2598 
      8 C8        -52.6008  -30.2726    6.4661 C.3       14 UNK         0.0286 
      9 C9        -52.7770  -29.6888    7.8630 C.ar      14 UNK        -0.0844 
     10 C10       -53.3888  -28.4430    8.0275 C.ar      14 UNK        -0.0881 
     11 C11       -53.4442  -27.8305    9.2819 C.ar      14 UNK        -0.0643 
     12 C12       -52.9359  -28.5123   10.3955 C.ar      14 UNK        -0.0930 
     13 C13       -52.3447  -29.7732   10.2478 C.ar      14 UNK        -0.0827 
     14 C14       -52.2641  -30.3526    8.9783 C.ar      14 UNK        -0.1249 
     15 C15       -51.7383  -30.4982   11.4391 C.3       14 UNK         0.0141 
     16 S16       -52.7243  -31.9595   11.9135 S.3       14 UNK        -0.2313 
     17 C17       -53.2627  -31.5421   13.6064 C.3       14 UNK        -0.0915 
     18 CA        -54.7658  -31.1740   13.7178 C.3       13 UNK         0.0968 
     19 C         -55.1017  -30.8052   15.1912 C.2       13 UNK         0.5732 
     20 N         -55.1438  -29.5262   15.5487 N.am      13 UNK        -0.7310 
     21 O         -55.3204  -31.6905   16.0144 O.2       13 UNK        -0.5035 
     22 N         -55.1503  -30.1357   12.7528 N.am      13 UNK        -0.4233 
     23 C         -56.4031  -29.7521   12.4866 C.2       13 UNK         0.4989 
     24 O         -57.4097  -30.3178   12.9179 O.2       13 UNK        -0.4996 
     25 CA        -56.5423  -28.4825   11.6266 C.3       12 UNK         0.0216 
     26 CB        -57.7943  -28.5240   10.7326 C.3       12 UNK        -0.1964 
     27 N         -56.5744  -27.2646   12.4454 N.am      12 UNK        -0.4276 
     28 C         -55.5941  -26.8413   13.2548 C.2       12 UNK         0.5020 
     29 O         -54.5114  -27.4202   13.3895 O.2       12 UNK        -0.5489 
     30 CA        -55.8767  -25.5883   14.0914 C.3       11 UNK         0.0294 
     31 CB        -56.8431  -25.9206   15.2468 C.3       11 UNK        -0.2019 
     32 N         -54.5928  -25.1278   14.6087 N.am      11 UNK        -0.4493 
     33 C         -54.3257  -24.0059   15.2837 C.2       11 UNK         0.4932 
     34 O         -55.1761  -23.1551   15.5499 O.2       11 UNK        -0.5029 
     35 CA        -52.8607  -23.7693   15.7095 C.3       10 UNK         0.0280 
     36 CB        -52.7457  -23.1894   17.1349 C.3       10 UNK        -0.1976 
     37 N         -51.9813  -24.9335   15.5320 N.am      10 UNK        -0.4242 
     38 C         -51.9920  -26.0986   16.1977 C.2       10 UNK         0.5072 
     39 O         -52.7667  -26.3649   17.1168 O.2       10 UNK        -0.5224 
     40 CA        -50.9679  -27.1582   15.7516 C.3       9 UNK         0.0343 
     41 CB        -51.5271  -28.0037   14.5992 C.3       9 UNK        -0.2003 
     42 N         -49.6782  -26.5906   15.3511 N.am      9 UNK        -0.4272 
     43 C         -48.7895  -26.0650   16.2068 C.2       9 UNK         0.4988 
     44 O         -48.9549  -26.0175   17.4264 O.2       9 UNK        -0.5108 
     45 CA        -47.4895  -25.5063   15.6055 C.3       8 UNK         0.0248 
     46 CB        -46.4741  -26.6379   15.3794 C.3       8 UNK        -0.2001 
     47 N         -47.7129  -24.7788   14.3537 N.am      8 UNK        -0.4140 
     48 C         -48.3281  -23.5888   14.2792 C.2       8 UNK         0.5028 
     49 O         -48.6992  -22.9479   15.2633 O.2       8 UNK        -0.5428 
     50 CA        -48.6062  -23.0223   12.8748 C.3       7 UNK         0.0264 
     51 CB        -47.3813  -22.2638   12.3436 C.3       7 UNK        -0.1988 
     52 N         -49.0385  -24.0374   11.9053 N.am      7 UNK        -0.4454 
     53 C         -50.1663  -24.7562   12.0393 C.2       7 UNK         0.5027 
     54 O         -50.9364  -24.6196   12.9886 O.2       7 UNK        -0.5083 
     55 CA        -50.4781  -25.8423   10.9881 C.3       6 UNK         0.0844 
     56 C56       -51.4285  -25.3409    9.8724 C.3       14 UNK        -0.0967 
     57 S57       -53.1556  -25.2733   10.4781 S.3       14 UNK        -0.2604 
     58 C58       -54.0524  -26.4317    9.3886 C.3       14 UNK         0.0134 
     59 N         -49.2615  -26.4754   10.4780 N.am      6 UNK        -0.4116 
     60 C         -48.5228  -27.3145   11.2206 C.2       5 UNK         0.5034 
     61 O         -48.8049  -27.6395   12.3762 O.2       5 UNK        -0.5045 
     62 CA        -47.2336  -27.8540   10.5838 C.3       5 UNK         0.0224 
     63 CB        -47.5445  -28.7166    9.3507 C.3       5 UNK        -0.1978 
     64 N         -46.2867  -26.7928   10.2277 N.am      5 UNK        -0.4737 
     65 C         -45.7424  -25.9283   11.0970 C.2       4 UNK         0.5027 
     66 O         -45.9911  -25.9159   12.3007 O.2       4 UNK        -0.5211 
     67 CA        -44.7645  -24.8821   10.5338 C.3       4 UNK         0.0297 
     68 CB        -43.3368  -25.4508   10.5132 C.3       4 UNK        -0.1993 
     69 N         -45.0989  -24.3639    9.2027 N.am      4 UNK        -0.4486 
     70 C         -46.2760  -23.8479    8.8228 C.2       3 UNK         0.4961 
     71 O         -47.2790  -23.8221    9.5421 O.2       3 UNK        -0.5105 
     72 CA        -46.3606  -23.2817    7.3963 C.3       3 UNK         0.0299 
     73 CB        -45.2923  -23.8379    6.4278 C.3       3 UNK        -0.1972 
     74 N         -47.6934  -23.5894    6.9074 N.am      3 UNK        -0.4305 
     75 C         -48.3664  -23.0198    5.9093 C.2       2 UNK         0.5006 
     76 O         -47.9250  -22.1035    5.2130 O.2       2 UNK        -0.5106 
     77 CA        -49.7734  -23.6004    5.6527 C.3       2 UNK         0.0296 
     78 CB        -50.5304  -22.8506    4.5402 C.3       2 UNK        -0.2002 
     79 N         -49.7434  -25.0318    5.3265 N.am      2 UNK        -0.4032 
     80 C         -49.4595  -26.0312    6.1749 C.2       1 UNK         0.5000 
     81 O         -49.1949  -25.8698    7.3732 O.2       1 UNK        -0.5238 
     82 H82       -45.3079  -29.0237    4.9837 H         1 UNK         0.0889 
     83 H83       -46.1837  -29.5548    6.4190 H         1 UNK         0.0889 
     84 H84       -45.1997  -28.0892    6.4781 H         1 UNK         0.0889 
     85 H85       -48.3547  -28.9943    6.4579 H         1 UNK         0.3028 
     86 H86       -49.6491  -27.4190    4.5245 H         1 UNK         0.0864 
     87 H87       -51.6450  -27.6492    5.9465 H         1 UNK         0.0720 
     88 H88       -50.6660  -28.1254    7.3201 H         1 UNK         0.0720 
     89 H89       -52.7645  -31.3509    6.4907 H         1 UNK         0.0814 
     90 H90       -53.3522  -29.8656    5.7877 H         1 UNK         0.0814 
     91 H91       -53.7784  -27.9247    7.1620 H         1 UNK         0.1469 
     92 H92       -52.9798  -28.0469   11.3703 H         1 UNK         0.1381 
     93 H93       -51.7788  -31.3114    8.8551 H         1 UNK         0.1206 
     94 H94       -50.7310  -30.8275   11.1800 H         1 UNK         0.0813 
     95 H95       -51.6166  -29.8112   12.2754 H         1 UNK         0.0813 
     96 H96       -53.0512  -32.4120   14.2310 H         1 UNK         0.0638 
     97 H97       -52.6387  -30.7415   14.0040 H         1 UNK         0.0638 
     98 H98       -55.3464  -32.0656   13.4744 H         1 UNK         0.0568 
     99 H99       -55.3547  -29.2855   16.5034 H         1 UNK         0.3450 
    100 H100      -54.9352  -28.8037   14.8704 H         1 UNK         0.3450 
    101 H101      -54.3963  -29.5588   12.4097 H         1 UNK         0.2987 
    102 H102      -55.6742  -28.4305   10.9708 H         1 UNK         0.0766 
    103 H103      -57.8269  -27.6700   10.0558 H         1 UNK         0.0798 
    104 H104      -58.7138  -28.5237   11.3195 H         1 UNK         0.0798 
    105 H105      -57.8017  -29.4240   10.1160 H         1 UNK         0.0798 
    106 H106      -57.4387  -26.7425   12.4284 H         1 UNK         0.3198 
    107 H107      -56.3004  -24.8150   13.4478 H         1 UNK         0.0843 
    108 H108      -56.4185  -26.6649   15.9218 H         1 UNK         0.0831 
    109 H109      -57.7869  -26.3195   14.8735 H         1 UNK         0.0831 
    110 H110      -57.0848  -25.0368   15.8369 H         1 UNK         0.0831 
    111 H111      -53.8363  -25.7689   14.3956 H         1 UNK         0.3133 
    112 H112      -52.4748  -23.0153   15.0219 H         1 UNK         0.0566 
    113 H113      -51.7048  -23.0160   17.4084 H         1 UNK         0.0814 
    114 H114      -53.2632  -22.2324   17.2108 H         1 UNK         0.0814 
    115 H115      -53.1844  -23.8531   17.8803 H         1 UNK         0.0814 
    116 H116      -51.3622  -24.8608   14.7248 H         1 UNK         0.3091 
    117 H117      -50.7937  -27.8236   16.5999 H         1 UNK         0.0702 
    118 H118      -52.4680  -28.4734   14.8864 H         1 UNK         0.0785 
    119 H119      -50.8348  -28.7990   14.3237 H         1 UNK         0.0785 
    120 H120      -51.7204  -27.4016   13.7109 H         1 UNK         0.0785 
    121 H121      -49.4466  -26.6236   14.3659 H         1 UNK         0.2998 
    122 H122      -47.0612  -24.8099   16.3296 H         1 UNK         0.0697 
    123 H123      -46.8240  -27.3500   14.6304 H         1 UNK         0.0825 
    124 H124      -46.2931  -27.1927   16.3009 H         1 UNK         0.0825 
    125 H125      -45.5140  -26.2460   15.0432 H         1 UNK         0.0825 
    126 H126      -47.3669  -25.2173   13.5037 H         1 UNK         0.3029 
    127 H127      -49.4237  -22.3047   12.9742 H         1 UNK         0.0897 
    128 H128      -47.5930  -21.7859   11.3870 H         1 UNK         0.0792 
    129 H129      -46.5288  -22.9274   12.2079 H         1 UNK         0.0792 
    130 H130      -47.0767  -21.4792   13.0374 H         1 UNK         0.0792 
    131 H131      -48.4476  -24.1717   11.0883 H         1 UNK         0.3086 
    132 H132      -51.0131  -26.6304   11.5215 H         1 UNK         0.0583 
    133 H133      -51.1273  -24.3604    9.4990 H         1 UNK         0.1020 
    134 H134      -51.3849  -26.0108    9.0126 H         1 UNK         0.1020 
    135 H135      -55.0788  -26.5170    9.7451 H         1 UNK         0.0694 
    136 H136      -54.1130  -25.9703    8.4017 H         1 UNK         0.0694 
    137 H137      -48.9721  -26.2369    9.5363 H         1 UNK         0.2989 
    138 H138      -46.7482  -28.4895   11.3279 H         1 UNK         0.1055 
    139 H139      -48.2458  -29.5150    9.5985 H         1 UNK         0.0806 
    140 H140      -46.6433  -29.1875    8.9582 H         1 UNK         0.0806 
    141 H141      -47.9939  -28.1252    8.5547 H         1 UNK         0.0806 
    142 H142      -46.0367  -26.7050    9.2542 H         1 UNK         0.3061 
    143 H143      -44.7720  -24.0316   11.2167 H         1 UNK         0.0734 
    144 H144      -42.6074  -24.6886   10.2386 H         1 UNK         0.0832 
    145 H145      -43.0524  -25.8260   11.4976 H         1 UNK         0.0832 
    146 H146      -43.2409  -26.2789    9.8098 H         1 UNK         0.0832 
    147 H147      -44.3462  -24.3507    8.5299 H         1 UNK         0.3156 
    148 H148      -46.2544  -22.1977    7.4674 H         1 UNK         0.0589 
    149 H149      -45.3287  -24.9268    6.3679 H         1 UNK         0.0808 
    150 H150      -45.4359  -23.4526    5.4183 H         1 UNK         0.0808 
    151 H151      -44.2854  -23.5479    6.7295 H         1 UNK         0.0808 
    152 H152      -48.1656  -24.3369    7.4145 H         1 UNK         0.3098 
    153 H153      -50.3407  -23.4773    6.5780 H         1 UNK         0.0720 
    154 H154      -51.5460  -23.2299    4.4253 H         1 UNK         0.0791 
    155 H155      -50.0263  -22.9403    3.5771 H         1 UNK         0.0791 
    156 H156      -50.6091  -21.7870    4.7695 H         1 UNK         0.0791 
    157 H157      -49.9152  -25.2629    4.3586 H         1 UNK         0.3028 
@<TRIPOS>BOND
     1    1    2 1    
     2    1   82 1    
     3    1   83 1    
     4    1   84 1    
     5    2    3 2    
     6    2    4 am   BACKBONE|DICT|INTERRES
     7    4    5 1    
     8    4   85 1    
     9    5    6 1    
    10    5   80 1    
    11    5   86 1    
    12    6    7 1    
    13    6   87 1    
    14    6   88 1    
    15    7    8 1    
    16    8    9 1    
    17    8   89 1    
    18    8   90 1    
    19    9   10 ar   
    20    9   14 ar   
    21   10   11 ar   
    22   10   91 1    
    23   11   12 ar   
    24   11   58 1    
    25   12   13 ar   
    26   12   92 1    
    27   13   14 ar   
    28   13   15 1    
    29   14   93 1    
    30   15   16 1    
    31   15   94 1    
    32   15   95 1    
    33   16   17 1    
    34   17   18 1    
    35   17   96 1    
    36   17   97 1    
    37   18   19 1    
    38   18   22 1    
    39   18   98 1    
    40   19   20 am   BACKBONE|DICT|INTERRES
    41   19   21 2    
    42   20   99 1    
    43   20  100 1    
    44   22   23 am   BACKBONE|DICT|INTERRES
    45   22  101 1    
    46   23   24 2    
    47   23   25 1    
    48   25   26 1    
    49   25   27 1    
    50   25  102 1    
    51   26  103 1    
    52   26  104 1    
    53   26  105 1    
    54   27   28 am   BACKBONE|DICT|INTERRES
    55   27  106 1    
    56   28   29 2    
    57   28   30 1    
    58   30   31 1    
    59   30   32 1    
    60   30  107 1    
    61   31  108 1    
    62   31  109 1    
    63   31  110 1    
    64   32   33 am   BACKBONE|DICT|INTERRES
    65   32  111 1    
    66   33   34 2    
    67   33   35 1    
    68   35   36 1    
    69   35   37 1    
    70   35  112 1    
    71   36  113 1    
    72   36  114 1    
    73   36  115 1    
    74   37   38 am   BACKBONE|DICT|INTERRES
    75   37  116 1    
    76   38   39 2    
    77   38   40 1    
    78   40   41 1    
    79   40   42 1    
    80   40  117 1    
    81   41  118 1    
    82   41  119 1    
    83   41  120 1    
    84   42   43 am   BACKBONE|DICT|INTERRES
    85   42  121 1    
    86   43   44 2    
    87   43   45 1    
    88   45   46 1    
    89   45   47 1    
    90   45  122 1    
    91   46  123 1    
    92   46  124 1    
    93   46  125 1    
    94   47   48 am   BACKBONE|DICT|INTERRES
    95   47  126 1    
    96   48   49 2    
    97   48   50 1    
    98   50   51 1    
    99   50   52 1    
   100   50  127 1    
   101   51  128 1    
   102   51  129 1    
   103   51  130 1    
   104   52   53 am   BACKBONE|DICT|INTERRES
   105   52  131 1    
   106   53   54 2    
   107   53   55 1    
   108   55   56 1    
   109   55   59 1    
   110   55  132 1    
   111   56   57 1    
   112   56  133 1    
   113   56  134 1    
   114   57   58 1    
   115   58  135 1    
   116   58  136 1    
   117   59   60 am   BACKBONE|DICT|INTERRES
   118   59  137 1    
   119   60   61 2    
   120   60   62 1    
   121   62   63 1    
   122   62   64 1    
   123   62  138 1    
   124   63  139 1    
   125   63  140 1    
   126   63  141 1    
   127   64   65 am   BACKBONE|DICT|INTERRES
   128   64  142 1    
   129   65   66 2    
   130   65   67 1    
   131   67   68 1    
   132   67   69 1    
   133   67  143 1    
   134   68  144 1    
   135   68  145 1    
   136   68  146 1    
   137   69   70 am   BACKBONE|DICT|INTERRES
   138   69  147 1    
   139   70   71 2    
   140   70   72 1    
   141   72   73 1    
   142   72   74 1    
   143   72  148 1    
   144   73  149 1    
   145   73  150 1    
   146   73  151 1    
   147   74   75 am   BACKBONE|DICT|INTERRES
   148   74  152 1    
   149   75   76 2    
   150   75   77 1    
   151   77   78 1    
   152   77   79 1    
   153   77  153 1    
   154   78  154 1    
   155   78  155 1    
   156   78  156 1    
   157   79   80 am   BACKBONE|DICT|INTERRES
   158   79  157 1    
   159   80   81 2    
@<TRIPOS>SUBSTRUCTURE
     1 UNK         1 GROUP             0       ****    0 ROOT    
