@<TRIPOS>MOLECULE
3R207
157   159    1
SMALL
USER_CHARGES


@<TRIPOS>ATOM
      1 CA        -46.8467  -30.7123    1.8223 C.3       0 UNK        -0.1975 
      2 C         -47.0063  -29.7623    3.0000 C.2       0 UNK         0.4852 
      3 O         -46.3167  -28.7433    3.0623 O.2       0 UNK        -0.5216 
      4 N         -47.9157  -30.0824    3.9292 N.am      1 UNK        -0.4461 
      5 CA        -48.1711  -29.3124    5.1500 C.3       1 UNK         0.0864 
      6 C6        -49.4917  -29.7445    5.8279 C.3       14 UNK        -0.0898 
      7 S7        -50.9449  -29.3465    4.7980 S.3       14 UNK        -0.2598 
      8 C8        -51.7426  -28.0280    5.7678 C.3       14 UNK         0.0286 
      9 C9        -52.5267  -28.5952    6.9422 C.ar      14 UNK        -0.0844 
     10 C10       -51.9406  -28.6917    8.2071 C.ar      14 UNK        -0.0881 
     11 C11       -52.6585  -29.2164    9.2858 C.ar      14 UNK        -0.0643 
     12 C12       -53.9744  -29.6475    9.0917 C.ar      14 UNK        -0.0930 
     13 C13       -54.5730  -29.5531    7.8317 C.ar      14 UNK        -0.0827 
     14 C14       -53.8449  -29.0236    6.7620 C.ar      14 UNK        -0.1249 
     15 C15       -55.9997  -30.0345    7.6190 C.3       14 UNK         0.0141 
     16 S16       -57.2068  -28.8777    8.3363 S.3       14 UNK        -0.2313 
     17 C17       -57.8117  -29.8437    9.7595 C.3       14 UNK        -0.0915 
     18 CA        -58.6027  -28.9610   10.7697 C.3       13 UNK         0.0968 
     19 C         -59.4432  -29.7594   11.8172 C.2       13 UNK         0.5732 
     20 N         -59.8468  -30.9900   11.5285 N.am      13 UNK        -0.7310 
     21 O         -59.7927  -29.2439   12.8783 O.2       13 UNK        -0.5035 
     22 N         -57.7624  -27.9136   11.3781 N.am      13 UNK        -0.4233 
     23 C         -56.8107  -28.1020   12.3026 C.2       13 UNK         0.4989 
     24 O         -56.4551  -29.2095   12.7182 O.2       13 UNK        -0.4996 
     25 CA        -56.1603  -26.8337   12.8778 C.3       12 UNK         0.0216 
     26 CB        -57.2107  -25.8233   13.3907 C.3       12 UNK        -0.1964 
     27 N         -55.2686  -27.2233   13.9677 N.am      12 UNK        -0.4276 
     28 C         -54.2760  -26.4877   14.4756 C.2       12 UNK         0.5020 
     29 O         -53.9921  -25.3543   14.0769 O.2       12 UNK        -0.5489 
     30 CA        -53.4902  -27.1286   15.6331 C.3       11 UNK         0.0294 
     31 CB        -52.6714  -28.3471   15.1710 C.3       11 UNK        -0.2019 
     32 N         -52.5686  -26.1563   16.2119 N.am      11 UNK        -0.4493 
     33 C         -52.7505  -25.4976   17.3617 C.2       11 UNK         0.4932 
     34 O         -53.7128  -25.6790   18.1106 O.2       11 UNK        -0.5029 
     35 CA        -51.6710  -24.4599   17.7298 C.3       10 UNK         0.0280 
     36 CB        -51.7025  -24.0469   19.2169 C.3       10 UNK        -0.1976 
     37 N         -50.3233  -24.8739   17.3213 N.am      10 UNK        -0.4242 
     38 C         -49.6320  -25.9459   17.7432 C.2       10 UNK         0.5072 
     39 O         -50.0243  -26.7089   18.6275 O.2       10 UNK        -0.5224 
     40 CA        -48.2817  -26.2473   17.0600 C.3       9 UNK         0.0343 
     41 CB        -48.3575  -27.5741   16.2848 C.3       9 UNK        -0.2003 
     42 N         -47.8306  -25.1937   16.1473 N.am      9 UNK        -0.4272 
     43 C         -47.3102  -24.0188   16.5272 C.2       9 UNK         0.4988 
     44 O         -47.0727  -23.7217   17.6983 O.2       9 UNK        -0.5108 
     45 CA        -47.0467  -22.9839   15.4186 C.3       8 UNK         0.0248 
     46 CB        -45.6513  -23.1915   14.8097 C.3       8 UNK        -0.2001 
     47 N         -48.0613  -22.9925   14.3568 N.am      8 UNK        -0.4140 
     48 C         -49.3621  -22.7198   14.5431 C.2       8 UNK         0.5028 
     49 O         -49.8433  -22.4067   15.6318 O.2       8 UNK        -0.5428 
     50 CA        -50.2983  -22.8672   13.3316 C.3       7 UNK         0.0264 
     51 CB        -50.1834  -21.6548   12.3943 C.3       7 UNK        -0.1988 
     52 N         -50.0714  -24.1006   12.5766 N.am      7 UNK        -0.4454 
     53 C         -50.2158  -25.3400   13.0707 C.2       7 UNK         0.5027 
     54 O         -50.5724  -25.5823   14.2248 O.2       7 UNK        -0.5083 
     55 CA        -49.8229  -26.5003   12.1311 C.3       6 UNK         0.0844 
     56 C56       -50.8958  -26.7518   11.0405 C.3       14 UNK        -0.0967 
     57 S57       -52.2593  -27.8085   11.6287 S.3       14 UNK        -0.2604 
     58 C58       -52.0160  -29.3274   10.6599 C.3       14 UNK         0.0134 
     59 N         -48.4963  -26.2869   11.5438 N.am      6 UNK        -0.4116 
     60 C         -47.3567  -26.1402   12.2358 C.2       5 UNK         0.5034 
     61 O         -47.2692  -26.2535   13.4574 O.2       5 UNK        -0.5045 
     62 CA        -46.1131  -25.7349   11.4299 C.3       5 UNK         0.0224 
     63 CB        -45.4266  -26.9661   10.8178 C.3       5 UNK        -0.1978 
     64 N         -46.4336  -24.7592   10.3836 N.am      5 UNK        -0.4737 
     65 C         -46.8131  -23.4962   10.6298 C.2       4 UNK         0.5027 
     66 O         -46.8705  -23.0098   11.7575 O.2       4 UNK        -0.5211 
     67 CA        -47.2492  -22.6491    9.4230 C.3       4 UNK         0.0297 
     68 CB        -46.0292  -21.9973    8.7539 C.3       4 UNK        -0.1993 
     69 N         -48.0025  -23.4202    8.4311 N.am      4 UNK        -0.4486 
     70 C         -49.1920  -23.9995    8.6543 C.2       3 UNK         0.4961 
     71 O         -49.8144  -23.8962    9.7105 O.2       3 UNK        -0.5105 
     72 CA        -49.7489  -24.8936    7.5310 C.3       3 UNK         0.0299 
     73 CB        -50.6173  -24.0744    6.5643 C.3       3 UNK        -0.1972 
     74 N         -48.6856  -25.5789    6.7861 N.am      3 UNK        -0.4305 
     75 C         -47.9070  -26.5339    7.3115 C.2       2 UNK         0.5006 
     76 O         -48.0658  -26.9984    8.4427 O.2       2 UNK        -0.5106 
     77 CA        -46.7012  -26.9726    6.4667 C.3       2 UNK         0.0296 
     78 CB        -45.4685  -26.1382    6.8540 C.3       2 UNK        -0.2002 
     79 N         -46.3857  -28.3887    6.6683 N.am      2 UNK        -0.4032 
     80 C         -46.9837  -29.4649    6.1333 C.2       1 UNK         0.5000 
     81 O         -46.6086  -30.6043    6.4163 O.2       1 UNK        -0.5238 
     82 H82       -45.8273  -31.0955    1.7852 H         1 UNK         0.0889 
     83 H83       -47.0488  -30.1890    0.8881 H         1 UNK         0.0889 
     84 H84       -47.5263  -31.5619    1.8887 H         1 UNK         0.0889 
     85 H85       -48.4474  -30.9358    3.8343 H         1 UNK         0.3028 
     86 H86       -48.2902  -28.2755    4.8433 H         1 UNK         0.0864 
     87 H87       -49.4936  -30.8175    6.0293 H         1 UNK         0.0720 
     88 H88       -49.5898  -29.2593    6.7980 H         1 UNK         0.0720 
     89 H89       -52.4150  -27.4693    5.1150 H         1 UNK         0.0814 
     90 H90       -50.9927  -27.3141    6.1098 H         1 UNK         0.0814 
     91 H91       -50.9229  -28.3608    8.3506 H         1 UNK         0.1469 
     92 H92       -54.5357  -30.0505    9.9237 H         1 UNK         0.1381 
     93 H93       -54.3004  -28.9510    5.7836 H         1 UNK         0.1206 
     94 H94       -56.2116  -30.1374    6.5537 H         1 UNK         0.0813 
     95 H95       -56.1200  -31.0316    8.0449 H         1 UNK         0.0813 
     96 H96       -56.9747  -30.3381   10.2546 H         1 UNK         0.0638 
     97 H97       -58.4393  -30.6338    9.3461 H         1 UNK         0.0638 
     98 H98       -59.3577  -28.4197   10.1986 H         1 UNK         0.0568 
     99 H99       -60.4089  -31.4887   12.2003 H         1 UNK         0.3450 
    100 H100      -59.5985  -31.4305   10.6573 H         1 UNK         0.3450 
    101 H101      -57.9955  -26.9688   11.1124 H         1 UNK         0.2987 
    102 H102      -55.5652  -26.3768   12.0841 H         1 UNK         0.0766 
    103 H103      -56.7396  -24.9492   13.8405 H         1 UNK         0.0798 
    104 H104      -57.8633  -26.2714   14.1412 H         1 UNK         0.0798 
    105 H105      -57.8433  -25.4549   12.5829 H         1 UNK         0.0798 
    106 H106      -55.4051  -28.1779   14.2795 H         1 UNK         0.3198 
    107 H107      -54.2136  -27.4605   16.3810 H         1 UNK         0.0843 
    108 H108      -51.8714  -28.0582   14.4898 H         1 UNK         0.0831 
    109 H109      -53.2917  -29.0825   14.6574 H         1 UNK         0.0831 
    110 H110      -52.2099  -28.8511   16.0202 H         1 UNK         0.0831 
    111 H111      -51.7972  -25.8814   15.6054 H         1 UNK         0.3133 
    112 H112      -51.9000  -23.5712   17.1403 H         1 UNK         0.0566 
    113 H113      -50.9331  -23.3075   19.4389 H         1 UNK         0.0814 
    114 H114      -52.6633  -23.6016   19.4777 H         1 UNK         0.0814 
    115 H115      -51.5508  -24.8997   19.8792 H         1 UNK         0.0814 
    116 H116      -49.9133  -24.3059   16.5882 H         1 UNK         0.3091 
    117 H117      -47.5374  -26.3585   17.8511 H         1 UNK         0.0702 
    118 H118      -47.3938  -27.8323   15.8454 H         1 UNK         0.0785 
    119 H119      -49.0904  -27.5274   15.4784 H         1 UNK         0.0785 
    120 H120      -48.6454  -28.3974   16.9398 H         1 UNK         0.0785 
    121 H121      -47.9299  -25.3856   15.1548 H         1 UNK         0.2998 
    122 H122      -47.0702  -21.9953   15.8816 H         1 UNK         0.0697 
    123 H123      -45.5690  -24.1587   14.3136 H         1 UNK         0.0825 
    124 H124      -44.8792  -23.1526   15.5793 H         1 UNK         0.0825 
    125 H125      -45.4180  -22.4182   14.0776 H         1 UNK         0.0825 
    126 H126      -47.7304  -23.1818   13.4126 H         1 UNK         0.3029 
    127 H127      -51.3218  -22.9063   13.7116 H         1 UNK         0.0897 
    128 H128      -50.8931  -21.7232   11.5694 H         1 UNK         0.0792 
    129 H129      -50.3946  -20.7277   12.9289 H         1 UNK         0.0792 
    130 H130      -49.1844  -21.5650   11.9677 H         1 UNK         0.0792 
    131 H131      -49.8113  -23.9966   11.5980 H         1 UNK         0.3086 
    132 H132      -49.7347  -27.4001   12.7441 H         1 UNK         0.0583 
    133 H133      -51.3195  -25.8214   10.6587 H         1 UNK         0.1020 
    134 H134      -50.4314  -27.2286   10.1793 H         1 UNK         0.1020 
    135 H135      -50.9520  -29.5538   10.5733 H         1 UNK         0.0694 
    136 H136      -52.4580  -30.1613   11.2073 H         1 UNK         0.0694 
    137 H137      -48.4534  -26.2003   10.5367 H         1 UNK         0.2989 
    138 H138      -45.4105  -25.2674   12.1232 H         1 UNK         0.1055 
    139 H139      -45.1572  -27.6839   11.5939 H         1 UNK         0.0806 
    140 H140      -44.5064  -26.6916   10.3020 H         1 UNK         0.0806 
    141 H141      -46.0710  -27.4853   10.1083 H         1 UNK         0.0806 
    142 H142      -46.4433  -25.0913    9.4315 H         1 UNK         0.3061 
    143 H143      -47.9011  -21.8553    9.7939 H         1 UNK         0.0734 
    144 H144      -46.3284  -21.3287    7.9466 H         1 UNK         0.0832 
    145 H145      -45.4651  -21.4007    9.4725 H         1 UNK         0.0832 
    146 H146      -45.3454  -22.7400    8.3409 H         1 UNK         0.0832 
    147 H147      -47.5757  -23.5369    7.5244 H         1 UNK         0.3156 
    148 H148      -50.3832  -25.6512    7.9965 H         1 UNK         0.0589 
    149 H149      -50.0413  -23.3007    6.0552 H         1 UNK         0.0808 
    150 H150      -51.0741  -24.7085    5.8042 H         1 UNK         0.0808 
    151 H151      -51.4289  -23.5775    7.0981 H         1 UNK         0.0808 
    152 H152      -48.4935  -25.2408    5.8531 H         1 UNK         0.3098 
    153 H153      -46.8941  -26.7800    5.4107 H         1 UNK         0.0720 
    154 H154      -44.6072  -26.4018    6.2394 H         1 UNK         0.0791 
    155 H155      -45.1867  -26.2838    7.8968 H         1 UNK         0.0791 
    156 H156      -45.6482  -25.0723    6.7078 H         1 UNK         0.0791 
    157 H157      -45.6488  -28.5648    7.3340 H         1 UNK         0.3028 
@<TRIPOS>BOND
     1    1    2 1    
     2    1   82 1    
     3    1   83 1    
     4    1   84 1    
     5    2    3 2    
     6    2    4 am   BACKBONE|DICT|INTERRES
     7    4    5 1    
     8    4   85 1    
     9    5    6 1    
    10    5   80 1    
    11    5   86 1    
    12    6    7 1    
    13    6   87 1    
    14    6   88 1    
    15    7    8 1    
    16    8    9 1    
    17    8   89 1    
    18    8   90 1    
    19    9   10 ar   
    20    9   14 ar   
    21   10   11 ar   
    22   10   91 1    
    23   11   12 ar   
    24   11   58 1    
    25   12   13 ar   
    26   12   92 1    
    27   13   14 ar   
    28   13   15 1    
    29   14   93 1    
    30   15   16 1    
    31   15   94 1    
    32   15   95 1    
    33   16   17 1    
    34   17   18 1    
    35   17   96 1    
    36   17   97 1    
    37   18   19 1    
    38   18   22 1    
    39   18   98 1    
    40   19   20 am   BACKBONE|DICT|INTERRES
    41   19   21 2    
    42   20   99 1    
    43   20  100 1    
    44   22   23 am   BACKBONE|DICT|INTERRES
    45   22  101 1    
    46   23   24 2    
    47   23   25 1    
    48   25   26 1    
    49   25   27 1    
    50   25  102 1    
    51   26  103 1    
    52   26  104 1    
    53   26  105 1    
    54   27   28 am   BACKBONE|DICT|INTERRES
    55   27  106 1    
    56   28   29 2    
    57   28   30 1    
    58   30   31 1    
    59   30   32 1    
    60   30  107 1    
    61   31  108 1    
    62   31  109 1    
    63   31  110 1    
    64   32   33 am   BACKBONE|DICT|INTERRES
    65   32  111 1    
    66   33   34 2    
    67   33   35 1    
    68   35   36 1    
    69   35   37 1    
    70   35  112 1    
    71   36  113 1    
    72   36  114 1    
    73   36  115 1    
    74   37   38 am   BACKBONE|DICT|INTERRES
    75   37  116 1    
    76   38   39 2    
    77   38   40 1    
    78   40   41 1    
    79   40   42 1    
    80   40  117 1    
    81   41  118 1    
    82   41  119 1    
    83   41  120 1    
    84   42   43 am   BACKBONE|DICT|INTERRES
    85   42  121 1    
    86   43   44 2    
    87   43   45 1    
    88   45   46 1    
    89   45   47 1    
    90   45  122 1    
    91   46  123 1    
    92   46  124 1    
    93   46  125 1    
    94   47   48 am   BACKBONE|DICT|INTERRES
    95   47  126 1    
    96   48   49 2    
    97   48   50 1    
    98   50   51 1    
    99   50   52 1    
   100   50  127 1    
   101   51  128 1    
   102   51  129 1    
   103   51  130 1    
   104   52   53 am   BACKBONE|DICT|INTERRES
   105   52  131 1    
   106   53   54 2    
   107   53   55 1    
   108   55   56 1    
   109   55   59 1    
   110   55  132 1    
   111   56   57 1    
   112   56  133 1    
   113   56  134 1    
   114   57   58 1    
   115   58  135 1    
   116   58  136 1    
   117   59   60 am   BACKBONE|DICT|INTERRES
   118   59  137 1    
   119   60   61 2    
   120   60   62 1    
   121   62   63 1    
   122   62   64 1    
   123   62  138 1    
   124   63  139 1    
   125   63  140 1    
   126   63  141 1    
   127   64   65 am   BACKBONE|DICT|INTERRES
   128   64  142 1    
   129   65   66 2    
   130   65   67 1    
   131   67   68 1    
   132   67   69 1    
   133   67  143 1    
   134   68  144 1    
   135   68  145 1    
   136   68  146 1    
   137   69   70 am   BACKBONE|DICT|INTERRES
   138   69  147 1    
   139   70   71 2    
   140   70   72 1    
   141   72   73 1    
   142   72   74 1    
   143   72  148 1    
   144   73  149 1    
   145   73  150 1    
   146   73  151 1    
   147   74   75 am   BACKBONE|DICT|INTERRES
   148   74  152 1    
   149   75   76 2    
   150   75   77 1    
   151   77   78 1    
   152   77   79 1    
   153   77  153 1    
   154   78  154 1    
   155   78  155 1    
   156   78  156 1    
   157   79   80 am   BACKBONE|DICT|INTERRES
   158   79  157 1    
   159   80   81 2    
@<TRIPOS>SUBSTRUCTURE
     1 UNK         1 GROUP             0       ****    0 ROOT    
