@<TRIPOS>MOLECULE
3R207
157   159    1
SMALL
USER_CHARGES


@<TRIPOS>ATOM
      1 CA        -53.8583  -24.3596    7.3864 C.3       0 UNK        -0.1975 
      2 C         -52.4429  -24.9133    7.4587 C.2       0 UNK         0.4852 
      3 O         -51.6011  -24.3508    8.1577 O.2       0 UNK        -0.5216 
      4 N         -52.1754  -26.0149    6.7469 N.am      1 UNK        -0.4461 
      5 CA        -50.8601  -26.6576    6.6822 C.3       1 UNK         0.0864 
      6 C6        -50.9557  -28.0677    6.0437 C.3       14 UNK        -0.0898 
      7 S7        -49.7846  -29.2425    6.7987 S.3       14 UNK        -0.2598 
      8 C8        -50.9065  -30.2726    7.7998 C.3       14 UNK         0.0286 
      9 C9        -51.3567  -29.5599    9.0674 C.ar      14 UNK        -0.0844 
     10 C10       -50.5771  -29.6414   10.2233 C.ar      14 UNK        -0.0881 
     11 C11       -50.9786  -29.0026   11.3997 C.ar      14 UNK        -0.0643 
     12 C12       -52.1845  -28.2961   11.4227 C.ar      14 UNK        -0.0930 
     13 C13       -52.9757  -28.2072   10.2725 C.ar      14 UNK        -0.0827 
     14 C14       -52.5536  -28.8369    9.0968 C.ar      14 UNK        -0.1249 
     15 C15       -54.2839  -27.4272   10.3027 C.3       14 UNK         0.0141 
     16 S16       -55.7451  -28.4697    9.9746 S.3       14 UNK        -0.2313 
     17 C17       -55.6647  -29.6761   11.3402 C.3       14 UNK        -0.0915 
     18 CA        -56.2989  -29.1421   12.6596 C.3       13 UNK         0.0968 
     19 C         -57.8267  -29.4213   12.7994 C.2       13 UNK         0.5732 
     20 N         -58.3965  -29.3260   13.9942 N.am      13 UNK        -0.7310 
     21 O         -58.5150  -29.7105   11.8231 O.2       13 UNK        -0.5035 
     22 N         -55.4954  -29.5198   13.8300 N.am      13 UNK        -0.4233 
     23 C         -55.3085  -30.7644   14.2920 C.2       13 UNK         0.4989 
     24 O         -55.8474  -31.7675   13.8232 O.2       13 UNK        -0.4996 
     25 CA        -54.3358  -30.9188   15.4707 C.3       12 UNK         0.0216 
     26 CB        -52.8844  -30.9010   14.9663 C.3       12 UNK        -0.1964 
     27 N         -54.5209  -29.8426   16.4436 N.am      12 UNK        -0.4276 
     28 C         -55.2637  -29.9399   17.5543 C.2       12 UNK         0.5020 
     29 O         -55.7768  -30.9872   17.9507 O.2       12 UNK        -0.5489 
     30 CA        -55.4924  -28.6436   18.3561 C.3       11 UNK         0.0294 
     31 CB        -54.4266  -28.4952   19.4539 C.3       11 UNK        -0.2019 
     32 N         -55.5023  -27.4364   17.5237 N.am      11 UNK        -0.4493 
     33 C         -56.3890  -27.1849   16.5496 C.2       11 UNK         0.4932 
     34 O         -57.3459  -27.9139   16.2909 O.2       11 UNK        -0.5029 
     35 CA        -56.1461  -25.9387   15.6806 C.3       10 UNK         0.0280 
     36 CB        -56.9919  -24.7605   16.1878 C.3       10 UNK        -0.1976 
     37 N         -54.7419  -25.5215   15.5808 N.am      10 UNK        -0.4242 
     38 C         -53.7360  -26.2666   15.1029 C.2       10 UNK         0.5072 
     39 O         -53.8585  -27.4436   14.7549 O.2       10 UNK        -0.5224 
     40 CA        -52.3634  -25.5805   14.9944 C.3       9 UNK         0.0343 
     41 CB        -51.2501  -26.4812   15.5526 C.3       9 UNK        -0.2003 
     42 N         -52.0621  -25.2118   13.6072 N.am      9 UNK        -0.4272 
     43 C         -52.7343  -24.2742   12.9221 C.2       9 UNK         0.4988 
     44 O         -53.6445  -23.6031   13.4142 O.2       9 UNK        -0.5108 
     45 CA        -52.3246  -24.0398   11.4532 C.3       8 UNK         0.0248 
     46 CB        -53.0914  -22.8536   10.8253 C.3       8 UNK        -0.2001 
     47 N         -50.8800  -23.8665   11.2470 N.am      8 UNK        -0.4140 
     48 C         -50.0750  -22.9687   11.8341 C.2       8 UNK         0.5028 
     49 O         -50.4251  -22.2167   12.7458 O.2       8 UNK        -0.5428 
     50 CA        -48.6309  -22.8987   11.3011 C.3       7 UNK         0.0264 
     51 CB        -47.8383  -21.7142   11.8890 C.3       7 UNK        -0.1988 
     52 N         -47.8960  -24.1351   11.5705 N.am      7 UNK        -0.4454 
     53 C         -47.9457  -25.2364   10.8122 C.2       7 UNK         0.5027 
     54 O         -48.6313  -25.3339    9.7916 O.2       7 UNK        -0.5083 
     55 CA        -47.0962  -26.4304   11.2748 C.3       6 UNK         0.0844 
     56 C56       -47.9522  -27.7047   11.4768 C.3       14 UNK        -0.0967 
     57 S57       -49.1241  -27.5589   12.8651 S.3       14 UNK        -0.2604 
     58 C58       -50.1054  -29.0742   12.6430 C.3       14 UNK         0.0134 
     59 N         -46.0435  -26.6283   10.2848 N.am      6 UNK        -0.4116 
     60 C         -44.9545  -27.3884   10.4506 C.2       5 UNK         0.5034 
     61 O         -44.6763  -27.9686   11.5007 O.2       5 UNK        -0.5045 
     62 CA        -44.0176  -27.5383    9.2442 C.3       5 UNK         0.0224 
     63 CB        -44.6493  -28.4555    8.1822 C.3       5 UNK        -0.1978 
     64 N         -43.7151  -26.2404    8.6411 N.am      5 UNK        -0.4737 
     65 C         -42.5307  -25.6175    8.7058 C.2       4 UNK         0.5027 
     66 O         -41.5441  -26.0816    9.2781 O.2       4 UNK        -0.5211 
     67 CA        -42.4080  -24.2501    8.0037 C.3       4 UNK         0.0297 
     68 CB        -41.7505  -24.4164    6.6240 C.3       4 UNK        -0.1993 
     69 N         -43.6895  -23.5592    7.8420 N.am      4 UNK        -0.4486 
     70 C         -44.4000  -23.0299    8.8465 C.2       3 UNK         0.4961 
     71 O         -44.0051  -22.9798   10.0114 O.2       3 UNK        -0.5105 
     72 CA        -45.8011  -22.4869    8.5090 C.3       3 UNK         0.0299 
     73 CB        -45.7693  -20.9565    8.3732 C.3       3 UNK        -0.1972 
     74 N         -46.4496  -23.0682    7.3244 N.am      3 UNK        -0.4305 
     75 C         -46.7126  -24.3699    7.1475 C.2       2 UNK         0.5006 
     76 O         -46.2886  -25.2654    7.8793 O.2       2 UNK        -0.5106 
     77 CA        -47.5871  -24.7560    5.9581 C.3       2 UNK         0.0296 
     78 CB        -46.7705  -25.5016    4.8874 C.3       2 UNK        -0.2002 
     79 N         -48.6478  -25.6114    6.4788 N.am      2 UNK        -0.4032 
     80 C         -49.8544  -25.7632    5.9266 C.2       1 UNK         0.5000 
     81 O         -50.1901  -25.2430    4.8578 O.2       1 UNK        -0.5238 
     82 H82       -54.3096  -24.3505    8.3778 H         1 UNK         0.0889 
     83 H83       -54.4953  -24.9517    6.7295 H         1 UNK         0.0889 
     84 H84       -53.8407  -23.3368    7.0111 H         1 UNK         0.0889 
     85 H85       -52.8903  -26.4116    6.1549 H         1 UNK         0.3028 
     86 H86       -50.5220  -26.7601    7.7173 H         1 UNK         0.0864 
     87 H87       -50.7830  -28.0414    4.9656 H         1 UNK         0.0720 
     88 H88       -51.9623  -28.4724    6.1536 H         1 UNK         0.0720 
     89 H89       -50.3869  -31.1947    8.0650 H         1 UNK         0.0814 
     90 H90       -51.7677  -30.5787    7.2039 H         1 UNK         0.0814 
     91 H91       -49.6484  -30.1953   10.2030 H         1 UNK         0.1469 
     92 H92       -52.5030  -27.8160   12.3378 H         1 UNK         0.1381 
     93 H93       -53.1670  -28.7719    8.2091 H         1 UNK         0.1206 
     94 H94       -54.2410  -26.6392    9.5505 H         1 UNK         0.0813 
     95 H95       -54.4158  -26.9264   11.2632 H         1 UNK         0.0813 
     96 H96       -56.1403  -30.6046   11.0199 H         1 UNK         0.0638 
     97 H97       -54.6181  -29.9417   11.4917 H         1 UNK         0.0638 
     98 H98       -56.2290  -28.0543   12.6447 H         1 UNK         0.0568 
     99 H99       -57.8730  -29.0109   14.8049 H         1 UNK         0.3450 
    100 H100      -59.3838  -29.5056   14.0793 H         1 UNK         0.3450 
    101 H101      -54.9664  -28.7597   14.2507 H         1 UNK         0.2987 
    102 H102      -54.5208  -31.8881   15.9388 H         1 UNK         0.0766 
    103 H103      -52.7128  -31.6929   14.2360 H         1 UNK         0.0798 
    104 H104      -52.1778  -31.0508   15.7827 H         1 UNK         0.0798 
    105 H105      -52.6450  -29.9537   14.4841 H         1 UNK         0.0798 
    106 H106      -54.1665  -28.9308   16.1774 H         1 UNK         0.3198 
    107 H107      -56.4709  -28.7243   18.8347 H         1 UNK         0.0843 
    108 H108      -53.4253  -28.3869   19.0348 H         1 UNK         0.0831 
    109 H109      -54.4137  -29.3710   20.1043 H         1 UNK         0.0831 
    110 H110      -54.6237  -27.6289   20.0857 H         1 UNK         0.0831 
    111 H111      -54.7574  -26.7713   17.6721 H         1 UNK         0.3133 
    112 H112      -56.4791  -26.1845   14.6701 H         1 UNK         0.0566 
    113 H113      -56.9178  -23.9017   15.5201 H         1 UNK         0.0814 
    114 H114      -58.0470  -25.0326   16.2447 H         1 UNK         0.0814 
    115 H115      -56.6838  -24.4406   17.1840 H         1 UNK         0.0814 
    116 H116      -54.5484  -24.5532   15.7964 H         1 UNK         0.3091 
    117 H117      -52.3768  -24.6657   15.5908 H         1 UNK         0.0702 
    118 H118      -50.2737  -26.0023   15.4770 H         1 UNK         0.0785 
    119 H119      -51.1986  -27.4350   15.0286 H         1 UNK         0.0785 
    120 H120      -51.4217  -26.7029   16.6066 H         1 UNK         0.0785 
    121 H121      -51.3207  -25.7213   13.1477 H         1 UNK         0.2998 
    122 H122      -52.6015  -24.9415   10.9057 H         1 UNK         0.0697 
    123 H123      -52.9139  -21.9263   11.3714 H         1 UNK         0.0825 
    124 H124      -54.1669  -23.0348   10.8319 H         1 UNK         0.0825 
    125 H125      -52.7985  -22.6848    9.7902 H         1 UNK         0.0825 
    126 H126      -50.4734  -24.4377   10.5117 H         1 UNK         0.3029 
    127 H127      -48.6976  -22.7475   10.2209 H         1 UNK         0.0897 
    128 H128      -46.8334  -21.6558   11.4710 H         1 UNK         0.0792 
    129 H129      -47.7435  -21.7886   12.9731 H         1 UNK         0.0792 
    130 H130      -48.3336  -20.7675   11.6695 H         1 UNK         0.0792 
    131 H131      -47.3407  -24.1503   12.4142 H         1 UNK         0.3086 
    132 H132      -46.6170  -26.1760   12.2228 H         1 UNK         0.0583 
    133 H133      -48.4898  -27.9388   10.5572 H         1 UNK         0.1020 
    134 H134      -47.3141  -28.5655   11.6803 H         1 UNK         0.1020 
    135 H135      -49.4383  -29.9367   12.6002 H         1 UNK         0.0694 
    136 H136      -50.7297  -29.2195   13.5227 H         1 UNK         0.0694 
    137 H137      -46.1966  -26.1586    9.3921 H         1 UNK         0.2989 
    138 H138      -43.1017  -28.0170    9.5984 H         1 UNK         0.1055 
    139 H139      -45.5666  -28.0328    7.7696 H         1 UNK         0.0806 
    140 H140      -44.8997  -29.4293    8.6055 H         1 UNK         0.0806 
    141 H141      -43.9622  -28.6299    7.3541 H         1 UNK         0.0806 
    142 H142      -44.4937  -25.7641    8.1939 H         1 UNK         0.3061 
    143 H143      -41.7586  -23.6230    8.6187 H         1 UNK         0.0734 
    144 H144      -41.5871  -23.4525    6.1418 H         1 UNK         0.0832 
    145 H145      -40.7770  -24.9009    6.7124 H         1 UNK         0.0832 
    146 H146      -42.3589  -25.0291    5.9573 H         1 UNK         0.0832 
    147 H147      -44.0931  -23.5501    6.9166 H         1 UNK         0.3156 
    148 H148      -46.4349  -22.7357    9.3599 H         1 UNK         0.0589 
    149 H149      -46.7738  -20.5444    8.2756 H         1 UNK         0.0808 
    150 H150      -45.3186  -20.4947    9.2531 H         1 UNK         0.0808 
    151 H151      -45.1882  -20.6406    7.5059 H         1 UNK         0.0808 
    152 H152      -46.8162  -22.4096    6.6517 H         1 UNK         0.3098 
    153 H153      -48.0244  -23.8545    5.5236 H         1 UNK         0.0720 
    154 H154      -47.3919  -25.7765    4.0349 H         1 UNK         0.0791 
    155 H155      -46.3257  -26.4155    5.2841 H         1 UNK         0.0791 
    156 H156      -45.9590  -24.8786    4.5097 H         1 UNK         0.0791 
    157 H157      -48.4565  -26.0132    7.3901 H         1 UNK         0.3028 
@<TRIPOS>BOND
     1    1    2 1    
     2    1   82 1    
     3    1   83 1    
     4    1   84 1    
     5    2    3 2    
     6    2    4 am   BACKBONE|DICT|INTERRES
     7    4    5 1    
     8    4   85 1    
     9    5    6 1    
    10    5   80 1    
    11    5   86 1    
    12    6    7 1    
    13    6   87 1    
    14    6   88 1    
    15    7    8 1    
    16    8    9 1    
    17    8   89 1    
    18    8   90 1    
    19    9   10 ar   
    20    9   14 ar   
    21   10   11 ar   
    22   10   91 1    
    23   11   12 ar   
    24   11   58 1    
    25   12   13 ar   
    26   12   92 1    
    27   13   14 ar   
    28   13   15 1    
    29   14   93 1    
    30   15   16 1    
    31   15   94 1    
    32   15   95 1    
    33   16   17 1    
    34   17   18 1    
    35   17   96 1    
    36   17   97 1    
    37   18   19 1    
    38   18   22 1    
    39   18   98 1    
    40   19   20 am   BACKBONE|DICT|INTERRES
    41   19   21 2    
    42   20   99 1    
    43   20  100 1    
    44   22   23 am   BACKBONE|DICT|INTERRES
    45   22  101 1    
    46   23   24 2    
    47   23   25 1    
    48   25   26 1    
    49   25   27 1    
    50   25  102 1    
    51   26  103 1    
    52   26  104 1    
    53   26  105 1    
    54   27   28 am   BACKBONE|DICT|INTERRES
    55   27  106 1    
    56   28   29 2    
    57   28   30 1    
    58   30   31 1    
    59   30   32 1    
    60   30  107 1    
    61   31  108 1    
    62   31  109 1    
    63   31  110 1    
    64   32   33 am   BACKBONE|DICT|INTERRES
    65   32  111 1    
    66   33   34 2    
    67   33   35 1    
    68   35   36 1    
    69   35   37 1    
    70   35  112 1    
    71   36  113 1    
    72   36  114 1    
    73   36  115 1    
    74   37   38 am   BACKBONE|DICT|INTERRES
    75   37  116 1    
    76   38   39 2    
    77   38   40 1    
    78   40   41 1    
    79   40   42 1    
    80   40  117 1    
    81   41  118 1    
    82   41  119 1    
    83   41  120 1    
    84   42   43 am   BACKBONE|DICT|INTERRES
    85   42  121 1    
    86   43   44 2    
    87   43   45 1    
    88   45   46 1    
    89   45   47 1    
    90   45  122 1    
    91   46  123 1    
    92   46  124 1    
    93   46  125 1    
    94   47   48 am   BACKBONE|DICT|INTERRES
    95   47  126 1    
    96   48   49 2    
    97   48   50 1    
    98   50   51 1    
    99   50   52 1    
   100   50  127 1    
   101   51  128 1    
   102   51  129 1    
   103   51  130 1    
   104   52   53 am   BACKBONE|DICT|INTERRES
   105   52  131 1    
   106   53   54 2    
   107   53   55 1    
   108   55   56 1    
   109   55   59 1    
   110   55  132 1    
   111   56   57 1    
   112   56  133 1    
   113   56  134 1    
   114   57   58 1    
   115   58  135 1    
   116   58  136 1    
   117   59   60 am   BACKBONE|DICT|INTERRES
   118   59  137 1    
   119   60   61 2    
   120   60   62 1    
   121   62   63 1    
   122   62   64 1    
   123   62  138 1    
   124   63  139 1    
   125   63  140 1    
   126   63  141 1    
   127   64   65 am   BACKBONE|DICT|INTERRES
   128   64  142 1    
   129   65   66 2    
   130   65   67 1    
   131   67   68 1    
   132   67   69 1    
   133   67  143 1    
   134   68  144 1    
   135   68  145 1    
   136   68  146 1    
   137   69   70 am   BACKBONE|DICT|INTERRES
   138   69  147 1    
   139   70   71 2    
   140   70   72 1    
   141   72   73 1    
   142   72   74 1    
   143   72  148 1    
   144   73  149 1    
   145   73  150 1    
   146   73  151 1    
   147   74   75 am   BACKBONE|DICT|INTERRES
   148   74  152 1    
   149   75   76 2    
   150   75   77 1    
   151   77   78 1    
   152   77   79 1    
   153   77  153 1    
   154   78  154 1    
   155   78  155 1    
   156   78  156 1    
   157   79   80 am   BACKBONE|DICT|INTERRES
   158   79  157 1    
   159   80   81 2    
@<TRIPOS>SUBSTRUCTURE
     1 UNK         1 GROUP             0       ****    0 ROOT    
