@<TRIPOS>MOLECULE
3R207
157   159    1
SMALL
USER_CHARGES


@<TRIPOS>ATOM
      1 CA        -49.3714  -31.6911   10.6284 C.3       0 UNK        -0.1975 
      2 C         -48.8944  -30.9835    9.3691 C.2       0 UNK         0.4852 
      3 O         -47.7170  -31.0825    9.0208 O.2       0 UNK        -0.5216 
      4 N         -49.8029  -30.2812    8.6809 N.am      1 UNK        -0.4461 
      5 CA        -49.5170  -29.4804    7.4863 C.3       1 UNK         0.0864 
      6 C6        -50.8118  -29.0211    6.7720 C.3       14 UNK        -0.0898 
      7 S7        -52.0341  -30.3265    6.4082 S.3       14 UNK        -0.2598 
      8 C8        -53.1664  -29.4470    5.2703 C.3       14 UNK         0.0286 
      9 C9        -53.6156  -28.1047    5.8358 C.ar      14 UNK        -0.0844 
     10 C10       -52.9027  -26.9440    5.5212 C.ar      14 UNK        -0.0881 
     11 C11       -53.2078  -25.7300    6.1396 C.ar      14 UNK        -0.0643 
     12 C12       -54.2839  -25.6641    7.0283 C.ar      14 UNK        -0.0930 
     13 C13       -55.0400  -26.8071    7.3107 C.ar      14 UNK        -0.0827 
     14 C14       -54.6993  -28.0264    6.7147 C.ar      14 UNK        -0.1249 
     15 C15       -56.2095  -26.7210    8.2786 C.3       14 UNK         0.0141 
     16 S16       -55.6909  -27.1241    9.9748 S.3       14 UNK        -0.2313 
     17 C17       -55.7711  -28.9498    9.9792 C.3       14 UNK        -0.0915 
     18 CA        -56.4864  -29.4895   11.2544 C.3       13 UNK         0.0968 
     19 C         -56.7959  -31.0198   11.2345 C.2       13 UNK         0.5732 
     20 N         -56.8959  -31.6502   10.0711 N.am      13 UNK        -0.7310 
     21 O         -57.0134  -31.6367   12.2766 O.2       13 UNK        -0.5035 
     22 N         -55.8185  -29.0467   12.4910 N.am      13 UNK        -0.4233 
     23 C         -54.6309  -29.4723   12.9384 C.2       13 UNK         0.4989 
     24 O         -53.9393  -30.3290   12.3790 O.2       13 UNK        -0.4996 
     25 CA        -54.1291  -28.8197   14.2337 C.3       12 UNK         0.0216 
     26 CB        -55.0154  -29.1865   15.4388 C.3       12 UNK        -0.1964 
     27 N         -52.7644  -29.2715   14.4870 N.am      12 UNK        -0.4276 
     28 C         -51.7626  -28.5126   14.9343 C.2       12 UNK         0.5020 
     29 O         -51.8827  -27.3247   15.2477 O.2       12 UNK        -0.5489 
     30 CA        -50.3934  -29.1958   15.0503 C.3       11 UNK         0.0294 
     31 CB        -49.9274  -29.8206   13.7186 C.3       11 UNK        -0.2019 
     32 N         -49.4338  -28.1991   15.5102 N.am      11 UNK        -0.4493 
     33 C         -48.2405  -28.4484   16.0581 C.2       11 UNK         0.4932 
     34 O         -47.7930  -29.5850   16.2150 O.2       11 UNK        -0.5029 
     35 CA        -47.4005  -27.2469   16.5209 C.3       10 UNK         0.0280 
     36 CB        -45.9554  -27.3077   15.9885 C.3       10 UNK        -0.1976 
     37 N         -47.9971  -25.9537   16.1684 N.am      10 UNK        -0.4242 
     38 C         -47.9335  -24.8649   16.9472 C.2       10 UNK         0.5072 
     39 O         -47.4175  -24.8499   18.0659 O.2       10 UNK        -0.5224 
     40 CA        -48.5206  -23.5619   16.3912 C.3       9 UNK         0.0343 
     41 CB        -47.4347  -22.7683   15.6452 C.3       9 UNK        -0.2003 
     42 N         -49.6361  -23.7967   15.4789 N.am      9 UNK        -0.4272 
     43 C         -50.9326  -23.6851   15.7919 C.2       9 UNK         0.4988 
     44 O         -51.3516  -23.4682   16.9308 O.2       9 UNK        -0.5108 
     45 CA        -51.9093  -23.7844   14.6023 C.3       8 UNK         0.0248 
     46 CB        -53.3393  -23.3173   14.9432 C.3       8 UNK        -0.2001 
     47 N         -51.3945  -23.0877   13.4150 N.am      8 UNK        -0.4140 
     48 C         -51.0552  -21.7924   13.3016 C.2       8 UNK         0.5028 
     49 O         -51.2493  -20.9462   14.1751 O.2       8 UNK        -0.5428 
     50 CA        -50.3343  -21.3688   12.0083 C.3       7 UNK         0.0264 
     51 CB        -48.8381  -21.1428   12.2856 C.3       7 UNK        -0.1988 
     52 N         -50.4668  -22.3555   10.9350 N.am      7 UNK        -0.4454 
     53 C         -51.5415  -22.4731   10.1428 C.2       7 UNK         0.5027 
     54 O         -52.5028  -21.7036   10.1710 O.2       7 UNK        -0.5083 
     55 CA        -51.5535  -23.6746    9.1784 C.3       6 UNK         0.0844 
     56 C56       -50.7317  -23.3499    7.9074 C.3       14 UNK        -0.0967 
     57 S57       -50.7183  -24.7000    6.6847 S.3       14 UNK        -0.2604 
     58 C58       -52.3380  -24.5125    5.8704 C.3       14 UNK         0.0134 
     59 N         -51.1261  -24.9084    9.8494 N.am      6 UNK        -0.4116 
     60 C         -51.7979  -25.5047   10.8457 C.2       5 UNK         0.5034 
     61 O         -52.8484  -25.0748   11.3189 O.2       5 UNK        -0.5045 
     62 CA        -51.1884  -26.7777   11.4430 C.3       5 UNK         0.0224 
     63 CB        -51.7341  -28.0152   10.7149 C.3       5 UNK        -0.1978 
     64 N         -49.7256  -26.7716   11.3846 N.am      5 UNK        -0.4737 
     65 C         -48.9370  -26.2445   12.3290 C.2       4 UNK         0.5027 
     66 O         -49.3450  -25.7054   13.3595 O.2       4 UNK        -0.5211 
     67 CA        -47.4233  -26.3478   12.0992 C.3       4 UNK         0.0297 
     68 CB        -46.9607  -27.8045   12.2750 C.3       4 UNK        -0.1993 
     69 N         -46.9351  -25.8475   10.8109 N.am      4 UNK        -0.4486 
     70 C         -47.2528  -24.7030   10.1869 C.2       3 UNK         0.4961 
     71 O         -48.1509  -23.9400   10.5416 O.2       3 UNK        -0.5105 
     72 CA        -46.3980  -24.3256    8.9603 C.3       3 UNK         0.0299 
     73 CB        -45.4320  -23.1909    9.3363 C.3       3 UNK        -0.1972 
     74 N         -45.6159  -25.4574    8.4415 N.am      3 UNK        -0.4305 
     75 C         -46.0269  -26.4318    7.6149 C.2       2 UNK         0.5006 
     76 O         -45.3035  -27.3905    7.3445 O.2       2 UNK        -0.5106 
     77 CA        -47.4008  -26.3272    6.9254 C.3       2 UNK         0.0296 
     78 CB        -47.2483  -25.7185    5.5219 C.3       2 UNK        -0.2002 
     79 N         -48.0562  -27.6291    6.8162 N.am      2 UNK        -0.4032 
     80 C         -48.6907  -28.2229    7.8345 C.2       1 UNK         0.5000 
     81 O         -48.7235  -27.7572    8.9778 O.2       1 UNK        -0.5238 
     82 H82       -50.4053  -31.4438   10.8689 H         1 UNK         0.0889 
     83 H83       -48.7474  -31.4059   11.4746 H         1 UNK         0.0889 
     84 H84       -49.3002  -32.7710   10.5016 H         1 UNK         0.0889 
     85 H85       -50.7589  -30.2477    9.0017 H         1 UNK         0.3028 
     86 H86       -48.9343  -30.0979    6.7995 H         1 UNK         0.0864 
     87 H87       -51.3192  -28.2622    7.3704 H         1 UNK         0.0720 
     88 H88       -50.5527  -28.5427    5.8260 H         1 UNK         0.0720 
     89 H89       -54.0347  -30.0773    5.0732 H         1 UNK         0.0814 
     90 H90       -52.6692  -29.3050    4.3094 H         1 UNK         0.0814 
     91 H91       -52.0613  -26.9948    4.8439 H         1 UNK         0.1469 
     92 H92       -54.5258  -24.7278    7.5120 H         1 UNK         0.1381 
     93 H93       -55.2570  -28.9203    6.9561 H         1 UNK         0.1206 
     94 H94       -56.6193  -25.7098    8.2737 H         1 UNK         0.0813 
     95 H95       -57.0233  -27.3737    7.9600 H         1 UNK         0.0813 
     96 H96       -54.7593  -29.3494    9.8966 H         1 UNK         0.0638 
     97 H97       -56.3013  -29.2705    9.0830 H         1 UNK         0.0638 
     98 H98       -57.4734  -29.0269   11.2854 H         1 UNK         0.0568 
     99 H99       -57.1199  -32.6328   10.0677 H         1 UNK         0.3450 
    100 H100      -56.7446  -31.1677    9.2003 H         1 UNK         0.3450 
    101 H101      -56.3231  -28.3591   13.0300 H         1 UNK         0.2987 
    102 H102      -54.1423  -27.7374   14.0845 H         1 UNK         0.0766 
    103 H103      -56.0370  -28.8289   15.3070 H         1 UNK         0.0798 
    104 H104      -55.0631  -30.2659   15.5891 H         1 UNK         0.0798 
    105 H105      -54.6359  -28.7383   16.3574 H         1 UNK         0.0798 
    106 H106      -52.5731  -30.2098   14.1590 H         1 UNK         0.3198 
    107 H107      -50.4798  -29.9776   15.8080 H         1 UNK         0.0843 
    108 H108      -50.6335  -30.5662   13.3530 H         1 UNK         0.0831 
    109 H109      -48.9684  -30.3259   13.8315 H         1 UNK         0.0831 
    110 H110      -49.8121  -29.0678   12.9417 H         1 UNK         0.0831 
    111 H111      -49.8054  -27.2564   15.4802 H         1 UNK         0.3133 
    112 H112      -47.3602  -27.3397   17.6081 H         1 UNK         0.0566 
    113 H113      -45.3375  -26.5306   16.4386 H         1 UNK         0.0814 
    114 H114      -45.4846  -28.2637   16.2215 H         1 UNK         0.0814 
    115 H115      -45.9162  -27.1773   14.9079 H         1 UNK         0.0814 
    116 H116      -48.4329  -25.8798   15.2555 H         1 UNK         0.3091 
    117 H117      -48.8564  -22.9602   17.2386 H         1 UNK         0.0702 
    118 H118      -47.8163  -21.8068   15.3010 H         1 UNK         0.0785 
    119 H119      -47.0596  -23.3108   14.7762 H         1 UNK         0.0785 
    120 H120      -46.5833  -22.5637   16.2959 H         1 UNK         0.0785 
    121 H121      -49.4088  -24.0743   14.5300 H         1 UNK         0.2998 
    122 H122      -51.9620  -24.8400   14.3339 H         1 UNK         0.0697 
    123 H123      -53.3601  -22.2763   15.2667 H         1 UNK         0.0825 
    124 H124      -53.7623  -23.9183   15.7490 H         1 UNK         0.0825 
    125 H125      -54.0015  -23.4168   14.0830 H         1 UNK         0.0825 
    126 H126      -51.1991  -23.6827   12.6231 H         1 UNK         0.3029 
    127 H127      -50.7707  -20.4226   11.6806 H         1 UNK         0.0897 
    128 H128      -48.3162  -20.8002   11.3920 H         1 UNK         0.0792 
    129 H129      -48.6922  -20.3856   13.0572 H         1 UNK         0.0792 
    130 H130      -48.3492  -22.0561   12.6276 H         1 UNK         0.0792 
    131 H131      -49.6881  -23.0044   10.8155 H         1 UNK         0.3086 
    132 H132      -52.5904  -23.8257    8.8719 H         1 UNK         0.0583 
    133 H133      -51.1077  -22.4458    7.4240 H         1 UNK         0.1020 
    134 H134      -49.6937  -23.1360    8.1703 H         1 UNK         0.1020 
    135 H135      -52.8348  -23.5998    6.2023 H         1 UNK         0.0694 
    136 H136      -52.1845  -24.4051    4.7957 H         1 UNK         0.0694 
    137 H137      -50.2611  -25.3216    9.5332 H         1 UNK         0.2989 
    138 H138      -51.5055  -26.8319   12.4866 H         1 UNK         0.1055 
    139 H139      -51.3608  -28.9399   11.1523 H         1 UNK         0.0806 
    140 H140      -51.4685  -28.0069    9.6592 H         1 UNK         0.0806 
    141 H141      -52.8223  -28.0487   10.7738 H         1 UNK         0.0806 
    142 H142      -49.2910  -27.1772   10.5535 H         1 UNK         0.3061 
    143 H143      -46.9426  -25.7440   12.8712 H         1 UNK         0.0734 
    144 H144      -47.3345  -28.2306   13.2060 H         1 UNK         0.0832 
    145 H145      -47.3179  -28.4416   11.4642 H         1 UNK         0.0832 
    146 H146      -45.8735  -27.8769   12.3026 H         1 UNK         0.0832 
    147 H147      -46.2115  -26.4045   10.3818 H         1 UNK         0.3156 
    148 H148      -47.0577  -23.9309    8.1867 H         1 UNK         0.0589 
    149 H149      -44.7370  -23.4912   10.1216 H         1 UNK         0.0808 
    150 H150      -44.8469  -22.8658    8.4757 H         1 UNK         0.0808 
    151 H151      -45.9772  -22.3190    9.7017 H         1 UNK         0.0808 
    152 H152      -44.6776  -25.5327    8.8081 H         1 UNK         0.3098 
    153 H153      -48.0730  -25.6929    7.5003 H         1 UNK         0.0720 
    154 H154      -48.2130  -25.6209    5.0234 H         1 UNK         0.0791 
    155 H155      -46.6007  -26.3237    4.8860 H         1 UNK         0.0791 
    156 H156      -46.8119  -24.7202    5.5765 H         1 UNK         0.0791 
    157 H157      -48.0399  -28.0721    5.9095 H         1 UNK         0.3028 
@<TRIPOS>BOND
     1    1    2 1    
     2    1   82 1    
     3    1   83 1    
     4    1   84 1    
     5    2    3 2    
     6    2    4 am   BACKBONE|DICT|INTERRES
     7    4    5 1    
     8    4   85 1    
     9    5    6 1    
    10    5   80 1    
    11    5   86 1    
    12    6    7 1    
    13    6   87 1    
    14    6   88 1    
    15    7    8 1    
    16    8    9 1    
    17    8   89 1    
    18    8   90 1    
    19    9   10 ar   
    20    9   14 ar   
    21   10   11 ar   
    22   10   91 1    
    23   11   12 ar   
    24   11   58 1    
    25   12   13 ar   
    26   12   92 1    
    27   13   14 ar   
    28   13   15 1    
    29   14   93 1    
    30   15   16 1    
    31   15   94 1    
    32   15   95 1    
    33   16   17 1    
    34   17   18 1    
    35   17   96 1    
    36   17   97 1    
    37   18   19 1    
    38   18   22 1    
    39   18   98 1    
    40   19   20 am   BACKBONE|DICT|INTERRES
    41   19   21 2    
    42   20   99 1    
    43   20  100 1    
    44   22   23 am   BACKBONE|DICT|INTERRES
    45   22  101 1    
    46   23   24 2    
    47   23   25 1    
    48   25   26 1    
    49   25   27 1    
    50   25  102 1    
    51   26  103 1    
    52   26  104 1    
    53   26  105 1    
    54   27   28 am   BACKBONE|DICT|INTERRES
    55   27  106 1    
    56   28   29 2    
    57   28   30 1    
    58   30   31 1    
    59   30   32 1    
    60   30  107 1    
    61   31  108 1    
    62   31  109 1    
    63   31  110 1    
    64   32   33 am   BACKBONE|DICT|INTERRES
    65   32  111 1    
    66   33   34 2    
    67   33   35 1    
    68   35   36 1    
    69   35   37 1    
    70   35  112 1    
    71   36  113 1    
    72   36  114 1    
    73   36  115 1    
    74   37   38 am   BACKBONE|DICT|INTERRES
    75   37  116 1    
    76   38   39 2    
    77   38   40 1    
    78   40   41 1    
    79   40   42 1    
    80   40  117 1    
    81   41  118 1    
    82   41  119 1    
    83   41  120 1    
    84   42   43 am   BACKBONE|DICT|INTERRES
    85   42  121 1    
    86   43   44 2    
    87   43   45 1    
    88   45   46 1    
    89   45   47 1    
    90   45  122 1    
    91   46  123 1    
    92   46  124 1    
    93   46  125 1    
    94   47   48 am   BACKBONE|DICT|INTERRES
    95   47  126 1    
    96   48   49 2    
    97   48   50 1    
    98   50   51 1    
    99   50   52 1    
   100   50  127 1    
   101   51  128 1    
   102   51  129 1    
   103   51  130 1    
   104   52   53 am   BACKBONE|DICT|INTERRES
   105   52  131 1    
   106   53   54 2    
   107   53   55 1    
   108   55   56 1    
   109   55   59 1    
   110   55  132 1    
   111   56   57 1    
   112   56  133 1    
   113   56  134 1    
   114   57   58 1    
   115   58  135 1    
   116   58  136 1    
   117   59   60 am   BACKBONE|DICT|INTERRES
   118   59  137 1    
   119   60   61 2    
   120   60   62 1    
   121   62   63 1    
   122   62   64 1    
   123   62  138 1    
   124   63  139 1    
   125   63  140 1    
   126   63  141 1    
   127   64   65 am   BACKBONE|DICT|INTERRES
   128   64  142 1    
   129   65   66 2    
   130   65   67 1    
   131   67   68 1    
   132   67   69 1    
   133   67  143 1    
   134   68  144 1    
   135   68  145 1    
   136   68  146 1    
   137   69   70 am   BACKBONE|DICT|INTERRES
   138   69  147 1    
   139   70   71 2    
   140   70   72 1    
   141   72   73 1    
   142   72   74 1    
   143   72  148 1    
   144   73  149 1    
   145   73  150 1    
   146   73  151 1    
   147   74   75 am   BACKBONE|DICT|INTERRES
   148   74  152 1    
   149   75   76 2    
   150   75   77 1    
   151   77   78 1    
   152   77   79 1    
   153   77  153 1    
   154   78  154 1    
   155   78  155 1    
   156   78  156 1    
   157   79   80 am   BACKBONE|DICT|INTERRES
   158   79  157 1    
   159   80   81 2    
@<TRIPOS>SUBSTRUCTURE
     1 UNK         1 GROUP             0       ****    0 ROOT    
