@<TRIPOS>MOLECULE
3R207
157   159    1
SMALL
USER_CHARGES


@<TRIPOS>ATOM
      1 CA        -44.8743  -27.5974    5.1124 C.3       0 UNK        -0.1975 
      2 C         -46.2834  -27.0288    5.1742 C.2       0 UNK         0.4852 
      3 O         -46.4913  -25.8834    4.7708 O.2       0 UNK        -0.5216 
      4 N         -47.2478  -27.8155    5.6783 N.am      1 UNK        -0.4461 
      5 CA        -48.6685  -27.4643    5.7973 C.3       1 UNK         0.0864 
      6 C6        -49.5153  -28.6565    6.3087 C.3       14 UNK        -0.0898 
      7 S7        -51.2210  -28.5890    5.6738 S.3       14 UNK        -0.2598 
      8 C8        -52.1489  -29.4309    7.0015 C.3       14 UNK         0.0286 
      9 C9        -52.5123  -28.5407    8.1890 C.ar      14 UNK        -0.0844 
     10 C10       -52.9080  -27.2100    8.0111 C.ar      14 UNK        -0.0881 
     11 C11       -53.3095  -26.4313    9.1004 C.ar      14 UNK        -0.0643 
     12 C12       -53.3398  -27.0017   10.3758 C.ar      14 UNK        -0.0930 
     13 C13       -52.9432  -28.3257   10.5763 C.ar      14 UNK        -0.0827 
     14 C14       -52.5223  -29.0846    9.4773 C.ar      14 UNK        -0.1249 
     15 C15       -52.9692  -28.9081   11.9883 C.3       14 UNK         0.0141 
     16 S16       -53.6078  -30.6153   12.0677 S.3       14 UNK        -0.2313 
     17 C17       -55.2857  -30.4128   11.3698 C.3       14 UNK        -0.0915 
     18 CA        -56.3910  -31.1569   12.1623 C.3       13 UNK         0.0968 
     19 C         -56.2623  -32.7049   12.0369 C.2       13 UNK         0.5732 
     20 N         -55.9848  -33.4403   13.1074 N.am      13 UNK        -0.7310 
     21 O         -56.4330  -33.2482   10.9478 O.2       13 UNK        -0.5035 
     22 N         -56.5162  -30.6360   13.5322 N.am      13 UNK        -0.4233 
     23 C         -57.5612  -30.8349   14.3420 C.2       13 UNK         0.4989 
     24 O         -58.5728  -31.4567   14.0152 O.2       13 UNK        -0.4996 
     25 CA        -57.4780  -30.2363   15.7566 C.3       12 UNK         0.0216 
     26 CB        -56.4859  -31.0195   16.6406 C.3       12 UNK        -0.1964 
     27 N         -57.2166  -28.7894   15.7918 N.am      12 UNK        -0.4276 
     28 C         -56.1116  -28.1245   15.4273 C.2       12 UNK         0.5020 
     29 O         -55.0999  -28.6558   14.9624 O.2       12 UNK        -0.5489 
     30 CA        -56.1466  -26.6071   15.6412 C.3       11 UNK         0.0294 
     31 CB        -56.0297  -26.2600   17.1386 C.3       11 UNK        -0.2019 
     32 N         -55.0474  -25.9859   14.9085 N.am      11 UNK        -0.4493 
     33 C         -54.9956  -24.7089   14.5172 C.2       11 UNK         0.4932 
     34 O         -55.9125  -23.9068   14.7047 O.2       11 UNK        -0.5029 
     35 CA        -53.6885  -24.2431   13.8432 C.3       10 UNK         0.0280 
     36 CB        -53.7540  -22.7715   13.3920 C.3       10 UNK        -0.1976 
     37 N         -52.5392  -24.4176   14.7365 N.am      10 UNK        -0.4242 
     38 C         -51.9148  -25.5792   14.9639 C.2       10 UNK         0.5072 
     39 O         -52.2077  -26.6302   14.3926 O.2       10 UNK        -0.5224 
     40 CA        -50.8259  -25.5804   16.0422 C.3       9 UNK         0.0343 
     41 CB        -51.0365  -26.7369   17.0414 C.3       9 UNK        -0.2003 
     42 N         -49.5099  -25.6734   15.4140 N.am      9 UNK        -0.4272 
     43 C         -48.3590  -25.3431   16.0167 C.2       9 UNK         0.4988 
     44 O         -48.2858  -24.9419   17.1795 O.2       9 UNK        -0.5108 
     45 CA        -47.0672  -25.4611   15.1898 C.3       8 UNK         0.0248 
     46 CB        -46.6869  -26.9322   14.9522 C.3       8 UNK        -0.2001 
     47 N         -47.1558  -24.7552   13.9122 N.am      8 UNK        -0.4140 
     48 C         -47.2427  -23.4240   13.7727 C.2       8 UNK         0.5028 
     49 O         -47.1692  -22.6263   14.7083 O.2       8 UNK        -0.5428 
     50 CA        -47.4755  -22.8904   12.3486 C.3       7 UNK         0.0264 
     51 CB        -46.1487  -22.7066   11.5932 C.3       7 UNK        -0.1988 
     52 N         -48.3706  -23.7575   11.5805 N.am      7 UNK        -0.4454 
     53 C         -49.6866  -23.8701   11.8157 C.2       7 UNK         0.5027 
     54 O         -50.2828  -23.1970   12.6558 O.2       7 UNK        -0.5083 
     55 CA        -50.4624  -24.9173   10.9889 C.3       6 UNK         0.0844 
     56 C56       -51.0827  -24.2840    9.7169 C.3       14 UNK        -0.0967 
     57 S57       -52.8255  -23.8079    9.9712 S.3       14 UNK        -0.2604 
     58 C58       -53.7153  -24.9768    8.8874 C.3       14 UNK         0.0134 
     59 N         -49.6498  -26.1015   10.6868 N.am      6 UNK        -0.4116 
     60 C         -49.2711  -26.9911   11.6162 C.2       5 UNK         0.5034 
     61 O         -49.5529  -26.9006   12.8097 O.2       5 UNK        -0.5045 
     62 CA        -48.3629  -28.1424   11.1594 C.3       5 UNK         0.0224 
     63 CB        -49.1850  -29.2751   10.5291 C.3       5 UNK        -0.1978 
     64 N         -47.3038  -27.7263   10.2368 N.am      5 UNK        -0.4737 
     65 C         -46.3648  -26.8134   10.5160 C.2       4 UNK         0.5027 
     66 O         -46.3393  -26.1601   11.5572 O.2       4 UNK        -0.5211 
     67 CA        -45.2731  -26.5853    9.4694 C.3       4 UNK         0.0297 
     68 CB        -44.9247  -27.8515    8.6637 C.3       4 UNK        -0.1993 
     69 N         -45.6816  -25.5082    8.5677 N.am      4 UNK        -0.4486 
     70 C         -44.9360  -24.4260    8.3006 C.2       3 UNK         0.4961 
     71 O         -43.8332  -24.2208    8.8096 O.2       3 UNK        -0.5105 
     72 CA        -45.4684  -23.3972    7.2853 C.3       3 UNK         0.0299 
     73 CB        -44.4953  -23.2546    6.1015 C.3       3 UNK        -0.1972 
     74 N         -46.7916  -23.7274    6.7560 N.am      3 UNK        -0.4305 
     75 C         -47.9523  -23.2837    7.2579 C.2       2 UNK         0.5006 
     76 O         -48.0435  -22.5686    8.2550 O.2       2 UNK        -0.5106 
     77 CA        -49.2361  -23.7268    6.5307 C.3       2 UNK         0.0296 
     78 CB        -49.5795  -22.7351    5.4081 C.3       2 UNK        -0.2002 
     79 N         -49.1690  -25.0801    5.9755 N.am      2 UNK        -0.4032 
     80 C         -48.8663  -26.1966    6.6535 C.2       1 UNK         0.5000 
     81 O         -48.6646  -26.2365    7.8724 O.2       1 UNK        -0.5238 
     82 H82       -44.5422  -27.6581    4.0765 H         1 UNK         0.0889 
     83 H83       -44.8148  -28.5950    5.5468 H         1 UNK         0.0889 
     84 H84       -44.1853  -26.9480    5.6517 H         1 UNK         0.0889 
     85 H85       -47.0058  -28.7456    5.9874 H         1 UNK         0.3028 
     86 H86       -48.9913  -27.2400    4.7779 H         1 UNK         0.0864 
     87 H87       -49.5164  -28.7155    7.3970 H         1 UNK         0.0720 
     88 H88       -49.0941  -29.6005    5.9596 H         1 UNK         0.0720 
     89 H89       -51.5806  -30.3022    7.3312 H         1 UNK         0.0814 
     90 H90       -53.0766  -29.8163    6.5770 H         1 UNK         0.0814 
     91 H91       -52.9136  -26.7801    7.0192 H         1 UNK         0.1469 
     92 H92       -53.6596  -26.4046   11.2174 H         1 UNK         0.1381 
     93 H93       -52.2209  -30.1126    9.6238 H         1 UNK         0.1206 
     94 H94       -51.9595  -28.8838   12.3992 H         1 UNK         0.0813 
     95 H95       -53.5782  -28.2875   12.6474 H         1 UNK         0.0813 
     96 H96       -55.5305  -29.3502   11.3322 H         1 UNK         0.0638 
     97 H97       -55.2662  -30.7439   10.3300 H         1 UNK         0.0638 
     98 H98       -57.3334  -30.9174   11.6662 H         1 UNK         0.0568 
     99 H99       -55.9102  -34.4407   13.0141 H         1 UNK         0.3450 
    100 H100      -55.8327  -33.0011   14.0002 H         1 UNK         0.3450 
    101 H101      -55.7392  -30.0827   13.8859 H         1 UNK         0.2987 
    102 H102      -58.4667  -30.3616   16.2016 H         1 UNK         0.0766 
    103 H103      -56.4940  -30.6495   17.6658 H         1 UNK         0.0798 
    104 H104      -55.4621  -30.9536   16.2711 H         1 UNK         0.0798 
    105 H105      -56.7491  -32.0774   16.6771 H         1 UNK         0.0798 
    106 H106      -57.9916  -28.2367   16.1331 H         1 UNK         0.3198 
    107 H107      -57.0941  -26.2315   15.2483 H         1 UNK         0.0843 
    108 H108      -55.0885  -26.6170   17.5591 H         1 UNK         0.0831 
    109 H109      -56.8371  -26.7107   17.7168 H         1 UNK         0.0831 
    110 H110      -56.0816  -25.1838   17.3042 H         1 UNK         0.0831 
    111 H111      -54.2648  -26.6044   14.7025 H         1 UNK         0.3133 
    112 H112      -53.5404  -24.8551   12.9523 H         1 UNK         0.0566 
    113 H113      -52.8418  -22.4730   12.8762 H         1 UNK         0.0814 
    114 H114      -54.5788  -22.6144   12.6956 H         1 UNK         0.0814 
    115 H115      -53.9008  -22.0935   14.2335 H         1 UNK         0.0814 
    116 H116      -52.2461  -23.5997   15.2511 H         1 UNK         0.3091 
    117 H117      -50.8858  -24.6381   16.5913 H         1 UNK         0.0702 
    118 H118      -50.3374  -26.6802   17.8756 H         1 UNK         0.0785 
    119 H119      -50.9078  -27.7084   16.5624 H         1 UNK         0.0785 
    120 H120      -52.0429  -26.7110   17.4615 H         1 UNK         0.0785 
    121 H121      -49.5022  -26.0237   14.4558 H         1 UNK         0.2998 
    122 H122      -46.2620  -24.9989   15.7649 H         1 UNK         0.0697 
    123 H123      -47.4416  -27.4601   14.3697 H         1 UNK         0.0825 
    124 H124      -46.5761  -27.4629   15.8986 H         1 UNK         0.0825 
    125 H125      -45.7390  -27.0146   14.4201 H         1 UNK         0.0825 
    126 H126      -47.1333  -25.3250   13.0700 H         1 UNK         0.3029 
    127 H127      -47.9491  -21.9100   12.4371 H         1 UNK         0.0897 
    128 H128      -46.3138  -22.2927   10.5980 H         1 UNK         0.0792 
    129 H129      -45.4925  -22.0173   12.1259 H         1 UNK         0.0792 
    130 H130      -45.6067  -23.6453   11.4788 H         1 UNK         0.0792 
    131 H131      -47.9419  -24.3657   10.8977 H         1 UNK         0.3086 
    132 H132      -51.2731  -25.2725   11.6298 H         1 UNK         0.0583 
    133 H133      -50.5316  -23.3975    9.3983 H         1 UNK         0.1020 
    134 H134      -51.0303  -24.9795    8.8788 H         1 UNK         0.1020 
    135 H135      -54.7865  -24.8783    9.0674 H         1 UNK         0.0694 
    136 H136      -53.5478  -24.6774    7.8516 H         1 UNK         0.0694 
    137 H137      -49.3459  -26.2317    9.7257 H         1 UNK         0.2989 
    138 H138      -47.8730  -28.5391   12.0514 H         1 UNK         0.1055 
    139 H139      -49.7180  -28.9342    9.6432 H         1 UNK         0.0806 
    140 H140      -49.9301  -29.6517   11.2308 H         1 UNK         0.0806 
    141 H141      -48.5559  -30.1182   10.2440 H         1 UNK         0.0806 
    142 H142      -47.2778  -28.1849    9.3386 H         1 UNK         0.3061 
    143 H143      -44.3800  -26.3017   10.0305 H         1 UNK         0.0734 
    144 H144      -44.0525  -27.6812    8.0331 H         1 UNK         0.0832 
    145 H145      -44.6782  -28.6814    9.3278 H         1 UNK         0.0832 
    146 H146      -45.7430  -28.1749    8.0229 H         1 UNK         0.0832 
    147 H147      -46.6124  -25.5794    8.1722 H         1 UNK         0.3156 
    148 H148      -45.5125  -22.4345    7.7989 H         1 UNK         0.0589 
    149 H149      -44.3780  -24.1938    5.5596 H         1 UNK         0.0808 
    150 H150      -43.5048  -22.9477    6.4400 H         1 UNK         0.0808 
    151 H151      -44.8400  -22.5005    5.3937 H         1 UNK         0.0808 
    152 H152      -46.8092  -24.3495    5.9509 H         1 UNK         0.3098 
    153 H153      -50.0564  -23.7070    7.2426 H         1 UNK         0.0720 
    154 H154      -49.6604  -21.7188    5.7968 H         1 UNK         0.0791 
    155 H155      -50.5347  -22.9772    4.9417 H         1 UNK         0.0791 
    156 H156      -48.8164  -22.7259    4.6285 H         1 UNK         0.0791 
    157 H157      -49.2710  -25.1499    4.9731 H         1 UNK         0.3028 
@<TRIPOS>BOND
     1    1    2 1    
     2    1   82 1    
     3    1   83 1    
     4    1   84 1    
     5    2    3 2    
     6    2    4 am   BACKBONE|DICT|INTERRES
     7    4    5 1    
     8    4   85 1    
     9    5    6 1    
    10    5   80 1    
    11    5   86 1    
    12    6    7 1    
    13    6   87 1    
    14    6   88 1    
    15    7    8 1    
    16    8    9 1    
    17    8   89 1    
    18    8   90 1    
    19    9   10 ar   
    20    9   14 ar   
    21   10   11 ar   
    22   10   91 1    
    23   11   12 ar   
    24   11   58 1    
    25   12   13 ar   
    26   12   92 1    
    27   13   14 ar   
    28   13   15 1    
    29   14   93 1    
    30   15   16 1    
    31   15   94 1    
    32   15   95 1    
    33   16   17 1    
    34   17   18 1    
    35   17   96 1    
    36   17   97 1    
    37   18   19 1    
    38   18   22 1    
    39   18   98 1    
    40   19   20 am   BACKBONE|DICT|INTERRES
    41   19   21 2    
    42   20   99 1    
    43   20  100 1    
    44   22   23 am   BACKBONE|DICT|INTERRES
    45   22  101 1    
    46   23   24 2    
    47   23   25 1    
    48   25   26 1    
    49   25   27 1    
    50   25  102 1    
    51   26  103 1    
    52   26  104 1    
    53   26  105 1    
    54   27   28 am   BACKBONE|DICT|INTERRES
    55   27  106 1    
    56   28   29 2    
    57   28   30 1    
    58   30   31 1    
    59   30   32 1    
    60   30  107 1    
    61   31  108 1    
    62   31  109 1    
    63   31  110 1    
    64   32   33 am   BACKBONE|DICT|INTERRES
    65   32  111 1    
    66   33   34 2    
    67   33   35 1    
    68   35   36 1    
    69   35   37 1    
    70   35  112 1    
    71   36  113 1    
    72   36  114 1    
    73   36  115 1    
    74   37   38 am   BACKBONE|DICT|INTERRES
    75   37  116 1    
    76   38   39 2    
    77   38   40 1    
    78   40   41 1    
    79   40   42 1    
    80   40  117 1    
    81   41  118 1    
    82   41  119 1    
    83   41  120 1    
    84   42   43 am   BACKBONE|DICT|INTERRES
    85   42  121 1    
    86   43   44 2    
    87   43   45 1    
    88   45   46 1    
    89   45   47 1    
    90   45  122 1    
    91   46  123 1    
    92   46  124 1    
    93   46  125 1    
    94   47   48 am   BACKBONE|DICT|INTERRES
    95   47  126 1    
    96   48   49 2    
    97   48   50 1    
    98   50   51 1    
    99   50   52 1    
   100   50  127 1    
   101   51  128 1    
   102   51  129 1    
   103   51  130 1    
   104   52   53 am   BACKBONE|DICT|INTERRES
   105   52  131 1    
   106   53   54 2    
   107   53   55 1    
   108   55   56 1    
   109   55   59 1    
   110   55  132 1    
   111   56   57 1    
   112   56  133 1    
   113   56  134 1    
   114   57   58 1    
   115   58  135 1    
   116   58  136 1    
   117   59   60 am   BACKBONE|DICT|INTERRES
   118   59  137 1    
   119   60   61 2    
   120   60   62 1    
   121   62   63 1    
   122   62   64 1    
   123   62  138 1    
   124   63  139 1    
   125   63  140 1    
   126   63  141 1    
   127   64   65 am   BACKBONE|DICT|INTERRES
   128   64  142 1    
   129   65   66 2    
   130   65   67 1    
   131   67   68 1    
   132   67   69 1    
   133   67  143 1    
   134   68  144 1    
   135   68  145 1    
   136   68  146 1    
   137   69   70 am   BACKBONE|DICT|INTERRES
   138   69  147 1    
   139   70   71 2    
   140   70   72 1    
   141   72   73 1    
   142   72   74 1    
   143   72  148 1    
   144   73  149 1    
   145   73  150 1    
   146   73  151 1    
   147   74   75 am   BACKBONE|DICT|INTERRES
   148   74  152 1    
   149   75   76 2    
   150   75   77 1    
   151   77   78 1    
   152   77   79 1    
   153   77  153 1    
   154   78  154 1    
   155   78  155 1    
   156   78  156 1    
   157   79   80 am   BACKBONE|DICT|INTERRES
   158   79  157 1    
   159   80   81 2    
@<TRIPOS>SUBSTRUCTURE
     1 UNK         1 GROUP             0       ****    0 ROOT    
