@<TRIPOS>MOLECULE
3R207
157   159    1
SMALL
USER_CHARGES


@<TRIPOS>ATOM
      1 CA        -47.7186  -29.5211    2.6745 C.3       0 UNK        -0.1975 
      2 C         -48.0628  -28.4349    3.6819 C.2       0 UNK         0.4852 
      3 O         -47.2218  -28.0779    4.5071 O.2       0 UNK        -0.5216 
      4 N         -49.2829  -27.8804    3.6027 N.am      1 UNK        -0.4461 
      5 CA        -49.8590  -26.8775    4.5194 C.3       1 UNK         0.0864 
      6 C6        -50.0114  -27.4345    5.9677 C.3       14 UNK        -0.0898 
      7 S7        -51.6032  -26.9815    6.7405 S.3       14 UNK        -0.2598 
      8 C8        -52.3185  -28.6107    7.1451 C.3       14 UNK         0.0286 
      9 C9        -51.8713  -29.1267    8.5095 C.ar      14 UNK        -0.0844 
     10 C10       -50.5670  -29.5923    8.7035 C.ar      14 UNK        -0.0881 
     11 C11       -50.1606  -30.0854    9.9462 C.ar      14 UNK        -0.0643 
     12 C12       -51.0776  -30.1342   10.9995 C.ar      14 UNK        -0.0930 
     13 C13       -52.3906  -29.6845   10.8198 C.ar      14 UNK        -0.0827 
     14 C14       -52.7746  -29.1670    9.5772 C.ar      14 UNK        -0.1249 
     15 C15       -53.3715  -29.7205   11.9855 C.3       14 UNK         0.0141 
     16 S16       -54.9322  -30.5675   11.5881 S.3       14 UNK        -0.2313 
     17 C17       -55.7923  -30.4881   13.1975 C.3       14 UNK        -0.0915 
     18 CA        -56.8221  -29.3308   13.2744 C.3       13 UNK         0.0968 
     19 C         -57.7559  -29.4944   14.5045 C.2       13 UNK         0.5732 
     20 N         -57.5142  -28.8166   15.6194 N.am      13 UNK        -0.7310 
     21 O         -58.7263  -30.2456   14.4406 O.2       13 UNK        -0.5035 
     22 N         -56.1743  -28.0115   13.2048 N.am      13 UNK        -0.4233 
     23 C         -56.7365  -26.9278   12.6556 C.2       13 UNK         0.4989 
     24 O         -57.8638  -26.9185   12.1562 O.2       13 UNK        -0.4996 
     25 CA        -55.8744  -25.6503   12.6370 C.3       12 UNK         0.0216 
     26 CB        -56.6270  -24.4119   12.1041 C.3       12 UNK        -0.1964 
     27 N         -55.2434  -25.3653   13.9296 N.am      12 UNK        -0.4276 
     28 C         -55.8467  -25.1039   15.0979 C.2       12 UNK         0.5020 
     29 O         -57.0692  -25.0490   15.2457 O.2       12 UNK        -0.5489 
     30 CA        -54.9129  -24.8695   16.3047 C.3       11 UNK         0.0294 
     31 CB        -55.6689  -24.8401   17.6501 C.3       11 UNK        -0.2019 
     32 N         -53.7914  -25.8162   16.3728 N.am      11 UNK        -0.4493 
     33 C         -53.8643  -27.1559   16.4194 C.2       11 UNK         0.4932 
     34 O         -54.9263  -27.7775   16.3681 O.2       11 UNK        -0.5029 
     35 CA        -52.5494  -27.9558   16.5120 C.3       10 UNK         0.0280 
     36 CB        -52.4974  -29.0420   15.4296 C.3       10 UNK        -0.1976 
     37 N         -51.3467  -27.1298   16.3923 N.am      10 UNK        -0.4242 
     38 C         -50.7394  -26.5007   17.4064 C.2       10 UNK         0.5072 
     39 O         -51.1123  -26.5661   18.5782 O.2       10 UNK        -0.5224 
     40 CA        -49.5268  -25.6226   17.0476 C.3       9 UNK         0.0343 
     41 CB        -48.2481  -26.4720   16.9798 C.3       9 UNK        -0.2003 
     42 N         -49.6929  -24.8793   15.7933 N.am      9 UNK        -0.4272 
     43 C         -50.6542  -23.9693   15.5697 C.2       9 UNK         0.4988 
     44 O         -51.5066  -23.6528   16.4003 O.2       9 UNK        -0.5108 
     45 CA        -50.7067  -23.3393   14.1691 C.3       8 UNK         0.0248 
     46 CB        -49.5930  -22.2948   13.9918 C.3       8 UNK        -0.2001 
     47 N         -50.6244  -24.3365   13.1020 N.am      8 UNK        -0.4140 
     48 C         -51.5141  -25.3176   12.8992 C.2       8 UNK         0.5028 
     49 O         -52.5389  -25.4668   13.5627 O.2       8 UNK        -0.5428 
     50 CA        -51.1795  -26.3410   11.8077 C.3       7 UNK         0.0264 
     51 CB        -51.4805  -25.7866   10.4081 C.3       7 UNK        -0.1988 
     52 N         -49.7927  -26.7989   11.8878 N.am      7 UNK        -0.4454 
     53 C         -49.2891  -27.4952   12.9177 C.2       7 UNK         0.5027 
     54 O         -49.9526  -27.8521   13.8913 O.2       7 UNK        -0.5083 
     55 CA        -47.7799  -27.7991   12.8935 C.3       6 UNK         0.0844 
     56 C56       -47.4620  -29.1743   12.2555 C.3       14 UNK        -0.0967 
     57 S57       -47.5662  -29.2236   10.4318 S.3       14 UNK        -0.2604 
     58 C58       -48.7359  -30.5875   10.1282 C.3       14 UNK         0.0134 
     59 N         -47.0022  -26.6924   12.3259 N.am      6 UNK        -0.4116 
     60 C         -46.8489  -25.5048   12.9313 C.2       5 UNK         0.5034 
     61 O         -47.3150  -25.2342   14.0390 O.2       5 UNK        -0.5045 
     62 CA        -46.0909  -24.4169   12.1518 C.3       5 UNK         0.0224 
     63 CB        -44.5738  -24.6553   12.2154 C.3       5 UNK        -0.1978 
     64 N         -46.5132  -24.2979   10.7525 N.am      5 UNK        -0.4737 
     65 C         -47.7624  -24.0301   10.3475 C.2       4 UNK         0.5027 
     66 O         -48.6945  -23.8460   11.1278 O.2       4 UNK        -0.5211 
     67 CA        -48.0409  -23.9463    8.8354 C.3       4 UNK         0.0297 
     68 CB        -48.5180  -22.5367    8.4501 C.3       4 UNK        -0.1993 
     69 N         -46.9172  -24.3159    7.9706 N.am      4 UNK        -0.4486 
     70 C         -46.4262  -25.5509    7.8161 C.2       3 UNK         0.4961 
     71 O         -46.7904  -26.5161    8.4858 O.2       3 UNK        -0.5105 
     72 CA        -45.3815  -25.7226    6.6982 C.3       3 UNK         0.0299 
     73 CB        -44.7230  -27.1142    6.7116 C.3       3 UNK        -0.1972 
     74 N         -46.0180  -25.5021    5.3986 N.am      3 UNK        -0.4305 
     75 C         -46.2696  -24.2962    4.8624 C.2       2 UNK         0.5006 
     76 O         -45.8594  -23.2408    5.3479 O.2       2 UNK        -0.5106 
     77 CA        -47.1776  -24.2448    3.6179 C.3       2 UNK         0.0296 
     78 CB        -46.3365  -24.2900    2.3323 C.3       2 UNK        -0.2002 
     79 N         -48.1603  -25.3303    3.5962 N.am      2 UNK        -0.4032 
     80 C         -49.1366  -25.5049    4.5011 C.2       1 UNK         0.5000 
     81 O         -49.4529  -24.6377    5.3173 O.2       1 UNK        -0.5238 
     82 H82       -48.5442  -29.7222    1.9921 H         1 UNK         0.0889 
     83 H83       -47.4744  -30.4473    3.1939 H         1 UNK         0.0889 
     84 H84       -46.8529  -29.2239    2.0832 H         1 UNK         0.0889 
     85 H85       -49.9121  -28.1985    2.8774 H         1 UNK         0.3028 
     86 H86       -50.8540  -26.6813    4.1167 H         1 UNK         0.0864 
     87 H87       -49.9454  -28.5216    5.9460 H         1 UNK         0.0720 
     88 H88       -49.1939  -27.1155    6.6186 H         1 UNK         0.0720 
     89 H89       -52.0710  -29.3384    6.3711 H         1 UNK         0.0814 
     90 H90       -53.4052  -28.5156    7.1224 H         1 UNK         0.0814 
     91 H91       -49.8563  -29.5712    7.8912 H         1 UNK         0.1469 
     92 H92       -50.7647  -30.5173   11.9611 H         1 UNK         0.1381 
     93 H93       -53.7850  -28.8065    9.4407 H         1 UNK         0.1206 
     94 H94       -53.5890  -28.6990   12.2951 H         1 UNK         0.0813 
     95 H95       -52.9193  -30.2284   12.8377 H         1 UNK         0.0813 
     96 H96       -55.0667  -30.4158   14.0084 H         1 UNK         0.0638 
     97 H97       -56.2931  -31.4492   13.3300 H         1 UNK         0.0638 
     98 H98       -57.4693  -29.4343   12.4008 H         1 UNK         0.0568 
     99 H99       -58.1365  -28.9276   16.4030 H         1 UNK         0.3450 
    100 H100      -56.6699  -28.2627   15.7258 H         1 UNK         0.3450 
    101 H101      -55.2805  -27.9220   13.6624 H         1 UNK         0.2987 
    102 H102      -55.0559  -25.8531   11.9444 H         1 UNK         0.0766 
    103 H103      -55.9771  -23.5374   12.0715 H         1 UNK         0.0798 
    104 H104      -57.4915  -24.1652   12.7211 H         1 UNK         0.0798 
    105 H105      -56.9903  -24.5823   11.0899 H         1 UNK         0.0798 
    106 H106      -54.2196  -25.3926   13.9200 H         1 UNK         0.3198 
    107 H107      -54.4682  -23.8845   16.1542 H         1 UNK         0.0843 
    108 H108      -56.1748  -25.7855   17.8492 H         1 UNK         0.0831 
    109 H109      -56.4284  -24.0574   17.6554 H         1 UNK         0.0831 
    110 H110      -54.9925  -24.6393   18.4808 H         1 UNK         0.0831 
    111 H111      -52.8711  -25.3918   16.3682 H         1 UNK         0.3133 
    112 H112      -52.5461  -28.4527   17.4840 H         1 UNK         0.0566 
    113 H113      -52.5200  -28.5931   14.4379 H         1 UNK         0.0814 
    114 H114      -51.5875  -29.6375   15.5061 H         1 UNK         0.0814 
    115 H115      -53.3404  -29.7283   15.5116 H         1 UNK         0.0814 
    116 H116      -50.9390  -27.0655   15.4636 H         1 UNK         0.3091 
    117 H117      -49.4050  -24.8890   17.8472 H         1 UNK         0.0702 
    118 H118      -47.3683  -25.8517   16.8075 H         1 UNK         0.0785 
    119 H119      -48.2984  -27.2113   16.1800 H         1 UNK         0.0785 
    120 H120      -48.0867  -27.0114   17.9141 H         1 UNK         0.0785 
    121 H121      -49.0071  -25.0574   15.0647 H         1 UNK         0.2998 
    122 H122      -51.6683  -22.8316   14.0694 H         1 UNK         0.0697 
    123 H123      -48.6017  -22.7467   14.0407 H         1 UNK         0.0825 
    124 H124      -49.6447  -21.5315   14.7693 H         1 UNK         0.0825 
    125 H125      -49.6780  -21.7866   13.0310 H         1 UNK         0.0825 
    126 H126      -49.8334  -24.2597   12.4630 H         1 UNK         0.3029 
    127 H127      -51.8168  -27.2092   11.9701 H         1 UNK         0.0897 
    128 H128      -52.5426  -25.5639   10.2999 H         1 UNK         0.0792 
    129 H129      -51.2219  -26.5117    9.6378 H         1 UNK         0.0792 
    130 H130      -50.9329  -24.8682   10.1993 H         1 UNK         0.0792 
    131 H131      -49.1759  -26.5375   11.1329 H         1 UNK         0.3086 
    132 H132      -47.4798  -27.8800   13.9407 H         1 UNK         0.0583 
    133 H133      -46.4439  -29.4602   12.5243 H         1 UNK         0.1020 
    134 H134      -48.0971  -29.9471   12.6926 H         1 UNK         0.1020 
    135 H135      -48.4237  -31.1096    9.2225 H         1 UNK         0.0694 
    136 H136      -48.6811  -31.3269   10.9282 H         1 UNK         0.0694 
    137 H137      -46.6258  -26.8310   11.3978 H         1 UNK         0.2989 
    138 H138      -46.3072  -23.4635   12.6391 H         1 UNK         0.1055 
    139 H139      -44.2353  -24.7381   13.2494 H         1 UNK         0.0806 
    140 H140      -44.0234  -23.8303   11.7627 H         1 UNK         0.0806 
    141 H141      -44.2843  -25.5736   11.7030 H         1 UNK         0.0806 
    142 H142      -45.8092  -24.4402   10.0433 H         1 UNK         0.3061 
    143 H143      -48.8551  -24.6443    8.6279 H         1 UNK         0.0734 
    144 H144      -49.3878  -22.2417    9.0390 H         1 UNK         0.0832 
    145 H145      -48.8122  -22.4925    7.4009 H         1 UNK         0.0832 
    146 H146      -47.7421  -21.7885    8.6162 H         1 UNK         0.0832 
    147 H147      -46.5683  -23.5976    7.3454 H         1 UNK         0.3156 
    148 H148      -44.5958  -24.9799    6.8520 H         1 UNK         0.0589 
    149 H149      -45.4559  -27.9106    6.5751 H         1 UNK         0.0808 
    150 H150      -43.9767  -27.2079    5.9227 H         1 UNK         0.0808 
    151 H151      -44.2182  -27.2968    7.6610 H         1 UNK         0.0808 
    152 H152      -46.4320  -26.3265    4.9703 H         1 UNK         0.3098 
    153 H153      -47.7217  -23.2982    3.6426 H         1 UNK         0.0720 
    154 H154      -46.9613  -24.1858    1.4450 H         1 UNK         0.0791 
    155 H155      -45.7801  -25.2243    2.2450 H         1 UNK         0.0791 
    156 H156      -45.6110  -23.4755    2.3133 H         1 UNK         0.0791 
    157 H157      -47.9810  -26.0906    2.9568 H         1 UNK         0.3028 
@<TRIPOS>BOND
     1    1    2 1    
     2    1   82 1    
     3    1   83 1    
     4    1   84 1    
     5    2    3 2    
     6    2    4 am   BACKBONE|DICT|INTERRES
     7    4    5 1    
     8    4   85 1    
     9    5    6 1    
    10    5   80 1    
    11    5   86 1    
    12    6    7 1    
    13    6   87 1    
    14    6   88 1    
    15    7    8 1    
    16    8    9 1    
    17    8   89 1    
    18    8   90 1    
    19    9   10 ar   
    20    9   14 ar   
    21   10   11 ar   
    22   10   91 1    
    23   11   12 ar   
    24   11   58 1    
    25   12   13 ar   
    26   12   92 1    
    27   13   14 ar   
    28   13   15 1    
    29   14   93 1    
    30   15   16 1    
    31   15   94 1    
    32   15   95 1    
    33   16   17 1    
    34   17   18 1    
    35   17   96 1    
    36   17   97 1    
    37   18   19 1    
    38   18   22 1    
    39   18   98 1    
    40   19   20 am   BACKBONE|DICT|INTERRES
    41   19   21 2    
    42   20   99 1    
    43   20  100 1    
    44   22   23 am   BACKBONE|DICT|INTERRES
    45   22  101 1    
    46   23   24 2    
    47   23   25 1    
    48   25   26 1    
    49   25   27 1    
    50   25  102 1    
    51   26  103 1    
    52   26  104 1    
    53   26  105 1    
    54   27   28 am   BACKBONE|DICT|INTERRES
    55   27  106 1    
    56   28   29 2    
    57   28   30 1    
    58   30   31 1    
    59   30   32 1    
    60   30  107 1    
    61   31  108 1    
    62   31  109 1    
    63   31  110 1    
    64   32   33 am   BACKBONE|DICT|INTERRES
    65   32  111 1    
    66   33   34 2    
    67   33   35 1    
    68   35   36 1    
    69   35   37 1    
    70   35  112 1    
    71   36  113 1    
    72   36  114 1    
    73   36  115 1    
    74   37   38 am   BACKBONE|DICT|INTERRES
    75   37  116 1    
    76   38   39 2    
    77   38   40 1    
    78   40   41 1    
    79   40   42 1    
    80   40  117 1    
    81   41  118 1    
    82   41  119 1    
    83   41  120 1    
    84   42   43 am   BACKBONE|DICT|INTERRES
    85   42  121 1    
    86   43   44 2    
    87   43   45 1    
    88   45   46 1    
    89   45   47 1    
    90   45  122 1    
    91   46  123 1    
    92   46  124 1    
    93   46  125 1    
    94   47   48 am   BACKBONE|DICT|INTERRES
    95   47  126 1    
    96   48   49 2    
    97   48   50 1    
    98   50   51 1    
    99   50   52 1    
   100   50  127 1    
   101   51  128 1    
   102   51  129 1    
   103   51  130 1    
   104   52   53 am   BACKBONE|DICT|INTERRES
   105   52  131 1    
   106   53   54 2    
   107   53   55 1    
   108   55   56 1    
   109   55   59 1    
   110   55  132 1    
   111   56   57 1    
   112   56  133 1    
   113   56  134 1    
   114   57   58 1    
   115   58  135 1    
   116   58  136 1    
   117   59   60 am   BACKBONE|DICT|INTERRES
   118   59  137 1    
   119   60   61 2    
   120   60   62 1    
   121   62   63 1    
   122   62   64 1    
   123   62  138 1    
   124   63  139 1    
   125   63  140 1    
   126   63  141 1    
   127   64   65 am   BACKBONE|DICT|INTERRES
   128   64  142 1    
   129   65   66 2    
   130   65   67 1    
   131   67   68 1    
   132   67   69 1    
   133   67  143 1    
   134   68  144 1    
   135   68  145 1    
   136   68  146 1    
   137   69   70 am   BACKBONE|DICT|INTERRES
   138   69  147 1    
   139   70   71 2    
   140   70   72 1    
   141   72   73 1    
   142   72   74 1    
   143   72  148 1    
   144   73  149 1    
   145   73  150 1    
   146   73  151 1    
   147   74   75 am   BACKBONE|DICT|INTERRES
   148   74  152 1    
   149   75   76 2    
   150   75   77 1    
   151   77   78 1    
   152   77   79 1    
   153   77  153 1    
   154   78  154 1    
   155   78  155 1    
   156   78  156 1    
   157   79   80 am   BACKBONE|DICT|INTERRES
   158   79  157 1    
   159   80   81 2    
@<TRIPOS>SUBSTRUCTURE
     1 UNK         1 GROUP             0       ****    0 ROOT    
