@<TRIPOS>MOLECULE
3R207
157   159    1
SMALL
USER_CHARGES


@<TRIPOS>ATOM
      1 CA        -46.8164  -29.9040    5.0951 C.3       0 UNK        -0.1975 
      2 C         -48.1954  -29.3766    4.7263 C.2       0 UNK         0.4852 
      3 O         -48.6958  -29.6838    3.6438 O.2       0 UNK        -0.5216 
      4 N         -48.8030  -28.5883    5.6193 N.am      1 UNK        -0.4461 
      5 CA        -50.0977  -27.9286    5.4440 C.3       1 UNK         0.0864 
      6 C6        -51.2116  -28.5858    6.3000 C.3       14 UNK        -0.0898 
      7 S7        -51.7188  -30.2184    5.6569 S.3       14 UNK        -0.2598 
      8 C8        -50.8171  -31.3822    6.7309 C.3       14 UNK         0.0286 
      9 C9        -51.4146  -31.4447    8.1283 C.ar      14 UNK        -0.0844 
     10 C10       -50.8632  -30.6837    9.1589 C.ar      14 UNK        -0.0881 
     11 C11       -51.4322  -30.6852   10.4367 C.ar      14 UNK        -0.0643 
     12 C12       -52.5263  -31.5195   10.6956 C.ar      14 UNK        -0.0930 
     13 C13       -53.0643  -32.3183    9.6797 C.ar      14 UNK        -0.0827 
     14 C14       -52.5133  -32.2644    8.3954 C.ar      14 UNK        -0.1249 
     15 C15       -54.2202  -33.2670    9.9603 C.3       14 UNK         0.0141 
     16 S16       -55.8356  -32.4835    9.6605 S.3       14 UNK        -0.2313 
     17 C17       -56.2793  -31.8700   11.3201 C.3       14 UNK        -0.0915 
     18 CA        -56.6146  -30.3578   11.3332 C.3       13 UNK         0.0968 
     19 C         -57.1984  -29.9540   12.7160 C.2       13 UNK         0.5732 
     20 N         -58.5172  -29.9371   12.8539 N.am      13 UNK        -0.7310 
     21 O         -56.4664  -29.7045   13.6720 O.2       13 UNK        -0.5035 
     22 N         -55.4486  -29.5493   10.9504 N.am      13 UNK        -0.4233 
     23 C         -55.4554  -28.2219   10.7906 C.2       13 UNK         0.4989 
     24 O         -56.4715  -27.5226   10.8301 O.2       13 UNK        -0.4996 
     25 CA        -54.0951  -27.5725   10.5084 C.3       12 UNK         0.0216 
     26 CB        -53.7789  -27.5762    9.0032 C.3       12 UNK        -0.1964 
     27 N         -54.0776  -26.1972   11.0088 N.am      12 UNK        -0.4276 
     28 C         -53.7169  -25.8592   12.2517 C.2       12 UNK         0.5020 
     29 O         -53.2785  -26.6511   13.0901 O.2       12 UNK        -0.5489 
     30 CA        -53.8780  -24.3875   12.6398 C.3       11 UNK         0.0294 
     31 CB        -55.2087  -24.1542   13.3775 C.3       11 UNK        -0.2019 
     32 N         -52.7535  -24.0394   13.4996 N.am      11 UNK        -0.4493 
     33 C         -52.2778  -22.8097   13.7248 C.2       11 UNK         0.4932 
     34 O         -52.7803  -21.7895   13.2512 O.2       11 UNK        -0.5029 
     35 CA        -51.0146  -22.7068   14.6039 C.3       10 UNK         0.0280 
     36 CB        -50.8533  -21.3297   15.2812 C.3       10 UNK        -0.1976 
     37 N         -50.8952  -23.7980   15.5773 N.am      10 UNK        -0.4242 
     38 C         -51.6921  -24.0714   16.6222 C.2       10 UNK         0.5072 
     39 O         -52.6517  -23.3792   16.9631 O.2       10 UNK        -0.5224 
     40 CA        -51.3736  -25.3499   17.4157 C.3       9 UNK         0.0343 
     41 CB        -52.1355  -26.5430   16.8136 C.3       9 UNK        -0.2003 
     42 N         -49.9393  -25.6493   17.4084 N.am      9 UNK        -0.4272 
     43 C         -49.0946  -25.4242   18.4237 C.2       9 UNK         0.4988 
     44 O         -49.4417  -24.9987   19.5262 O.2       9 UNK        -0.5108 
     45 CA        -47.6025  -25.7233   18.1719 C.3       8 UNK         0.0248 
     46 CB        -47.2750  -27.1763   18.5526 C.3       8 UNK        -0.2001 
     47 N         -47.1829  -25.4773   16.7880 N.am      8 UNK        -0.4140 
     48 C         -47.1389  -24.2677   16.2116 C.2       8 UNK         0.5028 
     49 O         -47.3527  -23.2176   16.8182 O.2       8 UNK        -0.5428 
     50 CA        -46.8248  -24.2006   14.7032 C.3       7 UNK         0.0264 
     51 CB        -45.3394  -23.8687   14.4867 C.3       7 UNK        -0.1988 
     52 N         -47.1723  -25.3757   13.8881 N.am      7 UNK        -0.4454 
     53 C         -48.3516  -26.0167   13.8519 C.2       7 UNK         0.5027 
     54 O         -49.2534  -25.8147   14.6651 O.2       7 UNK        -0.5083 
     55 CA        -48.5876  -27.0199   12.7051 C.3       6 UNK         0.0844 
     56 C56       -50.1077  -27.2145   12.4505 C.3       14 UNK        -0.0967 
     57 S57       -50.4942  -28.1144   10.9153 S.3       14 UNK        -0.2604 
     58 C58       -50.8641  -29.7895   11.5332 C.3       14 UNK         0.0134 
     59 N         -47.8942  -26.5656   11.5009 N.am      6 UNK        -0.4116 
     60 C         -46.8159  -27.1312   10.9460 C.2       5 UNK         0.5034 
     61 O         -46.1910  -28.0613   11.4560 O.2       5 UNK        -0.5045 
     62 CA        -46.3582  -26.5789    9.5816 C.3       5 UNK         0.0224 
     63 CB        -46.7270  -27.5700    8.4660 C.3       5 UNK        -0.1978 
     64 N         -46.9336  -25.2680    9.2607 N.am      5 UNK        -0.4737 
     65 C         -46.5998  -24.1254    9.8778 C.2       4 UNK         0.5027 
     66 O         -45.7040  -24.0436   10.7176 O.2       4 UNK        -0.5211 
     67 CA        -47.4280  -22.8751    9.5368 C.3       4 UNK         0.0297 
     68 CB        -46.7509  -22.0745    8.4136 C.3       4 UNK        -0.1993 
     69 N         -48.8130  -23.1637    9.1524 N.am      4 UNK        -0.4486 
     70 C         -49.7427  -23.7601    9.9087 C.2       3 UNK         0.4961 
     71 O         -49.5279  -24.1589   11.0525 O.2       3 UNK        -0.5105 
     72 CA        -51.1413  -23.9746    9.2942 C.3       3 UNK         0.0299 
     73 CB        -52.0625  -22.7832    9.6171 C.3       3 UNK        -0.1972 
     74 N         -51.1611  -24.2894    7.8542 N.am      3 UNK        -0.4305 
     75 C         -50.7785  -23.5270    6.8169 C.2       2 UNK         0.5006 
     76 O         -50.3444  -22.3808    6.9438 O.2       2 UNK        -0.5106 
     77 CA        -50.8698  -24.1404    5.4027 C.3       2 UNK         0.0296 
     78 CB        -49.7832  -23.5761    4.4613 C.3       2 UNK        -0.2002 
     79 N         -50.8654  -25.6106    5.3443 N.am      2 UNK        -0.4032 
     80 C         -49.9200  -26.4432    5.8080 C.2       1 UNK         0.5000 
     81 O         -48.9584  -26.0849    6.4965 O.2       1 UNK        -0.5238 
     82 H82       -46.0727  -29.5358    4.3890 H         1 UNK         0.0889 
     83 H83       -46.8104  -30.9931    5.0599 H         1 UNK         0.0889 
     84 H84       -46.5152  -29.5973    6.0965 H         1 UNK         0.0889 
     85 H85       -48.3017  -28.2815    6.4414 H         1 UNK         0.3028 
     86 H86       -50.3905  -27.9612    4.3921 H         1 UNK         0.0864 
     87 H87       -50.9073  -28.6579    7.3434 H         1 UNK         0.0720 
     88 H88       -52.1124  -27.9697    6.2994 H         1 UNK         0.0720 
     89 H89       -49.7634  -31.1042    6.7732 H         1 UNK         0.0814 
     90 H90       -50.8493  -32.3738    6.2773 H         1 UNK         0.0814 
     91 H91       -50.0015  -30.0625    8.9583 H         1 UNK         0.1469 
     92 H92       -52.9528  -31.5556   11.6889 H         1 UNK         0.1381 
     93 H93       -52.9363  -32.8664    7.6024 H         1 UNK         0.1206 
     94 H94       -54.1388  -34.1392    9.3098 H         1 UNK         0.0813 
     95 H95       -54.1620  -33.6562   10.9777 H         1 UNK         0.0813 
     96 H96       -57.1403  -32.4533   11.6522 H         1 UNK         0.0638 
     97 H97       -55.4788  -32.0851   12.0299 H         1 UNK         0.0638 
     98 H98       -57.3847  -30.1749   10.5810 H         1 UNK         0.0568 
     99 H99       -58.9123  -29.6945   13.7489 H         1 UNK         0.3450 
    100 H100      -59.1261  -30.1539   12.0802 H         1 UNK         0.3450 
    101 H101      -54.5779  -30.0506   10.8616 H         1 UNK         0.2987 
    102 H102      -53.3311  -28.1561   11.0230 H         1 UNK         0.0766 
    103 H103      -52.8044  -27.1296    8.8066 H         1 UNK         0.0798 
    104 H104      -54.5261  -27.0278    8.4283 H         1 UNK         0.0798 
    105 H105      -53.7469  -28.5954    8.6142 H         1 UNK         0.0798 
    106 H106      -54.5037  -25.5014   10.4140 H         1 UNK         0.3198 
    107 H107      -53.8494  -23.7725   11.7391 H         1 UNK         0.0843 
    108 H108      -56.0567  -24.4425   12.7549 H         1 UNK         0.0831 
    109 H109      -55.3403  -23.1044   13.6398 H         1 UNK         0.0831 
    110 H110      -55.2642  -24.7384   14.2971 H         1 UNK         0.0831 
    111 H111      -52.2839  -24.8411   13.9027 H         1 UNK         0.3133 
    112 H112      -50.1726  -22.8327   13.9212 H         1 UNK         0.0566 
    113 H113      -49.9460  -21.2898   15.8844 H         1 UNK         0.0814 
    114 H114      -50.7825  -20.5345   14.5381 H         1 UNK         0.0814 
    115 H115      -51.6988  -21.0941   15.9280 H         1 UNK         0.0814 
    116 H116      -50.1808  -24.4876   15.3498 H         1 UNK         0.3091 
    117 H117      -51.7242  -25.2030   18.4395 H         1 UNK         0.0702 
    118 H118      -53.2101  -26.3549   16.8011 H         1 UNK         0.0785 
    119 H119      -51.8291  -26.7449   15.7859 H         1 UNK         0.0785 
    120 H120      -51.9720  -27.4502   17.3953 H         1 UNK         0.0785 
    121 H121      -49.5542  -25.9613   16.5216 H         1 UNK         0.2998 
    122 H122      -47.0218  -25.0629   18.8195 H         1 UNK         0.0697 
    123 H123      -47.8105  -27.8901   17.9253 H         1 UNK         0.0825 
    124 H124      -47.5535  -27.3798   19.5877 H         1 UNK         0.0825 
    125 H125      -46.2081  -27.3806   18.4606 H         1 UNK         0.0825 
    126 H126      -46.9855  -26.2852   16.2158 H         1 UNK         0.3029 
    127 H127      -47.4139  -23.3710   14.3064 H         1 UNK         0.0897 
    128 H128      -45.1267  -23.6613   13.4377 H         1 UNK         0.0792 
    129 H129      -44.6934  -24.6875   14.8059 H         1 UNK         0.0792 
    130 H130      -45.0477  -22.9828   15.0530 H         1 UNK         0.0792 
    131 H131      -46.5016  -25.6208   13.1733 H         1 UNK         0.3086 
    132 H132      -48.1785  -27.9773   13.0328 H         1 UNK         0.0583 
    133 H133      -50.5801  -27.7145   13.2981 H         1 UNK         0.1020 
    134 H134      -50.6049  -26.2462   12.3683 H         1 UNK         0.1020 
    135 H135      -49.9528  -30.2378   11.9310 H         1 UNK         0.0694 
    136 H136      -51.5713  -29.7115   12.3605 H         1 UNK         0.0694 
    137 H137      -48.3216  -25.7662   11.0454 H         1 UNK         0.2989 
    138 H138      -45.2709  -26.4797    9.6151 H         1 UNK         0.1055 
    139 H139      -46.2517  -28.5381    8.6311 H         1 UNK         0.0806 
    140 H140      -46.4007  -27.2094    7.4901 H         1 UNK         0.0806 
    141 H141      -47.8040  -27.7381    8.4256 H         1 UNK         0.0806 
    142 H142      -47.6709  -25.2480    8.5670 H         1 UNK         0.3061 
    143 H143      -47.4611  -22.2526   10.4333 H         1 UNK         0.0734 
    144 H144      -47.2742  -21.1374    8.2225 H         1 UNK         0.0832 
    145 H145      -45.7229  -21.8223    8.6781 H         1 UNK         0.0832 
    146 H146      -46.7197  -22.6378    7.4799 H         1 UNK         0.0832 
    147 H147      -49.1203  -22.8304    8.2411 H         1 UNK         0.3156 
    148 H148      -51.5565  -24.8530    9.7916 H         1 UNK         0.0589 
    149 H149      -51.7401  -21.8677    9.1209 H         1 UNK         0.0808 
    150 H150      -53.0909  -22.9825    9.3168 H         1 UNK         0.0808 
    151 H151      -52.0677  -22.5746   10.6867 H         1 UNK         0.0808 
    152 H152      -51.4604  -25.2271    7.6311 H         1 UNK         0.3098 
    153 H153      -51.8382  -23.8266    5.0104 H         1 UNK         0.0720 
    154 H154      -49.8747  -23.9883    3.4564 H         1 UNK         0.0791 
    155 H155      -48.7797  -23.8003    4.8254 H         1 UNK         0.0791 
    156 H156      -49.8617  -22.4920    4.3696 H         1 UNK         0.0791 
    157 H157      -51.6315  -26.0149    4.8224 H         1 UNK         0.3028 
@<TRIPOS>BOND
     1    1    2 1    
     2    1   82 1    
     3    1   83 1    
     4    1   84 1    
     5    2    3 2    
     6    2    4 am   BACKBONE|DICT|INTERRES
     7    4    5 1    
     8    4   85 1    
     9    5    6 1    
    10    5   80 1    
    11    5   86 1    
    12    6    7 1    
    13    6   87 1    
    14    6   88 1    
    15    7    8 1    
    16    8    9 1    
    17    8   89 1    
    18    8   90 1    
    19    9   10 ar   
    20    9   14 ar   
    21   10   11 ar   
    22   10   91 1    
    23   11   12 ar   
    24   11   58 1    
    25   12   13 ar   
    26   12   92 1    
    27   13   14 ar   
    28   13   15 1    
    29   14   93 1    
    30   15   16 1    
    31   15   94 1    
    32   15   95 1    
    33   16   17 1    
    34   17   18 1    
    35   17   96 1    
    36   17   97 1    
    37   18   19 1    
    38   18   22 1    
    39   18   98 1    
    40   19   20 am   BACKBONE|DICT|INTERRES
    41   19   21 2    
    42   20   99 1    
    43   20  100 1    
    44   22   23 am   BACKBONE|DICT|INTERRES
    45   22  101 1    
    46   23   24 2    
    47   23   25 1    
    48   25   26 1    
    49   25   27 1    
    50   25  102 1    
    51   26  103 1    
    52   26  104 1    
    53   26  105 1    
    54   27   28 am   BACKBONE|DICT|INTERRES
    55   27  106 1    
    56   28   29 2    
    57   28   30 1    
    58   30   31 1    
    59   30   32 1    
    60   30  107 1    
    61   31  108 1    
    62   31  109 1    
    63   31  110 1    
    64   32   33 am   BACKBONE|DICT|INTERRES
    65   32  111 1    
    66   33   34 2    
    67   33   35 1    
    68   35   36 1    
    69   35   37 1    
    70   35  112 1    
    71   36  113 1    
    72   36  114 1    
    73   36  115 1    
    74   37   38 am   BACKBONE|DICT|INTERRES
    75   37  116 1    
    76   38   39 2    
    77   38   40 1    
    78   40   41 1    
    79   40   42 1    
    80   40  117 1    
    81   41  118 1    
    82   41  119 1    
    83   41  120 1    
    84   42   43 am   BACKBONE|DICT|INTERRES
    85   42  121 1    
    86   43   44 2    
    87   43   45 1    
    88   45   46 1    
    89   45   47 1    
    90   45  122 1    
    91   46  123 1    
    92   46  124 1    
    93   46  125 1    
    94   47   48 am   BACKBONE|DICT|INTERRES
    95   47  126 1    
    96   48   49 2    
    97   48   50 1    
    98   50   51 1    
    99   50   52 1    
   100   50  127 1    
   101   51  128 1    
   102   51  129 1    
   103   51  130 1    
   104   52   53 am   BACKBONE|DICT|INTERRES
   105   52  131 1    
   106   53   54 2    
   107   53   55 1    
   108   55   56 1    
   109   55   59 1    
   110   55  132 1    
   111   56   57 1    
   112   56  133 1    
   113   56  134 1    
   114   57   58 1    
   115   58  135 1    
   116   58  136 1    
   117   59   60 am   BACKBONE|DICT|INTERRES
   118   59  137 1    
   119   60   61 2    
   120   60   62 1    
   121   62   63 1    
   122   62   64 1    
   123   62  138 1    
   124   63  139 1    
   125   63  140 1    
   126   63  141 1    
   127   64   65 am   BACKBONE|DICT|INTERRES
   128   64  142 1    
   129   65   66 2    
   130   65   67 1    
   131   67   68 1    
   132   67   69 1    
   133   67  143 1    
   134   68  144 1    
   135   68  145 1    
   136   68  146 1    
   137   69   70 am   BACKBONE|DICT|INTERRES
   138   69  147 1    
   139   70   71 2    
   140   70   72 1    
   141   72   73 1    
   142   72   74 1    
   143   72  148 1    
   144   73  149 1    
   145   73  150 1    
   146   73  151 1    
   147   74   75 am   BACKBONE|DICT|INTERRES
   148   74  152 1    
   149   75   76 2    
   150   75   77 1    
   151   77   78 1    
   152   77   79 1    
   153   77  153 1    
   154   78  154 1    
   155   78  155 1    
   156   78  156 1    
   157   79   80 am   BACKBONE|DICT|INTERRES
   158   79  157 1    
   159   80   81 2    
@<TRIPOS>SUBSTRUCTURE
     1 UNK         1 GROUP             0       ****    0 ROOT    
