@<TRIPOS>MOLECULE
3R207
157   159    1
SMALL
USER_CHARGES


@<TRIPOS>ATOM
      1 CA        -48.1277  -27.3973    3.9420 C.3       0 UNK        -0.1975 
      2 C         -49.1626  -26.6244    4.7448 C.2       0 UNK         0.4852 
      3 O         -49.3244  -25.4204    4.5390 O.2       0 UNK        -0.5216 
      4 N         -49.8570  -27.3012    5.6690 N.am      1 UNK        -0.4461 
      5 CA        -50.8687  -26.7235    6.5611 C.3       1 UNK         0.0864 
      6 C6        -51.5792  -27.7984    7.4169 C.3       14 UNK        -0.0898 
      7 S7        -52.3308  -29.1373    6.4312 S.3       14 UNK        -0.2598 
      8 C8        -51.3564  -30.5885    6.9496 C.3       14 UNK         0.0286 
      9 C9        -51.5526  -30.9225    8.4232 C.ar      14 UNK        -0.0844 
     10 C10       -50.5402  -30.6499    9.3491 C.ar      14 UNK        -0.0881 
     11 C11       -50.7075  -30.9553   10.7068 C.ar      14 UNK        -0.0643 
     12 C12       -51.9042  -31.5521   11.1204 C.ar      14 UNK        -0.0930 
     13 C13       -52.9199  -31.8423   10.2043 C.ar      14 UNK        -0.0827 
     14 C14       -52.7382  -31.5216    8.8563 C.ar      14 UNK        -0.1249 
     15 C15       -54.1934  -32.5415   10.6648 C.3       14 UNK         0.0141 
     16 S16       -55.3340  -31.4302   11.5512 S.3       14 UNK        -0.2313 
     17 C17       -55.8804  -30.3034   10.2241 C.3       14 UNK        -0.0915 
     18 CA        -55.3827  -28.8482   10.4470 C.3       13 UNK         0.0968 
     19 C         -55.5472  -27.9546    9.1818 C.2       13 UNK         0.5732 
     20 N         -55.8145  -26.6603    9.3188 N.am      13 UNK        -0.7310 
     21 O         -55.4335  -28.4290    8.0555 O.2       13 UNK        -0.5035 
     22 N         -56.0100  -28.2381   11.6342 N.am      13 UNK        -0.4233 
     23 C         -55.3855  -27.9376   12.7760 C.2       13 UNK         0.4989 
     24 O         -54.2067  -28.1961   13.0149 O.2       13 UNK        -0.4996 
     25 CA        -56.2238  -27.2423   13.8519 C.3       12 UNK         0.0216 
     26 CB        -56.7461  -28.2687   14.8759 C.3       12 UNK        -0.1964 
     27 N         -55.3830  -26.2433   14.5058 N.am      12 UNK        -0.4276 
     28 C         -55.8018  -25.2497   15.2985 C.2       12 UNK         0.5020 
     29 O         -56.9879  -25.0387   15.5612 O.2       12 UNK        -0.5489 
     30 CA        -54.7048  -24.3423   15.8922 C.3       11 UNK         0.0294 
     31 CB        -55.1925  -23.4823   17.0778 C.3       11 UNK        -0.2019 
     32 N         -53.4918  -25.0930   16.2360 N.am      11 UNK        -0.4493 
     33 C         -53.3562  -26.0594   17.1565 C.2       11 UNK         0.4932 
     34 O         -54.2375  -26.3914   17.9497 O.2       11 UNK        -0.5029 
     35 CA        -52.0143  -26.8130   17.1798 C.3       10 UNK         0.0280 
     36 CB        -52.1387  -28.1221   16.3825 C.3       10 UNK        -0.1976 
     37 N         -50.8910  -26.0316   16.6527 N.am      10 UNK        -0.4242 
     38 C         -50.3300  -24.9847   17.2757 C.2       10 UNK         0.5072 
     39 O         -50.6703  -24.5870   18.3908 O.2       10 UNK        -0.5224 
     40 CA        -49.2109  -24.2437   16.5218 C.3       9 UNK         0.0343 
     41 CB        -47.8807  -25.0087   16.6169 C.3       9 UNK        -0.2003 
     42 N         -49.5393  -24.0028   15.1152 N.am      9 UNK        -0.4272 
     43 C         -50.5201  -23.1934   14.6871 C.2       9 UNK         0.4988 
     44 O         -51.2215  -22.5078   15.4305 O.2       9 UNK        -0.5108 
     45 CA        -50.7913  -23.1752   13.1740 C.3       8 UNK         0.0248 
     46 CB        -49.8151  -22.2387   12.4428 C.3       8 UNK        -0.2001 
     47 N         -50.7225  -24.5174   12.5958 N.am      8 UNK        -0.4140 
     48 C         -51.6233  -25.4835   12.8245 C.2       8 UNK         0.5028 
     49 O         -52.6467  -25.3257   13.4893 O.2       8 UNK        -0.5428 
     50 CA        -51.3124  -26.8684   12.2437 C.3       7 UNK         0.0264 
     51 CB        -51.8800  -27.0020   10.8257 C.3       7 UNK        -0.1988 
     52 N         -49.8845  -27.1773   12.2375 N.am      7 UNK        -0.4454 
     53 C         -49.1680  -27.4245   13.3434 C.2       7 UNK         0.5027 
     54 O         -49.6277  -27.3681   14.4834 O.2       7 UNK        -0.5083 
     55 CA        -47.6748  -27.7498   13.1423 C.3       6 UNK         0.0844 
     56 C56       -47.4423  -29.2460   12.8021 C.3       14 UNK        -0.0967 
     57 S57       -48.1436  -29.7831   11.1982 S.3       14 UNK        -0.2604 
     58 C58       -49.6419  -30.6689   11.7685 C.3       14 UNK         0.0134 
     59 N         -47.0185  -26.8496   12.1907 N.am      6 UNK        -0.4116 
     60 C         -46.9876  -25.5126   12.2629 C.2       5 UNK         0.5034 
     61 O         -47.5547  -24.8651   13.1438 O.2       5 UNK        -0.5045 
     62 CA        -46.2237  -24.7503   11.1672 C.3       5 UNK         0.0224 
     63 CB        -44.7738  -24.4695   11.6046 C.3       5 UNK        -0.1978 
     64 N         -46.2719  -25.3532    9.8267 N.am      5 UNK        -0.4737 
     65 C         -45.7433  -26.5059    9.3840 C.2       4 UNK         0.5027 
     66 O         -45.1454  -27.3021   10.1073 O.2       4 UNK        -0.5211 
     67 CA        -45.9291  -26.8472    7.8931 C.3       4 UNK         0.0297 
     68 CB        -46.7966  -28.1075    7.7246 C.3       4 UNK        -0.1993 
     69 N         -46.5219  -25.7364    7.1413 N.am      4 UNK        -0.4486 
     70 C         -45.8209  -24.7103    6.6328 C.2       3 UNK         0.4961 
     71 O         -44.5910  -24.6572    6.6435 O.2       3 UNK        -0.5105 
     72 CA        -46.6064  -23.5293    6.0315 C.3       3 UNK         0.0299 
     73 CB        -46.5084  -23.5343    4.4971 C.3       3 UNK        -0.1972 
     74 N         -48.0153  -23.5016    6.4373 N.am      3 UNK        -0.4305 
     75 C         -48.4437  -23.1124    7.6493 C.2       2 UNK         0.5006 
     76 O         -47.6934  -22.7138    8.5399 O.2       2 UNK        -0.5106 
     77 CA        -49.9506  -23.2438    7.9465 C.3       2 UNK         0.0296 
     78 CB        -50.6906  -21.9486    7.5785 C.3       2 UNK        -0.2002 
     79 N         -50.5808  -24.3823    7.2698 N.am      2 UNK        -0.4032 
     80 C         -50.2228  -25.6581    7.4679 C.2       1 UNK         0.5000 
     81 O         -49.3674  -26.0015    8.2872 O.2       1 UNK        -0.5238 
     82 H82       -48.2925  -27.2477    2.8754 H         1 UNK         0.0889 
     83 H83       -48.1713  -28.4673    4.1443 H         1 UNK         0.0889 
     84 H84       -47.1256  -27.0454    4.1858 H         1 UNK         0.0889 
     85 H85       -49.6887  -28.2881    5.7928 H         1 UNK         0.3028 
     86 H86       -51.6213  -26.2420    5.9330 H         1 UNK         0.0864 
     87 H87       -52.3821  -27.3425    7.9986 H         1 UNK         0.0720 
     88 H88       -50.8841  -28.2230    8.1409 H         1 UNK         0.0720 
     89 H89       -50.3024  -30.4162    6.7270 H         1 UNK         0.0814 
     90 H90       -51.6563  -31.4459    6.3453 H         1 UNK         0.0814 
     91 H91       -49.6254  -30.1946    8.9993 H         1 UNK         0.1469 
     92 H92       -52.0470  -31.7983   12.1640 H         1 UNK         0.1381 
     93 H93       -53.5171  -31.7409    8.1387 H         1 UNK         0.1206 
     94 H94       -53.9274  -33.3664   11.3274 H         1 UNK         0.0813 
     95 H95       -54.7148  -32.9932    9.8193 H         1 UNK         0.0813 
     96 H96       -56.9700  -30.3297   10.1730 H         1 UNK         0.0638 
     97 H97       -55.5270  -30.6978    9.2706 H         1 UNK         0.0638 
     98 H98       -54.3020  -28.8988   10.5915 H         1 UNK         0.0568 
     99 H99       -55.9237  -26.0949    8.4921 H         1 UNK         0.3450 
    100 H100      -55.8949  -26.2404   10.2302 H         1 UNK         0.3450 
    101 H101      -56.9848  -27.9965   11.5281 H         1 UNK         0.2987 
    102 H102      -57.0669  -26.7344   13.3792 H         1 UNK         0.0766 
    103 H103      -57.3854  -27.8000   15.6240 H         1 UNK         0.0798 
    104 H104      -55.9264  -28.7628   15.3994 H         1 UNK         0.0798 
    105 H105      -57.3367  -29.0443   14.3866 H         1 UNK         0.0798 
    106 H106      -54.3932  -26.3034   14.2770 H         1 UNK         0.3198 
    107 H107      -54.4147  -23.6601   15.0915 H         1 UNK         0.0843 
    108 H108      -55.5740  -24.0944   17.8954 H         1 UNK         0.0831 
    109 H109      -55.9995  -22.8168   16.7692 H         1 UNK         0.0831 
    110 H110      -54.3898  -22.8580   17.4702 H         1 UNK         0.0831 
    111 H111      -52.7257  -24.9643   15.5847 H         1 UNK         0.3133 
    112 H112      -51.7937  -27.0659   18.2189 H         1 UNK         0.0566 
    113 H113      -52.3521  -27.9337   15.3293 H         1 UNK         0.0814 
    114 H114      -51.2227  -28.7104   16.4380 H         1 UNK         0.0814 
    115 H115      -52.9472  -28.7429   16.7712 H         1 UNK         0.0814 
    116 H116      -50.4925  -26.3481   15.7704 H         1 UNK         0.3091 
    117 H117      -49.0758  -23.2719   17.0014 H         1 UNK         0.0702 
    118 H118      -47.0706  -24.4535   16.1434 H         1 UNK         0.0785 
    119 H119      -47.9386  -25.9858   16.1366 H         1 UNK         0.0785 
    120 H120      -47.5982  -25.1722   17.6577 H         1 UNK         0.0785 
    121 H121      -48.9681  -24.4818   14.4244 H         1 UNK         0.2998 
    122 H122      -51.8034  -22.7938   13.0215 H         1 UNK         0.0697 
    123 H123      -48.7789  -22.5586   12.5544 H         1 UNK         0.0825 
    124 H124      -49.8843  -21.2239   12.8370 H         1 UNK         0.0825 
    125 H125      -50.0369  -22.1862   11.3768 H         1 UNK         0.0825 
    126 H126      -49.8905  -24.7506   12.0745 H         1 UNK         0.3029 
    127 H127      -51.7975  -27.6085   12.8805 H         1 UNK         0.0897 
    128 H128      -52.9450  -26.7675   10.8100 H         1 UNK         0.0792 
    129 H129      -51.7680  -28.0203   10.4530 H         1 UNK         0.0792 
    130 H130      -51.3865  -26.3231   10.1315 H         1 UNK         0.0792 
    131 H131      -49.4293  -27.2617   11.3390 H         1 UNK         0.3086 
    132 H132      -47.1915  -27.5644   14.1039 H         1 UNK         0.0583 
    133 H133      -46.3699  -29.4456   12.7759 H         1 UNK         0.1020 
    134 H134      -47.8281  -29.8794   13.6036 H         1 UNK         0.1020 
    135 H135      -49.3304  -31.6138   12.2160 H         1 UNK         0.0694 
    136 H136      -50.1121  -30.0908   12.5648 H         1 UNK         0.0694 
    137 H137      -46.4858  -27.2840   11.4420 H         1 UNK         0.2989 
    138 H138      -46.7250  -23.7856   11.0671 H         1 UNK         0.1055 
    139 H139      -44.7517  -23.9287   12.5518 H         1 UNK         0.0806 
    140 H140      -44.2506  -23.8570   10.8702 H         1 UNK         0.0806 
    141 H141      -44.2028  -25.3879   11.7439 H         1 UNK         0.0806 
    142 H142      -46.7729  -24.7975    9.1452 H         1 UNK         0.3061 
    143 H143      -44.9400  -27.0678    7.4861 H         1 UNK         0.0734 
    144 H144      -46.9358  -28.3589    6.6737 H         1 UNK         0.0832 
    145 H145      -46.3244  -28.9678    8.2010 H         1 UNK         0.0832 
    146 H146      -47.7799  -27.9948    8.1803 H         1 UNK         0.0832 
    147 H147      -47.5335  -25.6887    7.1463 H         1 UNK         0.3156 
    148 H148      -46.1335  -22.6122    6.3894 H         1 UNK         0.0589 
    149 H149      -46.9135  -24.4484    4.0643 H         1 UNK         0.0808 
    150 H150      -47.0429  -22.6902    4.0612 H         1 UNK         0.0808 
    151 H151      -45.4690  -23.4590    4.1748 H         1 UNK         0.0808 
    152 H152      -48.6833  -23.8753    5.7696 H         1 UNK         0.3098 
    153 H153      -50.0569  -23.4021    9.0220 H         1 UNK         0.0720 
    154 H154      -51.7405  -21.9949    7.8685 H         1 UNK         0.0791 
    155 H155      -50.6450  -21.7464    6.5076 H         1 UNK         0.0791 
    156 H156      -50.2528  -21.0908    8.0913 H         1 UNK         0.0791 
    157 H157      -51.2649  -24.1682    6.5579 H         1 UNK         0.3028 
@<TRIPOS>BOND
     1    1    2 1    
     2    1   82 1    
     3    1   83 1    
     4    1   84 1    
     5    2    3 2    
     6    2    4 am   BACKBONE|DICT|INTERRES
     7    4    5 1    
     8    4   85 1    
     9    5    6 1    
    10    5   80 1    
    11    5   86 1    
    12    6    7 1    
    13    6   87 1    
    14    6   88 1    
    15    7    8 1    
    16    8    9 1    
    17    8   89 1    
    18    8   90 1    
    19    9   10 ar   
    20    9   14 ar   
    21   10   11 ar   
    22   10   91 1    
    23   11   12 ar   
    24   11   58 1    
    25   12   13 ar   
    26   12   92 1    
    27   13   14 ar   
    28   13   15 1    
    29   14   93 1    
    30   15   16 1    
    31   15   94 1    
    32   15   95 1    
    33   16   17 1    
    34   17   18 1    
    35   17   96 1    
    36   17   97 1    
    37   18   19 1    
    38   18   22 1    
    39   18   98 1    
    40   19   20 am   BACKBONE|DICT|INTERRES
    41   19   21 2    
    42   20   99 1    
    43   20  100 1    
    44   22   23 am   BACKBONE|DICT|INTERRES
    45   22  101 1    
    46   23   24 2    
    47   23   25 1    
    48   25   26 1    
    49   25   27 1    
    50   25  102 1    
    51   26  103 1    
    52   26  104 1    
    53   26  105 1    
    54   27   28 am   BACKBONE|DICT|INTERRES
    55   27  106 1    
    56   28   29 2    
    57   28   30 1    
    58   30   31 1    
    59   30   32 1    
    60   30  107 1    
    61   31  108 1    
    62   31  109 1    
    63   31  110 1    
    64   32   33 am   BACKBONE|DICT|INTERRES
    65   32  111 1    
    66   33   34 2    
    67   33   35 1    
    68   35   36 1    
    69   35   37 1    
    70   35  112 1    
    71   36  113 1    
    72   36  114 1    
    73   36  115 1    
    74   37   38 am   BACKBONE|DICT|INTERRES
    75   37  116 1    
    76   38   39 2    
    77   38   40 1    
    78   40   41 1    
    79   40   42 1    
    80   40  117 1    
    81   41  118 1    
    82   41  119 1    
    83   41  120 1    
    84   42   43 am   BACKBONE|DICT|INTERRES
    85   42  121 1    
    86   43   44 2    
    87   43   45 1    
    88   45   46 1    
    89   45   47 1    
    90   45  122 1    
    91   46  123 1    
    92   46  124 1    
    93   46  125 1    
    94   47   48 am   BACKBONE|DICT|INTERRES
    95   47  126 1    
    96   48   49 2    
    97   48   50 1    
    98   50   51 1    
    99   50   52 1    
   100   50  127 1    
   101   51  128 1    
   102   51  129 1    
   103   51  130 1    
   104   52   53 am   BACKBONE|DICT|INTERRES
   105   52  131 1    
   106   53   54 2    
   107   53   55 1    
   108   55   56 1    
   109   55   59 1    
   110   55  132 1    
   111   56   57 1    
   112   56  133 1    
   113   56  134 1    
   114   57   58 1    
   115   58  135 1    
   116   58  136 1    
   117   59   60 am   BACKBONE|DICT|INTERRES
   118   59  137 1    
   119   60   61 2    
   120   60   62 1    
   121   62   63 1    
   122   62   64 1    
   123   62  138 1    
   124   63  139 1    
   125   63  140 1    
   126   63  141 1    
   127   64   65 am   BACKBONE|DICT|INTERRES
   128   64  142 1    
   129   65   66 2    
   130   65   67 1    
   131   67   68 1    
   132   67   69 1    
   133   67  143 1    
   134   68  144 1    
   135   68  145 1    
   136   68  146 1    
   137   69   70 am   BACKBONE|DICT|INTERRES
   138   69  147 1    
   139   70   71 2    
   140   70   72 1    
   141   72   73 1    
   142   72   74 1    
   143   72  148 1    
   144   73  149 1    
   145   73  150 1    
   146   73  151 1    
   147   74   75 am   BACKBONE|DICT|INTERRES
   148   74  152 1    
   149   75   76 2    
   150   75   77 1    
   151   77   78 1    
   152   77   79 1    
   153   77  153 1    
   154   78  154 1    
   155   78  155 1    
   156   78  156 1    
   157   79   80 am   BACKBONE|DICT|INTERRES
   158   79  157 1    
   159   80   81 2    
@<TRIPOS>SUBSTRUCTURE
     1 UNK         1 GROUP             0       ****    0 ROOT    
