@<TRIPOS>MOLECULE
3R207
157   159    1
SMALL
USER_CHARGES


@<TRIPOS>ATOM
      1 CA        -49.6770  -23.3638    9.3351 C.3       0 UNK        -0.1975 
      2 C         -49.1928  -24.1885    8.1516 C.2       0 UNK         0.4852 
      3 O         -48.0071  -24.5155    8.0818 O.2       0 UNK        -0.5216 
      4 N         -50.0980  -24.5389    7.2290 N.am      1 UNK        -0.4461 
      5 CA        -49.8191  -25.3414    6.0306 C.3       1 UNK         0.0864 
      6 C6        -51.1155  -25.7414    5.2836 C.3       14 UNK        -0.0898 
      7 S7        -52.2790  -26.6373    6.3637 S.3       14 UNK        -0.2598 
      8 C8        -51.7974  -28.3718    6.0838 C.3       14 UNK         0.0286 
      9 C9        -51.8629  -29.1659    7.3800 C.ar      14 UNK        -0.0844 
     10 C10       -50.6910  -29.5977    8.0080 C.ar      14 UNK        -0.0881 
     11 C11       -50.7462  -30.2983    9.2185 C.ar      14 UNK        -0.0643 
     12 C12       -51.9896  -30.5655    9.8018 C.ar      14 UNK        -0.0930 
     13 C13       -53.1687  -30.1490    9.1751 C.ar      14 UNK        -0.0827 
     14 C14       -53.0989  -29.4580    7.9621 C.ar      14 UNK        -0.1249 
     15 C15       -54.5240  -30.4330    9.8014 C.3       14 UNK         0.0141 
     16 S16       -54.9833  -29.1163   10.9694 S.3       14 UNK        -0.2313 
     17 C17       -54.6428  -29.8800   12.5943 C.3       14 UNK        -0.0915 
     18 CA        -55.9253  -29.9283   13.4715 C.3       13 UNK         0.0968 
     19 C         -55.7161  -30.7327   14.7845 C.2       13 UNK         0.5732 
     20 N         -55.4348  -32.0247   14.6764 N.am      13 UNK        -0.7310 
     21 O         -55.8051  -30.2164   15.8968 O.2       13 UNK        -0.5035 
     22 N         -56.4444  -28.5754   13.7149 N.am      13 UNK        -0.4233 
     23 C         -57.7349  -28.2580   13.8744 C.2       13 UNK         0.4989 
     24 O         -58.6468  -29.0875   13.8561 O.2       13 UNK        -0.4996 
     25 CA        -58.0748  -26.7578   14.0191 C.3       12 UNK         0.0216 
     26 CB        -59.4072  -26.5056   14.7593 C.3       12 UNK        -0.1964 
     27 N         -56.9786  -25.9571   14.5814 N.am      12 UNK        -0.4276 
     28 C         -56.4870  -26.0217   15.8260 C.2       12 UNK         0.5020 
     29 O         -56.9651  -26.7014   16.7372 O.2       12 UNK        -0.5489 
     30 CA        -55.2186  -25.1927   16.0909 C.3       11 UNK         0.0294 
     31 CB        -55.5067  -24.0304   17.0546 C.3       11 UNK        -0.2019 
     32 N         -54.1421  -26.0225   16.6339 N.am      11 UNK        -0.4493 
     33 C         -53.6036  -27.0758   16.0060 C.2       11 UNK         0.4932 
     34 O         -53.9298  -27.4420   14.8766 O.2       11 UNK        -0.5029 
     35 CA        -52.4571  -27.7786   16.7412 C.3       10 UNK         0.0280 
     36 CB        -52.2670  -29.2387   16.2894 C.3       10 UNK        -0.1976 
     37 N         -51.2492  -27.0189   16.4462 N.am      10 UNK        -0.4242 
     38 C         -50.7236  -26.0777   17.2393 C.2       10 UNK         0.5072 
     39 O         -51.1018  -25.8572   18.3909 O.2       10 UNK        -0.5224 
     40 CA        -49.6203  -25.2015   16.6244 C.3       9 UNK         0.0343 
     41 CB        -48.3017  -25.9815   16.4945 C.3       9 UNK        -0.2003 
     42 N         -49.9991  -24.6600   15.3173 N.am      9 UNK        -0.4272 
     43 C         -51.0097  -23.8052   15.0930 C.2       9 UNK         0.4988 
     44 O         -51.7247  -23.3354   15.9782 O.2       9 UNK        -0.5108 
     45 CA        -51.2710  -23.4100   13.6323 C.3       8 UNK         0.0248 
     46 CB        -50.2860  -22.3223   13.1707 C.3       8 UNK        -0.2001 
     47 N         -51.1675  -24.5764   12.7553 N.am      8 UNK        -0.4140 
     48 C         -52.2062  -25.3354   12.3783 C.2       8 UNK         0.5028 
     49 O         -53.3792  -25.0606   12.6361 O.2       8 UNK        -0.5428 
     50 CA        -51.9003  -26.6026   11.5544 C.3       7 UNK         0.0264 
     51 CB        -52.2632  -26.3792   10.0796 C.3       7 UNK        -0.1988 
     52 N         -50.5096  -27.0650   11.6354 N.am      7 UNK        -0.4454 
     53 C         -49.9491  -27.5903   12.7332 C.2       7 UNK         0.5027 
     54 O         -50.5350  -27.7108   13.8071 O.2       7 UNK        -0.5083 
     55 CA        -48.4593  -27.9797   12.6522 C.3       6 UNK         0.0844 
     56 C56       -48.2599  -29.3986   12.0609 C.3       14 UNK        -0.0967 
     57 S57       -48.2957  -29.4526   10.2327 S.3       14 UNK        -0.2604 
     58 C58       -49.4632  -30.8031    9.8652 C.3       14 UNK         0.0134 
     59 N         -47.6089  -26.9749   12.0021 N.am      6 UNK        -0.4116 
     60 C         -47.5534  -25.6665   12.2772 C.2       5 UNK         0.5034 
     61 O         -48.2683  -25.1203   13.1168 O.2       5 UNK        -0.5045 
     62 CA        -46.5770  -24.7942   11.4691 C.3       5 UNK         0.0224 
     63 CB        -45.3329  -24.4412   12.3063 C.3       5 UNK        -0.1978 
     64 N         -46.2072  -25.3194   10.1453 N.am      5 UNK        -0.4737 
     65 C         -45.4519  -26.3817    9.8267 C.2       4 UNK         0.5027 
     66 O         -44.9744  -27.1549   10.6556 O.2       4 UNK        -0.5211 
     67 CA        -45.2138  -26.6456    8.3305 C.3       4 UNK         0.0297 
     68 CB        -46.1838  -27.7201    7.8139 C.3       4 UNK        -0.1993 
     69 N         -45.3878  -25.4358    7.5268 N.am      4 UNK        -0.4486 
     70 C         -44.4155  -24.5765    7.1984 C.2       3 UNK         0.4961 
     71 O         -43.2361  -24.7180    7.5268 O.2       3 UNK        -0.5105 
     72 CA        -44.8484  -23.3619    6.3488 C.3       3 UNK         0.0299 
     73 CB        -43.6565  -22.5968    5.7350 C.3       3 UNK        -0.1972 
     74 N         -45.8329  -23.7162    5.3160 N.am      3 UNK        -0.4305 
     75 C         -45.6873  -24.6043    4.3194 C.2       2 UNK         0.5006 
     76 O         -44.6385  -25.2043    4.0774 O.2       2 UNK        -0.5106 
     77 CA        -46.9522  -24.9029    3.4886 C.3       2 UNK         0.0296 
     78 CB        -46.7003  -25.9257    2.3640 C.3       2 UNK        -0.2002 
     79 N         -48.0318  -25.3986    4.3484 N.am      2 UNK        -0.4032 
     80 C         -48.8421  -24.6209    5.0781 C.2       1 UNK         0.5000 
     81 O         -48.8162  -23.3871    5.0314 O.2       1 UNK        -0.5238 
     82 H82       -50.7282  -23.0924    9.2406 H         1 UNK         0.0889 
     83 H83       -49.0959  -22.4455    9.4136 H         1 UNK         0.0889 
     84 H84       -49.5532  -23.9263   10.2592 H         1 UNK         0.0889 
     85 H85       -51.0553  -24.2336    7.3259 H         1 UNK         0.3028 
     86 H86       -49.3292  -26.2553    6.3741 H         1 UNK         0.0864 
     87 H87       -50.8945  -26.3570    4.4094 H         1 UNK         0.0720 
     88 H88       -51.6261  -24.8533    4.9057 H         1 UNK         0.0720 
     89 H89       -52.4630  -28.8163    5.3425 H         1 UNK         0.0814 
     90 H90       -50.7918  -28.4203    5.6638 H         1 UNK         0.0814 
     91 H91       -49.7295  -29.3861    7.5605 H         1 UNK         0.1469 
     92 H92       -52.0434  -31.1026   10.7387 H         1 UNK         0.1381 
     93 H93       -54.0074  -29.1214    7.4812 H         1 UNK         0.1206 
     94 H94       -55.2871  -30.4840    9.0233 H         1 UNK         0.0813 
     95 H95       -54.5279  -31.4115   10.2827 H         1 UNK         0.0813 
     96 H96       -53.8551  -29.3079   13.0854 H         1 UNK         0.0638 
     97 H97       -54.2331  -30.8797   12.4486 H         1 UNK         0.0638 
     98 H98       -56.6825  -30.4771   12.9080 H         1 UNK         0.0568 
     99 H99       -55.3687  -32.4736   13.7767 H         1 UNK         0.3450 
    100 H100      -55.2976  -32.5646   15.5162 H         1 UNK         0.3450 
    101 H101      -55.7342  -27.8654   13.8490 H         1 UNK         0.2987 
    102 H102      -58.2051  -26.3946   12.9986 H         1 UNK         0.0766 
    103 H103      -59.6189  -25.4399   14.8459 H         1 UNK         0.0798 
    104 H104      -59.4023  -26.9306   15.7633 H         1 UNK         0.0798 
    105 H105      -60.2429  -26.9574   14.2234 H         1 UNK         0.0798 
    106 H106      -56.4900  -25.3727   13.9152 H         1 UNK         0.3198 
    107 H107      -54.8589  -24.7735   15.1481 H         1 UNK         0.0843 
    108 H108      -55.8362  -24.3876   18.0312 H         1 UNK         0.0831 
    109 H109      -56.2932  -23.3848   16.6614 H         1 UNK         0.0831 
    110 H110      -54.6223  -23.4098   17.2023 H         1 UNK         0.0831 
    111 H111      -53.7938  -25.7768   17.5497 H         1 UNK         0.3133 
    112 H112      -52.6688  -27.7807   17.8125 H         1 UNK         0.0566 
    113 H113      -51.4197  -29.7017   16.7948 H         1 UNK         0.0814 
    114 H114      -53.1504  -29.8323   16.5251 H         1 UNK         0.0814 
    115 H115      -52.0992  -29.3199   15.2150 H         1 UNK         0.0814 
    116 H116      -50.9035  -27.1179   15.4922 H         1 UNK         0.3091 
    117 H117      -49.4515  -24.3569   17.2957 H         1 UNK         0.0702 
    118 H118      -47.5002  -25.3445   16.1196 H         1 UNK         0.0785 
    119 H119      -48.3981  -26.8292   15.8157 H         1 UNK         0.0785 
    120 H120      -47.9820  -26.3712   17.4618 H         1 UNK         0.0785 
    121 H121      -49.4214  -24.9413   14.5290 H         1 UNK         0.2998 
    122 H122      -52.2778  -22.9905   13.5746 H         1 UNK         0.0697 
    123 H123      -49.2496  -22.6574   13.2174 H         1 UNK         0.0825 
    124 H124      -50.3678  -21.4346   13.7992 H         1 UNK         0.0825 
    125 H125      -50.4917  -22.0124   12.1461 H         1 UNK         0.0825 
    126 H126      -50.2308  -24.8976   12.5447 H         1 UNK         0.3029 
    127 H127      -52.5381  -27.3981   11.9465 H         1 UNK         0.0897 
    128 H128      -52.1028  -27.2840    9.4963 H         1 UNK         0.0792 
    129 H129      -51.6739  -25.5812    9.6299 H         1 UNK         0.0792 
    130 H130      -53.3154  -26.1124    9.9717 H         1 UNK         0.0792 
    131 H131      -49.9592  -27.0259   10.7896 H         1 UNK         0.3086 
    132 H132      -48.1117  -28.0228   13.6861 H         1 UNK         0.0583 
    133 H133      -47.2841  -29.7765   12.3700 H         1 UNK         0.1020 
    134 H134      -48.9823  -30.0982   12.4856 H         1 UNK         0.1020 
    135 H135      -48.9790  -31.4937    9.1735 H         1 UNK         0.0694 
    136 H136      -49.6780  -31.3834   10.7631 H         1 UNK         0.0694 
    137 H137      -46.9475  -27.3293   11.3217 H         1 UNK         0.2989 
    138 H138      -47.1078  -23.8614   11.2716 H         1 UNK         0.1055 
    139 H139      -45.6178  -23.9430   13.2341 H         1 UNK         0.0806 
    140 H140      -44.6703  -23.7649   11.7662 H         1 UNK         0.0806 
    141 H141      -44.7588  -25.3267   12.5802 H         1 UNK         0.0806 
    142 H142      -46.6442  -24.8347    9.3647 H         1 UNK         0.3061 
    143 H143      -44.1944  -27.0198    8.2143 H         1 UNK         0.0734 
    144 H144      -46.0223  -27.9249    6.7556 H         1 UNK         0.0832 
    145 H145      -46.0410  -28.6597    8.3490 H         1 UNK         0.0832 
    146 H146      -47.2255  -27.4232    7.9448 H         1 UNK         0.0832 
    147 H147      -46.3459  -25.1785    7.3086 H         1 UNK         0.3156 
    148 H148      -45.3584  -22.6823    7.0332 H         1 UNK         0.0589 
    149 H149      -43.0631  -23.2313    5.0760 H         1 UNK         0.0808 
    150 H150      -43.9925  -21.7352    5.1583 H         1 UNK         0.0808 
    151 H151      -42.9893  -22.2240    6.5131 H         1 UNK         0.0808 
    152 H152      -46.7540  -23.3026    5.4243 H         1 UNK         0.3098 
    153 H153      -47.2617  -23.9665    3.0192 H         1 UNK         0.0720 
    154 H154      -47.5982  -26.0877    1.7673 H         1 UNK         0.0791 
    155 H155      -46.3799  -26.8913    2.7575 H         1 UNK         0.0791 
    156 H156      -45.9218  -25.5753    1.6849 H         1 UNK         0.0791 
    157 H157      -48.0947  -26.4019    4.4475 H         1 UNK         0.3028 
@<TRIPOS>BOND
     1    1    2 1    
     2    1   82 1    
     3    1   83 1    
     4    1   84 1    
     5    2    3 2    
     6    2    4 am   BACKBONE|DICT|INTERRES
     7    4    5 1    
     8    4   85 1    
     9    5    6 1    
    10    5   80 1    
    11    5   86 1    
    12    6    7 1    
    13    6   87 1    
    14    6   88 1    
    15    7    8 1    
    16    8    9 1    
    17    8   89 1    
    18    8   90 1    
    19    9   10 ar   
    20    9   14 ar   
    21   10   11 ar   
    22   10   91 1    
    23   11   12 ar   
    24   11   58 1    
    25   12   13 ar   
    26   12   92 1    
    27   13   14 ar   
    28   13   15 1    
    29   14   93 1    
    30   15   16 1    
    31   15   94 1    
    32   15   95 1    
    33   16   17 1    
    34   17   18 1    
    35   17   96 1    
    36   17   97 1    
    37   18   19 1    
    38   18   22 1    
    39   18   98 1    
    40   19   20 am   BACKBONE|DICT|INTERRES
    41   19   21 2    
    42   20   99 1    
    43   20  100 1    
    44   22   23 am   BACKBONE|DICT|INTERRES
    45   22  101 1    
    46   23   24 2    
    47   23   25 1    
    48   25   26 1    
    49   25   27 1    
    50   25  102 1    
    51   26  103 1    
    52   26  104 1    
    53   26  105 1    
    54   27   28 am   BACKBONE|DICT|INTERRES
    55   27  106 1    
    56   28   29 2    
    57   28   30 1    
    58   30   31 1    
    59   30   32 1    
    60   30  107 1    
    61   31  108 1    
    62   31  109 1    
    63   31  110 1    
    64   32   33 am   BACKBONE|DICT|INTERRES
    65   32  111 1    
    66   33   34 2    
    67   33   35 1    
    68   35   36 1    
    69   35   37 1    
    70   35  112 1    
    71   36  113 1    
    72   36  114 1    
    73   36  115 1    
    74   37   38 am   BACKBONE|DICT|INTERRES
    75   37  116 1    
    76   38   39 2    
    77   38   40 1    
    78   40   41 1    
    79   40   42 1    
    80   40  117 1    
    81   41  118 1    
    82   41  119 1    
    83   41  120 1    
    84   42   43 am   BACKBONE|DICT|INTERRES
    85   42  121 1    
    86   43   44 2    
    87   43   45 1    
    88   45   46 1    
    89   45   47 1    
    90   45  122 1    
    91   46  123 1    
    92   46  124 1    
    93   46  125 1    
    94   47   48 am   BACKBONE|DICT|INTERRES
    95   47  126 1    
    96   48   49 2    
    97   48   50 1    
    98   50   51 1    
    99   50   52 1    
   100   50  127 1    
   101   51  128 1    
   102   51  129 1    
   103   51  130 1    
   104   52   53 am   BACKBONE|DICT|INTERRES
   105   52  131 1    
   106   53   54 2    
   107   53   55 1    
   108   55   56 1    
   109   55   59 1    
   110   55  132 1    
   111   56   57 1    
   112   56  133 1    
   113   56  134 1    
   114   57   58 1    
   115   58  135 1    
   116   58  136 1    
   117   59   60 am   BACKBONE|DICT|INTERRES
   118   59  137 1    
   119   60   61 2    
   120   60   62 1    
   121   62   63 1    
   122   62   64 1    
   123   62  138 1    
   124   63  139 1    
   125   63  140 1    
   126   63  141 1    
   127   64   65 am   BACKBONE|DICT|INTERRES
   128   64  142 1    
   129   65   66 2    
   130   65   67 1    
   131   67   68 1    
   132   67   69 1    
   133   67  143 1    
   134   68  144 1    
   135   68  145 1    
   136   68  146 1    
   137   69   70 am   BACKBONE|DICT|INTERRES
   138   69  147 1    
   139   70   71 2    
   140   70   72 1    
   141   72   73 1    
   142   72   74 1    
   143   72  148 1    
   144   73  149 1    
   145   73  150 1    
   146   73  151 1    
   147   74   75 am   BACKBONE|DICT|INTERRES
   148   74  152 1    
   149   75   76 2    
   150   75   77 1    
   151   77   78 1    
   152   77   79 1    
   153   77  153 1    
   154   78  154 1    
   155   78  155 1    
   156   78  156 1    
   157   79   80 am   BACKBONE|DICT|INTERRES
   158   79  157 1    
   159   80   81 2    
@<TRIPOS>SUBSTRUCTURE
     1 UNK         1 GROUP             0       ****    0 ROOT    
