@<TRIPOS>MOLECULE
3R207
157   159    1
SMALL
USER_CHARGES


@<TRIPOS>ATOM
      1 CA        -54.0867  -23.9233    2.5195 C.3       0 UNK        -0.1975 
      2 C         -53.3039  -24.9353    3.3439 C.2       0 UNK         0.4852 
      3 O         -53.2468  -26.1083    2.9720 O.2       0 UNK        -0.5216 
      4 N         -52.7085  -24.4873    4.4587 N.am      1 UNK        -0.4461 
      5 CA        -51.8697  -25.2752    5.3707 C.3       1 UNK         0.0864 
      6 C6        -52.6604  -26.4213    6.0687 C.3       14 UNK        -0.0898 
      7 S7        -51.9763  -26.8296    7.7065 S.3       14 UNK        -0.2598 
      8 C8        -51.9534  -28.6447    7.6608 C.3       14 UNK         0.0286 
      9 C9        -51.2368  -29.2040    8.8786 C.ar      14 UNK        -0.0844 
     10 C10       -49.8690  -29.4819    8.8292 C.ar      14 UNK        -0.0881 
     11 C11       -49.2134  -30.0292    9.9352 C.ar      14 UNK        -0.0643 
     12 C12       -49.9347  -30.2883   11.1057 C.ar      14 UNK        -0.0930 
     13 C13       -51.3018  -29.9994   11.1728 C.ar      14 UNK        -0.0827 
     14 C14       -51.9439  -29.4581   10.0546 C.ar      14 UNK        -0.1249 
     15 C15       -52.0907  -30.2557   12.4491 C.3       14 UNK         0.0141 
     16 S16       -53.4009  -31.4941   12.1794 S.3       14 UNK        -0.2313 
     17 C17       -54.6779  -30.9943   13.3845 C.3       14 UNK        -0.0915 
     18 CA        -55.7049  -30.0026   12.7675 C.3       13 UNK         0.0968 
     19 C         -57.0309  -29.9242   13.5809 C.2       13 UNK         0.5732 
     20 N         -57.5765  -28.7482   13.8744 N.am      13 UNK        -0.7310 
     21 O         -57.6009  -30.9559   13.9292 O.2       13 UNK        -0.5035 
     22 N         -55.0903  -28.6857   12.5669 N.am      13 UNK        -0.4233 
     23 C         -55.1052  -27.9702   11.4368 C.2       13 UNK         0.4989 
     24 O         -55.6202  -28.3580   10.3870 O.2       13 UNK        -0.4996 
     25 CA        -54.4057  -26.5931   11.4863 C.3       12 UNK         0.0216 
     26 CB        -54.9658  -25.6030   10.4446 C.3       12 UNK        -0.1964 
     27 N         -54.3855  -25.9808   12.8237 N.am      12 UNK        -0.4276 
     28 C         -55.4416  -25.7212   13.6098 C.2       12 UNK         0.5020 
     29 O         -56.6102  -25.9472   13.2876 O.2       12 UNK        -0.5489 
     30 CA        -55.1206  -25.1864   15.0180 C.3       11 UNK         0.0294 
     31 CB        -56.3503  -25.1829   15.9506 C.3       11 UNK        -0.2019 
     32 N         -54.0020  -25.8941   15.6550 N.am      11 UNK        -0.4493 
     33 C         -53.8889  -27.2095   15.9028 C.2       11 UNK         0.4932 
     34 O         -54.7277  -28.0436   15.5634 O.2       11 UNK        -0.5029 
     35 CA        -52.6124  -27.6948   16.6191 C.3       10 UNK         0.0280 
     36 CB        -51.7941  -28.6062   15.6921 C.3       10 UNK        -0.1976 
     37 N         -51.7507  -26.6038   17.0777 N.am      10 UNK        -0.4242 
     38 C         -51.9601  -25.8249   18.1460 C.2       10 UNK         0.5072 
     39 O         -52.8794  -25.9996   18.9461 O.2       10 UNK        -0.5224 
     40 CA        -51.0255  -24.6112   18.3292 C.3       9 UNK         0.0343 
     41 CB        -49.7849  -24.9805   19.1663 C.3       9 UNK        -0.2003 
     42 N         -50.6606  -23.9326   17.0715 N.am      9 UNK        -0.4272 
     43 C         -49.9068  -24.3946   16.0631 C.2       9 UNK         0.4988 
     44 O         -49.3281  -25.4827   16.0802 O.2       9 UNK        -0.5108 
     45 CA        -49.8138  -23.4992   14.8172 C.3       8 UNK         0.0248 
     46 CB        -48.5821  -22.5847   14.9090 C.3       8 UNK        -0.2001 
     47 N         -49.7396  -24.2846   13.5830 N.am      8 UNK        -0.4140 
     48 C         -50.6824  -25.1300   13.1381 C.2       8 UNK         0.5028 
     49 O         -51.7858  -25.2760   13.6678 O.2       8 UNK        -0.5428 
     50 CA        -50.3396  -25.9544   11.8871 C.3       7 UNK         0.0264 
     51 CB        -50.6307  -25.1375   10.6219 C.3       7 UNK        -0.1988 
     52 N         -48.9449  -26.4020   11.8783 N.am      7 UNK        -0.4454 
     53 C         -48.4565  -27.3412   12.7048 C.2       7 UNK         0.5027 
     54 O         -49.1545  -27.9818   13.4913 O.2       7 UNK        -0.5083 
     55 CA        -46.9382  -27.6078   12.6883 C.3       6 UNK         0.0844 
     56 C56       -46.5687  -28.9392   11.9905 C.3       14 UNK        -0.0967 
     57 S57       -46.6881  -28.9086   10.1689 S.3       14 UNK        -0.2604 
     58 C58       -47.7326  -30.3612    9.8398 C.3       14 UNK         0.0134 
     59 N         -46.1799  -26.4687   12.1644 N.am      6 UNK        -0.4116 
     60 C         -45.6669  -25.4921   12.9239 C.2       5 UNK         0.5034 
     61 O         -45.7392  -25.4588   14.1524 O.2       5 UNK        -0.5045 
     62 CA        -44.9509  -24.3469   12.1898 C.3       5 UNK         0.0224 
     63 CB        -43.4946  -24.7306   11.8801 C.3       5 UNK        -0.1978 
     64 N         -45.6146  -23.9177   10.9553 N.am      5 UNK        -0.4737 
     65 C         -46.8567  -23.4189   10.8833 C.2       4 UNK         0.5027 
     66 O         -47.6212  -23.3386   11.8430 O.2       4 UNK        -0.5211 
     67 CA        -47.3310  -22.9376    9.5030 C.3       4 UNK         0.0297 
     68 CB        -46.9808  -21.4543    9.3060 C.3       4 UNK        -0.1993 
     69 N         -46.7898  -23.7217    8.3891 N.am      4 UNK        -0.4486 
     70 C         -47.0834  -25.0075    8.1619 C.2       3 UNK         0.4961 
     71 O         -47.7959  -25.6930    8.8976 O.2       3 UNK        -0.5105 
     72 CA        -46.4789  -25.6352    6.9054 C.3       3 UNK         0.0299 
     73 CB        -45.2846  -26.5414    7.2553 C.3       3 UNK        -0.1972 
     74 N         -47.5328  -26.3934    6.2416 N.am      3 UNK        -0.4305 
     75 C         -47.5352  -26.7606    4.9546 C.2       2 UNK         0.5006 
     76 O         -46.5984  -26.5588    4.1807 O.2       2 UNK        -0.5106 
     77 CA        -48.8040  -27.4554    4.4308 C.3       2 UNK         0.0296 
     78 CB        -48.7438  -28.9695    4.6897 C.3       2 UNK        -0.2002 
     79 N         -50.0383  -26.9018    4.9974 N.am      2 UNK        -0.4032 
     80 C         -50.5463  -25.7005    4.6857 C.2       1 UNK         0.5000 
     81 O         -50.0024  -24.9224    3.8964 O.2       1 UNK        -0.5238 
     82 H82       -54.0615  -22.9280    2.9629 H         1 UNK         0.0889 
     83 H83       -55.1287  -24.2318    2.4381 H         1 UNK         0.0889 
     84 H84       -53.6708  -23.8572    1.5144 H         1 UNK         0.0889 
     85 H85       -52.7729  -23.5040    4.6829 H         1 UNK         0.3028 
     86 H86       -51.5705  -24.5640    6.1427 H         1 UNK         0.0864 
     87 H87       -53.6909  -26.1063    6.2415 H         1 UNK         0.0720 
     88 H88       -52.7316  -27.3072    5.4349 H         1 UNK         0.0720 
     89 H89       -51.4669  -28.9947    6.7496 H         1 UNK         0.0814 
     90 H90       -52.9790  -29.0163    7.6248 H         1 UNK         0.0814 
     91 H91       -49.3097  -29.2787    7.9287 H         1 UNK         0.1469 
     92 H92       -49.4313  -30.7082   11.9653 H         1 UNK         0.1381 
     93 H93       -53.0023  -29.2478   10.0931 H         1 UNK         0.1206 
     94 H94       -52.5160  -29.3110   12.7842 H         1 UNK         0.0813 
     95 H95       -51.4370  -30.5990   13.2522 H         1 UNK         0.0813 
     96 H96       -54.2115  -30.5753   14.2771 H         1 UNK         0.0638 
     97 H97       -55.1706  -31.9133   13.7061 H         1 UNK         0.0638 
     98 H98       -56.0084  -30.4081   11.8009 H         1 UNK         0.0568 
     99 H99       -58.4387  -28.7272   14.3939 H         1 UNK         0.3450 
    100 H100      -57.1394  -27.8774   13.5922 H         1 UNK         0.3450 
    101 H101      -54.7266  -28.2603   13.4108 H         1 UNK         0.2987 
    102 H102      -53.3642  -26.7847   11.2261 H         1 UNK         0.0766 
    103 H103      -54.4384  -24.6499   10.4805 H         1 UNK         0.0798 
    104 H104      -56.0266  -25.4076   10.6044 H         1 UNK         0.0798 
    105 H105      -54.8529  -25.9938    9.4323 H         1 UNK         0.0798 
    106 H106      -53.4593  -25.7598   13.1955 H         1 UNK         0.3198 
    107 H107      -54.7998  -24.1520   14.8846 H         1 UNK         0.0843 
    108 H108      -56.7488  -26.1878   16.0959 H         1 UNK         0.0831 
    109 H109      -57.1534  -24.5713   15.5375 H         1 UNK         0.0831 
    110 H110      -56.1041  -24.7749   16.9308 H         1 UNK         0.0831 
    111 H111      -53.2052  -25.3205   15.8916 H         1 UNK         0.3133 
    112 H112      -52.9241  -28.2776   17.4880 H         1 UNK         0.0566 
    113 H113      -51.5100  -28.0892   14.7745 H         1 UNK         0.0814 
    114 H114      -50.8806  -28.9535   16.1752 H         1 UNK         0.0814 
    115 H115      -52.3651  -29.4908   15.4107 H         1 UNK         0.0814 
    116 H116      -50.9352  -26.3918   16.5068 H         1 UNK         0.3091 
    117 H117      -51.5907  -23.8732   18.9010 H         1 UNK         0.0702 
    118 H118      -49.1486  -24.1121   19.3365 H         1 UNK         0.0785 
    119 H119      -49.1800  -25.7515   18.6884 H         1 UNK         0.0785 
    120 H120      -50.0788  -25.3639   20.1443 H         1 UNK         0.0785 
    121 H121      -51.0918  -23.0263   16.9472 H         1 UNK         0.2998 
    122 H122      -50.7107  -22.8793   14.7596 H         1 UNK         0.0697 
    123 H123      -47.6557  -23.1615   14.9195 H         1 UNK         0.0825 
    124 H124      -48.6037  -21.9819   15.8178 H         1 UNK         0.0825 
    125 H125      -48.5359  -21.8962   14.0649 H         1 UNK         0.0825 
    126 H126      -48.8853  -24.1862   13.0412 H         1 UNK         0.3029 
    127 H127      -50.9746  -26.8430   11.8775 H         1 UNK         0.0897 
    128 H128      -50.3294  -25.6806    9.7280 H         1 UNK         0.0792 
    129 H129      -50.1033  -24.1842   10.6252 H         1 UNK         0.0792 
    130 H130      -51.6959  -24.9220   10.5316 H         1 UNK         0.0792 
    131 H131      -48.3269  -25.9568   11.2128 H         1 UNK         0.3086 
    132 H132      -46.6665  -27.7446   13.7374 H         1 UNK         0.0583 
    133 H133      -45.5380  -29.1951   12.2404 H         1 UNK         0.1020 
    134 H134      -47.1690  -29.7549   12.3970 H         1 UNK         0.1020 
    135 H135      -47.5088  -30.7252    8.8359 H         1 UNK         0.0694 
    136 H136      -47.4715  -31.1762   10.5165 H         1 UNK         0.0694 
    137 H137      -46.0779  -26.4216   11.1603 H         1 UNK         0.2989 
    138 H138      -44.9411  -23.4899   12.8673 H         1 UNK         0.1055 
    139 H139      -42.9712  -25.0390   12.7864 H         1 UNK         0.0806 
    140 H140      -42.9422  -23.8890   11.4616 H         1 UNK         0.0806 
    141 H141      -43.4347  -25.5581   11.1720 H         1 UNK         0.0806 
    142 H142      -45.0680  -23.9491   10.1070 H         1 UNK         0.3061 
    143 H143      -48.4180  -23.0319    9.4769 H         1 UNK         0.0734 
    144 H144      -47.3938  -20.8469   10.1129 H         1 UNK         0.0832 
    145 H145      -47.3908  -21.0690    8.3723 H         1 UNK         0.0832 
    146 H146      -45.9026  -21.2895    9.2947 H         1 UNK         0.0832 
    147 H147      -46.1928  -23.2337    7.7361 H         1 UNK         0.3156 
    148 H148      -46.1431  -24.8391    6.2374 H         1 UNK         0.0589 
    149 H149      -45.5893  -27.3834    7.8765 H         1 UNK         0.0808 
    150 H150      -44.8134  -26.9437    6.3586 H         1 UNK         0.0808 
    151 H151      -44.5195  -25.9896    7.8027 H         1 UNK         0.0808 
    152 H152      -48.3383  -26.5825    6.8245 H         1 UNK         0.3098 
    153 H153      -48.8376  -27.3041    3.3495 H         1 UNK         0.0720 
    154 H154      -49.6204  -29.4782    4.2879 H         1 UNK         0.0791 
    155 H155      -48.6765  -29.1995    5.7520 H         1 UNK         0.0791 
    156 H156      -47.8683  -29.4087    4.2094 H         1 UNK         0.0791 
    157 H157      -50.5323  -27.4628    5.6752 H         1 UNK         0.3028 
@<TRIPOS>BOND
     1    1    2 1    
     2    1   82 1    
     3    1   83 1    
     4    1   84 1    
     5    2    3 2    
     6    2    4 am   BACKBONE|DICT|INTERRES
     7    4    5 1    
     8    4   85 1    
     9    5    6 1    
    10    5   80 1    
    11    5   86 1    
    12    6    7 1    
    13    6   87 1    
    14    6   88 1    
    15    7    8 1    
    16    8    9 1    
    17    8   89 1    
    18    8   90 1    
    19    9   10 ar   
    20    9   14 ar   
    21   10   11 ar   
    22   10   91 1    
    23   11   12 ar   
    24   11   58 1    
    25   12   13 ar   
    26   12   92 1    
    27   13   14 ar   
    28   13   15 1    
    29   14   93 1    
    30   15   16 1    
    31   15   94 1    
    32   15   95 1    
    33   16   17 1    
    34   17   18 1    
    35   17   96 1    
    36   17   97 1    
    37   18   19 1    
    38   18   22 1    
    39   18   98 1    
    40   19   20 am   BACKBONE|DICT|INTERRES
    41   19   21 2    
    42   20   99 1    
    43   20  100 1    
    44   22   23 am   BACKBONE|DICT|INTERRES
    45   22  101 1    
    46   23   24 2    
    47   23   25 1    
    48   25   26 1    
    49   25   27 1    
    50   25  102 1    
    51   26  103 1    
    52   26  104 1    
    53   26  105 1    
    54   27   28 am   BACKBONE|DICT|INTERRES
    55   27  106 1    
    56   28   29 2    
    57   28   30 1    
    58   30   31 1    
    59   30   32 1    
    60   30  107 1    
    61   31  108 1    
    62   31  109 1    
    63   31  110 1    
    64   32   33 am   BACKBONE|DICT|INTERRES
    65   32  111 1    
    66   33   34 2    
    67   33   35 1    
    68   35   36 1    
    69   35   37 1    
    70   35  112 1    
    71   36  113 1    
    72   36  114 1    
    73   36  115 1    
    74   37   38 am   BACKBONE|DICT|INTERRES
    75   37  116 1    
    76   38   39 2    
    77   38   40 1    
    78   40   41 1    
    79   40   42 1    
    80   40  117 1    
    81   41  118 1    
    82   41  119 1    
    83   41  120 1    
    84   42   43 am   BACKBONE|DICT|INTERRES
    85   42  121 1    
    86   43   44 2    
    87   43   45 1    
    88   45   46 1    
    89   45   47 1    
    90   45  122 1    
    91   46  123 1    
    92   46  124 1    
    93   46  125 1    
    94   47   48 am   BACKBONE|DICT|INTERRES
    95   47  126 1    
    96   48   49 2    
    97   48   50 1    
    98   50   51 1    
    99   50   52 1    
   100   50  127 1    
   101   51  128 1    
   102   51  129 1    
   103   51  130 1    
   104   52   53 am   BACKBONE|DICT|INTERRES
   105   52  131 1    
   106   53   54 2    
   107   53   55 1    
   108   55   56 1    
   109   55   59 1    
   110   55  132 1    
   111   56   57 1    
   112   56  133 1    
   113   56  134 1    
   114   57   58 1    
   115   58  135 1    
   116   58  136 1    
   117   59   60 am   BACKBONE|DICT|INTERRES
   118   59  137 1    
   119   60   61 2    
   120   60   62 1    
   121   62   63 1    
   122   62   64 1    
   123   62  138 1    
   124   63  139 1    
   125   63  140 1    
   126   63  141 1    
   127   64   65 am   BACKBONE|DICT|INTERRES
   128   64  142 1    
   129   65   66 2    
   130   65   67 1    
   131   67   68 1    
   132   67   69 1    
   133   67  143 1    
   134   68  144 1    
   135   68  145 1    
   136   68  146 1    
   137   69   70 am   BACKBONE|DICT|INTERRES
   138   69  147 1    
   139   70   71 2    
   140   70   72 1    
   141   72   73 1    
   142   72   74 1    
   143   72  148 1    
   144   73  149 1    
   145   73  150 1    
   146   73  151 1    
   147   74   75 am   BACKBONE|DICT|INTERRES
   148   74  152 1    
   149   75   76 2    
   150   75   77 1    
   151   77   78 1    
   152   77   79 1    
   153   77  153 1    
   154   78  154 1    
   155   78  155 1    
   156   78  156 1    
   157   79   80 am   BACKBONE|DICT|INTERRES
   158   79  157 1    
   159   80   81 2    
@<TRIPOS>SUBSTRUCTURE
     1 UNK         1 GROUP             0       ****    0 ROOT    
