@<TRIPOS>MOLECULE
3R207
157   159    1
SMALL
USER_CHARGES


@<TRIPOS>ATOM
      1 CA        -47.4076  -31.3861    6.6801 C.3       0 UNK        -0.1975 
      2 C         -48.0498  -30.1437    6.0820 C.2       0 UNK         0.4852 
      3 O         -48.3510  -29.2091    6.8190 O.2       0 UNK        -0.5216 
      4 N         -48.2425  -30.1336    4.7558 N.am      1 UNK        -0.4461 
      5 CA        -48.8559  -29.1022    3.9018 C.3       1 UNK         0.0864 
      6 C6        -50.3988  -28.9562    4.0727 C.3       14 UNK        -0.0898 
      7 S7        -50.9803  -27.8072    5.3701 S.3       14 UNK        -0.2598 
      8 C8        -51.7576  -28.9456    6.5667 C.3       14 UNK         0.0286 
      9 C9        -52.0804  -28.2969    7.9127 C.ar      14 UNK        -0.0844 
     10 C10       -52.4610  -26.9523    8.0110 C.ar      14 UNK        -0.0881 
     11 C11       -52.7246  -26.3694    9.2535 C.ar      14 UNK        -0.0643 
     12 C12       -52.6382  -27.1497   10.4071 C.ar      14 UNK        -0.0930 
     13 C13       -52.2965  -28.5011   10.3248 C.ar      14 UNK        -0.0827 
     14 C14       -52.0115  -29.0672    9.0785 C.ar      14 UNK        -0.1249 
     15 C15       -52.2432  -29.3436   11.5868 C.3       14 UNK         0.0141 
     16 S16       -53.8111  -30.2333   11.8282 S.3       14 UNK        -0.2313 
     17 C17       -53.6964  -30.6606   13.5962 C.3       14 UNK        -0.0915 
     18 CA        -55.0873  -30.8516   14.2567 C.3       13 UNK         0.0968 
     19 C         -54.9309  -31.3580   15.7204 C.2       13 UNK         0.5732 
     20 N         -55.3144  -30.5937   16.7366 N.am      13 UNK        -0.7310 
     21 O         -54.4583  -32.4715   15.9368 O.2       13 UNK        -0.5035 
     22 N         -55.9460  -29.6610   14.1110 N.am      13 UNK        -0.4233 
     23 C         -57.2835  -29.6816   14.2225 C.2       13 UNK         0.4989 
     24 O         -57.9293  -30.7122   14.4191 O.2       13 UNK        -0.4996 
     25 CA        -58.0522  -28.3477   14.1235 C.3       12 UNK         0.0216 
     26 CB        -58.5809  -27.9313   15.5069 C.3       12 UNK        -0.1964 
     27 N         -57.2636  -27.2461   13.5717 N.am      12 UNK        -0.4276 
     28 C         -56.9364  -27.0978   12.2814 C.2       12 UNK         0.5020 
     29 O         -57.3588  -27.8263   11.3831 O.2       12 UNK        -0.5489 
     30 CA        -55.9647  -25.9506   11.9313 C.3       11 UNK         0.0294 
     31 CB        -56.7158  -24.7932   11.2533 C.3       11 UNK        -0.2019 
     32 N         -55.1875  -25.4209   13.0645 N.am      11 UNK        -0.4493 
     33 C         -54.3388  -26.1362   13.8140 C.2       11 UNK         0.4932 
     34 O         -54.1482  -27.3450   13.6629 O.2       11 UNK        -0.5029 
     35 CA        -53.6229  -25.4051   14.9522 C.3       10 UNK         0.0280 
     36 CB        -54.5683  -25.2109   16.1538 C.3       10 UNK        -0.1976 
     37 N         -52.4851  -26.2362   15.3221 N.am      10 UNK        -0.4242 
     38 C         -51.4455  -25.9088   16.0920 C.2       10 UNK         0.5072 
     39 O         -51.3287  -24.8261   16.6680 O.2       10 UNK        -0.5224 
     40 CA        -50.3516  -26.9740   16.2659 C.3       9 UNK         0.0343 
     41 CB        -50.6734  -28.3390   15.6176 C.3       9 UNK        -0.2003 
     42 N         -49.1146  -26.4551   15.6910 N.am      9 UNK        -0.4272 
     43 C         -48.0021  -26.1821   16.3827 C.2       9 UNK         0.4988 
     44 O         -47.8709  -26.3825   17.5914 O.2       9 UNK        -0.5108 
     45 CA        -46.8212  -25.5977   15.5926 C.3       8 UNK         0.0248 
     46 CB        -46.0406  -26.7209   14.8906 C.3       8 UNK        -0.2001 
     47 N         -47.2207  -24.5825   14.6139 N.am      8 UNK        -0.4140 
     48 C         -47.6800  -23.3622   14.9299 C.2       8 UNK         0.5028 
     49 O         -47.8187  -22.9598   16.0858 O.2       8 UNK        -0.5428 
     50 CA        -48.0225  -22.4173   13.7650 C.3       7 UNK         0.0264 
     51 CB        -46.7488  -21.7865   13.1789 C.3       7 UNK        -0.1988 
     52 N         -48.7745  -23.0776   12.6985 N.am      7 UNK        -0.4454 
     53 C         -50.0571  -23.4598   12.7926 C.2       7 UNK         0.5027 
     54 O         -50.7694  -23.2465   13.7722 O.2       7 UNK        -0.5083 
     55 CA        -50.6455  -24.2010   11.5756 C.3       6 UNK         0.0844 
     56 C56       -51.1993  -23.1700   10.5561 C.3       14 UNK        -0.0967 
     57 S57       -51.6814  -23.8407    8.9303 S.3       14 UNK        -0.2604 
     58 C58       -53.1044  -24.8992    9.3346 C.3       14 UNK         0.0134 
     59 N         -49.6738  -25.1355   11.0014 N.am      6 UNK        -0.4116 
     60 C         -49.1873  -26.2149   11.6318 C.2       5 UNK         0.5034 
     61 O         -49.5382  -26.5730   12.7570 O.2       5 UNK        -0.5045 
     62 CA        -48.0737  -26.9899   10.9108 C.3       5 UNK         0.0224 
     63 CB        -48.6646  -28.0084    9.9270 C.3       5 UNK        -0.1978 
     64 N         -47.1424  -26.1006   10.2099 N.am      5 UNK        -0.4737 
     65 C         -46.2844  -25.2828   10.8401 C.2       4 UNK         0.5027 
     66 O         -46.1694  -25.2367   12.0626 O.2       4 UNK        -0.5211 
     67 CA        -45.4499  -24.3146    9.9831 C.3       4 UNK         0.0297 
     68 CB        -44.1274  -24.9742    9.5630 C.3       4 UNK        -0.1993 
     69 N         -46.1565  -23.8400    8.7940 N.am      4 UNK        -0.4486 
     70 C         -47.3279  -23.1887    8.7978 C.2       3 UNK         0.4961 
     71 O         -47.8904  -22.8071    9.8249 O.2       3 UNK        -0.5105 
     72 CA        -48.0101  -22.9668    7.4339 C.3       3 UNK         0.0299 
     73 CB        -47.8519  -21.5042    6.9900 C.3       3 UNK        -0.1972 
     74 N         -47.5430  -23.8551    6.3581 N.am      3 UNK        -0.4305 
     75 C         -47.6146  -25.1947    6.3654 C.2       2 UNK         0.5006 
     76 O         -48.0392  -25.8545    7.3164 O.2       2 UNK        -0.5106 
     77 CA        -47.0418  -25.9088    5.1362 C.3       2 UNK         0.0296 
     78 CB        -45.5253  -26.1197    5.2885 C.3       2 UNK        -0.2002 
     79 N         -47.6945  -27.2049    4.9856 N.am      2 UNK        -0.4032 
     80 C         -48.0954  -27.7545    3.8348 C.2       1 UNK         0.5000 
     81 O         -47.8798  -27.2476    2.7312 O.2       1 UNK        -0.5238 
     82 H82       -48.0711  -31.8276    7.4232 H         1 UNK         0.0889 
     83 H83       -46.4721  -31.1228    7.1729 H         1 UNK         0.0889 
     84 H84       -47.1933  -32.1418    5.9246 H         1 UNK         0.0889 
     85 H85       -47.9234  -30.9416    4.2391 H         1 UNK         0.3028 
     86 H86       -48.7242  -29.5264    2.9047 H         1 UNK         0.0864 
     87 H87       -50.8201  -28.5919    3.1342 H         1 UNK         0.0720 
     88 H88       -50.8519  -29.9372    4.2225 H         1 UNK         0.0720 
     89 H89       -51.0868  -29.7918    6.7215 H         1 UNK         0.0814 
     90 H90       -52.6759  -29.3462    6.1358 H         1 UNK         0.0814 
     91 H91       -52.5344  -26.3415    7.1223 H         1 UNK         0.1469 
     92 H92       -52.8440  -26.7109   11.3718 H         1 UNK         0.1381 
     93 H93       -51.7385  -30.1119    9.0188 H         1 UNK         0.1206 
     94 H94       -52.0403  -28.7024   12.4455 H         1 UNK         0.0813 
     95 H95       -51.4215  -30.0590   11.5331 H         1 UNK         0.0813 
     96 H96       -53.1408  -29.8828   14.1222 H         1 UNK         0.0638 
     97 H97       -53.1006  -31.5718   13.6755 H         1 UNK         0.0638 
     98 H98       -55.5793  -31.6658   13.7210 H         1 UNK         0.0568 
     99 H99       -55.2115  -30.9377   17.6780 H         1 UNK         0.3450 
    100 H100      -55.7024  -29.6801   16.5709 H         1 UNK         0.3450 
    101 H101      -55.4612  -28.7894   13.9220 H         1 UNK         0.2987 
    102 H102      -58.9090  -28.5174   13.4679 H         1 UNK         0.0766 
    103 H103      -59.1956  -27.0331   15.4430 H         1 UNK         0.0798 
    104 H104      -57.7698  -27.7348   16.2091 H         1 UNK         0.0798 
    105 H105      -59.2038  -28.7152   15.9403 H         1 UNK         0.0798 
    106 H106      -56.8759  -26.5881   14.2310 H         1 UNK         0.3198 
    107 H107      -55.2567  -26.3616   11.2103 H         1 UNK         0.0843 
    108 H108      -57.4295  -24.3233   11.9310 H         1 UNK         0.0831 
    109 H109      -56.0291  -24.0242   10.8992 H         1 UNK         0.0831 
    110 H110      -57.2754  -25.1463   10.3857 H         1 UNK         0.0831 
    111 H111      -55.3041  -24.4382   13.2696 H         1 UNK         0.3133 
    112 H112      -53.2611  -24.4408   14.5902 H         1 UNK         0.0566 
    113 H113      -54.0706  -24.6932   16.9738 H         1 UNK         0.0814 
    114 H114      -55.4372  -24.6110   15.8809 H         1 UNK         0.0814 
    115 H115      -54.9343  -26.1646   16.5366 H         1 UNK         0.0814 
    116 H116      -52.5019  -27.1431   14.8700 H         1 UNK         0.3091 
    117 H117      -50.2454  -27.1335   17.3407 H         1 UNK         0.0702 
    118 H118      -50.7770  -28.2669   14.5345 H         1 UNK         0.0785 
    119 H119      -51.5942  -28.7643   16.0196 H         1 UNK         0.0785 
    120 H120      -49.8795  -29.0584   15.8192 H         1 UNK         0.0785 
    121 H121      -49.1408  -26.2598   14.6942 H         1 UNK         0.2998 
    122 H122      -46.1492  -25.1209   16.3094 H         1 UNK         0.0697 
    123 H123      -46.6428  -27.2131   14.1258 H         1 UNK         0.0825 
    124 H124      -45.7271  -27.4852   15.6030 H         1 UNK         0.0825 
    125 H125      -45.1401  -26.3372   14.4108 H         1 UNK         0.0825 
    126 H126      -47.0540  -24.8081   13.6350 H         1 UNK         0.3029 
    127 H127      -48.6437  -21.6124   14.1644 H         1 UNK         0.0897 
    128 H128      -46.9859  -21.0784   12.3844 H         1 UNK         0.0792 
    129 H129      -46.1962  -21.2420   13.9457 H         1 UNK         0.0792 
    130 H130      -46.0767  -22.5389   12.7659 H         1 UNK         0.0792 
    131 H131      -48.2918  -23.2293   11.8184 H         1 UNK         0.3086 
    132 H132      -51.4841  -24.7981   11.9383 H         1 UNK         0.0583 
    133 H133      -52.0599  -22.6500   10.9815 H         1 UNK         0.1020 
    134 H134      -50.4592  -22.3922   10.3577 H         1 UNK         0.1020 
    135 H135      -53.4977  -24.6463   10.3201 H         1 UNK         0.0694 
    136 H136      -53.9073  -24.6979    8.6241 H         1 UNK         0.0694 
    137 H137      -49.3253  -24.9088   10.0810 H         1 UNK         0.2989 
    138 H138      -47.5119  -27.5397   11.6692 H         1 UNK         0.1055 
    139 H139      -49.2568  -27.5272    9.1466 H         1 UNK         0.0806 
    140 H140      -49.3174  -28.7134   10.4420 H         1 UNK         0.0806 
    141 H141      -47.8821  -28.5896    9.4397 H         1 UNK         0.0806 
    142 H142      -47.2305  -26.0525    9.1988 H         1 UNK         0.3061 
    143 H143      -45.2196  -23.4427   10.5985 H         1 UNK         0.0734 
    144 H144      -43.4850  -24.2742    9.0286 H         1 UNK         0.0832 
    145 H145      -43.5712  -25.3194   10.4359 H         1 UNK         0.0832 
    146 H146      -44.2930  -25.8395    8.9197 H         1 UNK         0.0832 
    147 H147      -45.7724  -24.1070    7.9003 H         1 UNK         0.3156 
    148 H148      -49.0737  -23.1651    7.5757 H         1 UNK         0.0589 
    149 H149      -46.8081  -21.2493    6.8019 H         1 UNK         0.0808 
    150 H150      -48.4189  -21.3001    6.0816 H         1 UNK         0.0808 
    151 H151      -48.2204  -20.8219    7.7577 H         1 UNK         0.0808 
    152 H152      -47.1563  -23.4002    5.5429 H         1 UNK         0.3098 
    153 H153      -47.2379  -25.2891    4.2586 H         1 UNK         0.0720 
    154 H154      -45.1079  -26.6229    4.4161 H         1 UNK         0.0791 
    155 H155      -45.2901  -26.7238    6.1660 H         1 UNK         0.0791 
    156 H156      -45.0018  -25.1686    5.3934 H         1 UNK         0.0791 
    157 H157      -47.9693  -27.6681    5.8533 H         1 UNK         0.3028 
@<TRIPOS>BOND
     1    1    2 1    
     2    1   82 1    
     3    1   83 1    
     4    1   84 1    
     5    2    3 2    
     6    2    4 am   BACKBONE|DICT|INTERRES
     7    4    5 1    
     8    4   85 1    
     9    5    6 1    
    10    5   80 1    
    11    5   86 1    
    12    6    7 1    
    13    6   87 1    
    14    6   88 1    
    15    7    8 1    
    16    8    9 1    
    17    8   89 1    
    18    8   90 1    
    19    9   10 ar   
    20    9   14 ar   
    21   10   11 ar   
    22   10   91 1    
    23   11   12 ar   
    24   11   58 1    
    25   12   13 ar   
    26   12   92 1    
    27   13   14 ar   
    28   13   15 1    
    29   14   93 1    
    30   15   16 1    
    31   15   94 1    
    32   15   95 1    
    33   16   17 1    
    34   17   18 1    
    35   17   96 1    
    36   17   97 1    
    37   18   19 1    
    38   18   22 1    
    39   18   98 1    
    40   19   20 am   BACKBONE|DICT|INTERRES
    41   19   21 2    
    42   20   99 1    
    43   20  100 1    
    44   22   23 am   BACKBONE|DICT|INTERRES
    45   22  101 1    
    46   23   24 2    
    47   23   25 1    
    48   25   26 1    
    49   25   27 1    
    50   25  102 1    
    51   26  103 1    
    52   26  104 1    
    53   26  105 1    
    54   27   28 am   BACKBONE|DICT|INTERRES
    55   27  106 1    
    56   28   29 2    
    57   28   30 1    
    58   30   31 1    
    59   30   32 1    
    60   30  107 1    
    61   31  108 1    
    62   31  109 1    
    63   31  110 1    
    64   32   33 am   BACKBONE|DICT|INTERRES
    65   32  111 1    
    66   33   34 2    
    67   33   35 1    
    68   35   36 1    
    69   35   37 1    
    70   35  112 1    
    71   36  113 1    
    72   36  114 1    
    73   36  115 1    
    74   37   38 am   BACKBONE|DICT|INTERRES
    75   37  116 1    
    76   38   39 2    
    77   38   40 1    
    78   40   41 1    
    79   40   42 1    
    80   40  117 1    
    81   41  118 1    
    82   41  119 1    
    83   41  120 1    
    84   42   43 am   BACKBONE|DICT|INTERRES
    85   42  121 1    
    86   43   44 2    
    87   43   45 1    
    88   45   46 1    
    89   45   47 1    
    90   45  122 1    
    91   46  123 1    
    92   46  124 1    
    93   46  125 1    
    94   47   48 am   BACKBONE|DICT|INTERRES
    95   47  126 1    
    96   48   49 2    
    97   48   50 1    
    98   50   51 1    
    99   50   52 1    
   100   50  127 1    
   101   51  128 1    
   102   51  129 1    
   103   51  130 1    
   104   52   53 am   BACKBONE|DICT|INTERRES
   105   52  131 1    
   106   53   54 2    
   107   53   55 1    
   108   55   56 1    
   109   55   59 1    
   110   55  132 1    
   111   56   57 1    
   112   56  133 1    
   113   56  134 1    
   114   57   58 1    
   115   58  135 1    
   116   58  136 1    
   117   59   60 am   BACKBONE|DICT|INTERRES
   118   59  137 1    
   119   60   61 2    
   120   60   62 1    
   121   62   63 1    
   122   62   64 1    
   123   62  138 1    
   124   63  139 1    
   125   63  140 1    
   126   63  141 1    
   127   64   65 am   BACKBONE|DICT|INTERRES
   128   64  142 1    
   129   65   66 2    
   130   65   67 1    
   131   67   68 1    
   132   67   69 1    
   133   67  143 1    
   134   68  144 1    
   135   68  145 1    
   136   68  146 1    
   137   69   70 am   BACKBONE|DICT|INTERRES
   138   69  147 1    
   139   70   71 2    
   140   70   72 1    
   141   72   73 1    
   142   72   74 1    
   143   72  148 1    
   144   73  149 1    
   145   73  150 1    
   146   73  151 1    
   147   74   75 am   BACKBONE|DICT|INTERRES
   148   74  152 1    
   149   75   76 2    
   150   75   77 1    
   151   77   78 1    
   152   77   79 1    
   153   77  153 1    
   154   78  154 1    
   155   78  155 1    
   156   78  156 1    
   157   79   80 am   BACKBONE|DICT|INTERRES
   158   79  157 1    
   159   80   81 2    
@<TRIPOS>SUBSTRUCTURE
     1 UNK         1 GROUP             0       ****    0 ROOT    
