@<TRIPOS>MOLECULE
3R207
157   159    1
SMALL
USER_CHARGES


@<TRIPOS>ATOM
      1 CA        -47.0422  -31.3056    8.0394 C.3       0 UNK        -0.1975 
      2 C         -47.8016  -30.9100    6.7818 C.2       0 UNK         0.4852 
      3 O         -47.4741  -31.3849    5.6940 O.2       0 UNK        -0.5216 
      4 N         -48.8127  -30.0425    6.9255 N.am      1 UNK        -0.4461 
      5 CA        -49.6673  -29.5419    5.8403 C.3       1 UNK         0.0864 
      6 C6        -50.8894  -28.7659    6.3875 C.3       14 UNK        -0.0898 
      7 S7        -51.9707  -29.7869    7.4434 S.3       14 UNK        -0.2598 
      8 C8        -53.6153  -29.1333    7.0084 C.3       14 UNK         0.0286 
      9 C9        -53.8442  -27.7535    7.6093 C.ar      14 UNK        -0.0844 
     10 C10       -53.4370  -26.6051    6.9248 C.ar      14 UNK        -0.0881 
     11 C11       -53.6197  -25.3386    7.4856 C.ar      14 UNK        -0.0643 
     12 C12       -54.2431  -25.2207    8.7317 C.ar      14 UNK        -0.0930 
     13 C13       -54.6620  -26.3621    9.4231 C.ar      14 UNK        -0.0827 
     14 C14       -54.4630  -27.6244    8.8550 C.ar      14 UNK        -0.1249 
     15 C15       -55.3273  -26.2364   10.7865 C.3       14 UNK         0.0141 
     16 S16       -54.1630  -25.7326   12.0953 S.3       14 UNK        -0.2313 
     17 C17       -52.8390  -26.9833   11.9660 C.3       14 UNK        -0.0915 
     18 CA        -53.2795  -28.4267   12.3221 C.3       13 UNK         0.0968 
     19 C         -52.0928  -29.4189   12.2027 C.2       13 UNK         0.5732 
     20 N         -51.6736  -29.7371   10.9853 N.am      13 UNK        -0.7310 
     21 O         -51.5351  -29.8946   13.1896 O.2       13 UNK        -0.5035 
     22 N         -53.9146  -28.4923   13.6439 N.am      13 UNK        -0.4233 
     23 C         -55.0061  -29.2127   13.9287 C.2       13 UNK         0.4989 
     24 O         -55.6139  -29.8924   13.0987 O.2       13 UNK        -0.4996 
     25 CA        -55.5212  -29.1381   15.3797 C.3       12 UNK         0.0216 
     26 CB        -56.5916  -30.2022   15.7070 C.3       12 UNK        -0.1964 
     27 N         -54.4384  -29.1502   16.3679 N.am      12 UNK        -0.4276 
     28 C         -53.5492  -30.1302   16.5990 C.2       12 UNK         0.5020 
     29 O         -53.5889  -31.2343   16.0541 O.2       12 UNK        -0.5489 
     30 CA        -52.4118  -29.8367   17.5974 C.3       11 UNK         0.0294 
     31 CB        -51.0403  -30.0876   16.9461 C.3       11 UNK        -0.2019 
     32 N         -52.4514  -28.4562   18.0864 N.am      11 UNK        -0.4493 
     33 C         -52.9953  -28.0646   19.2475 C.2       11 UNK         0.4932 
     34 O         -53.4596  -28.8418   20.0816 O.2       11 UNK        -0.5029 
     35 CA        -53.0536  -26.5490   19.5250 C.3       10 UNK         0.0280 
     36 CB        -51.8832  -26.1255   20.4270 C.3       10 UNK        -0.1976 
     37 N         -53.0514  -25.7215   18.3139 N.am      10 UNK        -0.4242 
     38 C         -54.0172  -25.7107   17.3831 C.2       10 UNK         0.5072 
     39 O         -55.0484  -26.3781   17.4598 O.2       10 UNK        -0.5224 
     40 CA        -53.7511  -24.8782   16.1167 C.3       9 UNK         0.0343 
     41 CB        -54.2503  -23.4366   16.2950 C.3       9 UNK        -0.2003 
     42 N         -52.3403  -24.8612   15.7167 N.am      9 UNK        -0.4272 
     43 C         -51.6143  -25.9379   15.3901 C.2       9 UNK         0.4988 
     44 O         -52.0676  -27.0837   15.4208 O.2       9 UNK        -0.5108 
     45 CA        -50.1447  -25.6953   14.9886 C.3       8 UNK         0.0248 
     46 CB        -49.4473  -26.9779   14.4984 C.3       8 UNK        -0.2001 
     47 N         -49.9894  -24.6447   13.9751 N.am      8 UNK        -0.4140 
     48 C         -50.0535  -23.3250   14.2157 C.2       8 UNK         0.5028 
     49 O         -50.3181  -22.8587   15.3253 O.2       8 UNK        -0.5428 
     50 CA        -49.7853  -22.3515   13.0539 C.3       7 UNK         0.0264 
     51 CB        -48.4130  -21.6797   13.2255 C.3       7 UNK        -0.1988 
     52 N         -49.8523  -22.9907   11.7382 N.am      7 UNK        -0.4454 
     53 C         -51.0008  -23.2622   11.0973 C.2       7 UNK         0.5027 
     54 O         -52.1030  -22.9253   11.5301 O.2       7 UNK        -0.5083 
     55 CA        -50.9314  -24.0172    9.7486 C.3       6 UNK         0.0844 
     56 C56       -51.2696  -23.0492    8.5875 C.3       14 UNK        -0.0967 
     57 S57       -51.3398  -23.8637    6.9556 S.3       14 UNK        -0.2604 
     58 C58       -53.1323  -24.1080    6.7369 C.3       14 UNK         0.0134 
     59 N         -49.6643  -24.7227    9.5287 N.am      6 UNK        -0.4116 
     60 C         -49.1910  -25.7213   10.2864 C.2       5 UNK         0.5034 
     61 O         -49.7777  -26.1752   11.2666 O.2       5 UNK        -0.5045 
     62 CA        -47.7929  -26.2601    9.9384 C.3       5 UNK         0.0224 
     63 CB        -47.9156  -27.4556    8.9839 C.3       5 UNK        -0.1978 
     64 N         -46.8682  -25.2612    9.3780 N.am      5 UNK        -0.4737 
     65 C         -46.5439  -24.1011    9.9743 C.2       4 UNK         0.5027 
     66 O         -47.0536  -23.7238   11.0292 O.2       4 UNK        -0.5211 
     67 CA        -45.4845  -23.1981    9.3172 C.3       4 UNK         0.0297 
     68 CB        -44.2314  -23.1116   10.2047 C.3       4 UNK        -0.1993 
     69 N         -45.0807  -23.6081    7.9719 N.am      4 UNK        -0.4486 
     70 C         -45.8122  -23.4567    6.8612 C.2       3 UNK         0.4961 
     71 O         -46.9504  -22.9857    6.8506 O.2       3 UNK        -0.5105 
     72 CA        -45.1680  -23.9016    5.5316 C.3       3 UNK         0.0299 
     73 CB        -43.6839  -24.3217    5.6517 C.3       3 UNK        -0.1972 
     74 N         -45.9362  -24.9588    4.8669 N.am      3 UNK        -0.4305 
     75 C         -46.2922  -26.1415    5.3864 C.2       2 UNK         0.5006 
     76 O         -46.0419  -26.5031    6.5403 O.2       2 UNK        -0.5106 
     77 CA        -47.0247  -27.0946    4.4378 C.3       2 UNK         0.0296 
     78 CB        -46.0266  -27.8689    3.5569 C.3       2 UNK        -0.2002 
     79 N         -47.8154  -28.0277    5.2314 N.am      2 UNK        -0.4032 
     80 C         -48.9175  -28.6624    4.8146 C.2       1 UNK         0.5000 
     81 O         -49.3667  -28.5638    3.6707 O.2       1 UNK        -0.5238 
     82 H82       -47.0815  -32.3858    8.1770 H         1 UNK         0.0889 
     83 H83       -47.4551  -30.8355    8.9318 H         1 UNK         0.0889 
     84 H84       -45.9967  -31.0105    7.9538 H         1 UNK         0.0889 
     85 H85       -49.0690  -29.7309    7.8504 H         1 UNK         0.3028 
     86 H86       -50.0361  -30.4116    5.2919 H         1 UNK         0.0864 
     87 H87       -51.4829  -28.3924    5.5516 H         1 UNK         0.0720 
     88 H88       -50.5766  -27.8893    6.9585 H         1 UNK         0.0720 
     89 H89       -53.7330  -29.1038    5.9241 H         1 UNK         0.0814 
     90 H90       -54.3743  -29.8270    7.3732 H         1 UNK         0.0814 
     91 H91       -52.9608  -26.6911    5.9586 H         1 UNK         0.1469 
     92 H92       -54.3855  -24.2445    9.1750 H         1 UNK         0.1381 
     93 H93       -54.7866  -28.5108    9.3825 H         1 UNK         0.1206 
     94 H94       -55.8033  -27.1746   11.0752 H         1 UNK         0.0813 
     95 H95       -56.1285  -25.4985   10.7281 H         1 UNK         0.0813 
     96 H96       -52.4274  -26.9448   10.9563 H         1 UNK         0.0638 
     97 H97       -52.0312  -26.6642   12.6229 H         1 UNK         0.0638 
     98 H98       -54.0068  -28.7382   11.5728 H         1 UNK         0.0568 
     99 H99       -52.1068  -29.3542   10.1593 H         1 UNK         0.3450 
    100 H100      -50.9042  -30.3800   10.8942 H         1 UNK         0.3450 
    101 H101      -53.4080  -28.0221   14.3881 H         1 UNK         0.2987 
    102 H102      -55.9981  -28.1613   15.4730 H         1 UNK         0.0766 
    103 H103      -56.9421  -30.1089   16.7348 H         1 UNK         0.0798 
    104 H104      -57.4613  -30.0927   15.0581 H         1 UNK         0.0798 
    105 H105      -56.2130  -31.2157   15.5714 H         1 UNK         0.0798 
    106 H106      -54.3347  -28.2868   16.8889 H         1 UNK         0.3198 
    107 H107      -52.5238  -30.5328   18.4313 H         1 UNK         0.0843 
    108 H108      -50.2232  -29.8512   17.6276 H         1 UNK         0.0831 
    109 H109      -50.9113  -29.4924   16.0414 H         1 UNK         0.0831 
    110 H110      -50.9304  -31.1341   16.6591 H         1 UNK         0.0831 
    111 H111      -52.1285  -27.7540   17.4304 H         1 UNK         0.3133 
    112 H112      -53.9854  -26.3510   20.0589 H         1 UNK         0.0566 
    113 H113      -50.9198  -26.2799   19.9393 H         1 UNK         0.0814 
    114 H114      -51.8753  -26.7031   21.3526 H         1 UNK         0.0814 
    115 H115      -51.9555  -25.0740   20.7058 H         1 UNK         0.0814 
    116 H116      -52.2394  -25.1411   18.1601 H         1 UNK         0.3091 
    117 H117      -54.3147  -25.3364   15.3012 H         1 UNK         0.0702 
    118 H118      -53.6967  -22.9096   17.0732 H         1 UNK         0.0785 
    119 H119      -55.3048  -23.4202   16.5742 H         1 UNK         0.0785 
    120 H120      -54.1525  -22.8681   15.3697 H         1 UNK         0.0785 
    121 H121      -51.8735  -23.9589   15.6781 H         1 UNK         0.2998 
    122 H122      -49.6245  -25.3724   15.8926 H         1 UNK         0.0697 
    123 H123      -49.9570  -27.4153   13.6396 H         1 UNK         0.0825 
    124 H124      -49.4282  -27.7353   15.2823 H         1 UNK         0.0825 
    125 H125      -48.4134  -26.7861   14.2114 H         1 UNK         0.0825 
    126 H126      -49.8295  -24.9618   13.0251 H         1 UNK         0.3029 
    127 H127      -50.5474  -21.5704   13.1029 H         1 UNK         0.0897 
    128 H128      -48.2024  -20.9873   12.4102 H         1 UNK         0.0792 
    129 H129      -48.3732  -21.1088   14.1542 H         1 UNK         0.0792 
    130 H130      -47.6058  -22.4120   13.2621 H         1 UNK         0.0792 
    131 H131      -48.9670  -23.2932   11.3390 H         1 UNK         0.3086 
    132 H132      -51.7077  -24.7827    9.7896 H         1 UNK         0.0583 
    133 H133      -52.2206  -22.5458    8.7724 H         1 UNK         0.1020 
    134 H134      -50.5224  -22.2551    8.5297 H         1 UNK         0.1020 
    135 H135      -53.6783  -23.2169    7.0500 H         1 UNK         0.0694 
    136 H136      -53.3396  -24.2283    5.6725 H         1 UNK         0.0694 
    137 H137      -49.1072  -24.4083    8.7471 H         1 UNK         0.2989 
    138 H138      -47.3510  -26.6145   10.8723 H         1 UNK         0.1055 
    139 H139      -46.9459  -27.9173    8.7967 H         1 UNK         0.0806 
    140 H140      -48.3418  -27.1553    8.0266 H         1 UNK         0.0806 
    141 H141      -48.5651  -28.2224    9.4087 H         1 UNK         0.0806 
    142 H142      -46.4181  -25.4987    8.5008 H         1 UNK         0.3061 
    143 H143      -45.9198  -22.1987    9.2496 H         1 UNK         0.0734 
    144 H144      -44.4844  -22.7618   11.2067 H         1 UNK         0.0832 
    145 H145      -43.7453  -24.0820   10.3131 H         1 UNK         0.0832 
    146 H146      -43.5016  -22.4119    9.7969 H         1 UNK         0.0832 
    147 H147      -44.1699  -24.0353    7.8835 H         1 UNK         0.3156 
    148 H148      -45.2087  -23.0320    4.8741 H         1 UNK         0.0589 
    149 H149      -43.5527  -25.2080    6.2740 H         1 UNK         0.0808 
    150 H150      -43.2655  -24.5500    4.6713 H         1 UNK         0.0808 
    151 H151      -43.0756  -23.5199    6.0728 H         1 UNK         0.0808 
    152 H152      -46.2215  -24.7526    3.9194 H         1 UNK         0.3098 
    153 H153      -47.6927  -26.5050    3.8058 H         1 UNK         0.0720 
    154 H154      -46.5415  -28.5306    2.8601 H         1 UNK         0.0791 
    155 H155      -45.4138  -27.1892    2.9634 H         1 UNK         0.0791 
    156 H156      -45.3511  -28.4787    4.1585 H         1 UNK         0.0791 
    157 H157      -47.5044  -28.1300    6.1886 H         1 UNK         0.3028 
@<TRIPOS>BOND
     1    1    2 1    
     2    1   82 1    
     3    1   83 1    
     4    1   84 1    
     5    2    3 2    
     6    2    4 am   BACKBONE|DICT|INTERRES
     7    4    5 1    
     8    4   85 1    
     9    5    6 1    
    10    5   80 1    
    11    5   86 1    
    12    6    7 1    
    13    6   87 1    
    14    6   88 1    
    15    7    8 1    
    16    8    9 1    
    17    8   89 1    
    18    8   90 1    
    19    9   10 ar   
    20    9   14 ar   
    21   10   11 ar   
    22   10   91 1    
    23   11   12 ar   
    24   11   58 1    
    25   12   13 ar   
    26   12   92 1    
    27   13   14 ar   
    28   13   15 1    
    29   14   93 1    
    30   15   16 1    
    31   15   94 1    
    32   15   95 1    
    33   16   17 1    
    34   17   18 1    
    35   17   96 1    
    36   17   97 1    
    37   18   19 1    
    38   18   22 1    
    39   18   98 1    
    40   19   20 am   BACKBONE|DICT|INTERRES
    41   19   21 2    
    42   20   99 1    
    43   20  100 1    
    44   22   23 am   BACKBONE|DICT|INTERRES
    45   22  101 1    
    46   23   24 2    
    47   23   25 1    
    48   25   26 1    
    49   25   27 1    
    50   25  102 1    
    51   26  103 1    
    52   26  104 1    
    53   26  105 1    
    54   27   28 am   BACKBONE|DICT|INTERRES
    55   27  106 1    
    56   28   29 2    
    57   28   30 1    
    58   30   31 1    
    59   30   32 1    
    60   30  107 1    
    61   31  108 1    
    62   31  109 1    
    63   31  110 1    
    64   32   33 am   BACKBONE|DICT|INTERRES
    65   32  111 1    
    66   33   34 2    
    67   33   35 1    
    68   35   36 1    
    69   35   37 1    
    70   35  112 1    
    71   36  113 1    
    72   36  114 1    
    73   36  115 1    
    74   37   38 am   BACKBONE|DICT|INTERRES
    75   37  116 1    
    76   38   39 2    
    77   38   40 1    
    78   40   41 1    
    79   40   42 1    
    80   40  117 1    
    81   41  118 1    
    82   41  119 1    
    83   41  120 1    
    84   42   43 am   BACKBONE|DICT|INTERRES
    85   42  121 1    
    86   43   44 2    
    87   43   45 1    
    88   45   46 1    
    89   45   47 1    
    90   45  122 1    
    91   46  123 1    
    92   46  124 1    
    93   46  125 1    
    94   47   48 am   BACKBONE|DICT|INTERRES
    95   47  126 1    
    96   48   49 2    
    97   48   50 1    
    98   50   51 1    
    99   50   52 1    
   100   50  127 1    
   101   51  128 1    
   102   51  129 1    
   103   51  130 1    
   104   52   53 am   BACKBONE|DICT|INTERRES
   105   52  131 1    
   106   53   54 2    
   107   53   55 1    
   108   55   56 1    
   109   55   59 1    
   110   55  132 1    
   111   56   57 1    
   112   56  133 1    
   113   56  134 1    
   114   57   58 1    
   115   58  135 1    
   116   58  136 1    
   117   59   60 am   BACKBONE|DICT|INTERRES
   118   59  137 1    
   119   60   61 2    
   120   60   62 1    
   121   62   63 1    
   122   62   64 1    
   123   62  138 1    
   124   63  139 1    
   125   63  140 1    
   126   63  141 1    
   127   64   65 am   BACKBONE|DICT|INTERRES
   128   64  142 1    
   129   65   66 2    
   130   65   67 1    
   131   67   68 1    
   132   67   69 1    
   133   67  143 1    
   134   68  144 1    
   135   68  145 1    
   136   68  146 1    
   137   69   70 am   BACKBONE|DICT|INTERRES
   138   69  147 1    
   139   70   71 2    
   140   70   72 1    
   141   72   73 1    
   142   72   74 1    
   143   72  148 1    
   144   73  149 1    
   145   73  150 1    
   146   73  151 1    
   147   74   75 am   BACKBONE|DICT|INTERRES
   148   74  152 1    
   149   75   76 2    
   150   75   77 1    
   151   77   78 1    
   152   77   79 1    
   153   77  153 1    
   154   78  154 1    
   155   78  155 1    
   156   78  156 1    
   157   79   80 am   BACKBONE|DICT|INTERRES
   158   79  157 1    
   159   80   81 2    
@<TRIPOS>SUBSTRUCTURE
     1 UNK         1 GROUP             0       ****    0 ROOT    
