@<TRIPOS>MOLECULE
3R207
157   159    1
SMALL
USER_CHARGES


@<TRIPOS>ATOM
      1 CA        -50.4345  -24.8473    3.1326 C.3       0 UNK        -0.1975 
      2 C         -49.9654  -25.2356    4.5261 C.2       0 UNK         0.4852 
      3 O         -48.7600  -25.2897    4.7711 O.2       0 UNK        -0.5216 
      4 N         -50.9067  -25.4799    5.4506 N.am      1 UNK        -0.4461 
      5 CA        -50.6748  -25.9476    6.8291 C.3       1 UNK         0.0864 
      6 C6        -50.2138  -27.4306    6.8839 C.3       14 UNK        -0.0898 
      7 S7        -51.4730  -28.5485    6.1847 S.3       14 UNK        -0.2598 
      8 C8        -50.7686  -30.1845    6.5645 C.3       14 UNK         0.0286 
      9 C9        -50.8630  -30.5340    8.0444 C.ar      14 UNK        -0.0844 
     10 C10       -49.7029  -30.6972    8.8072 C.ar      14 UNK        -0.0881 
     11 C11       -49.7813  -31.0439   10.1609 C.ar      14 UNK        -0.0643 
     12 C12       -51.0371  -31.2248   10.7509 C.ar      14 UNK        -0.0930 
     13 C13       -52.2052  -31.0742    9.9965 C.ar      14 UNK        -0.0827 
     14 C14       -52.1108  -30.7309    8.6441 C.ar      14 UNK        -0.1249 
     15 C15       -53.5690  -31.3010   10.6327 C.3       14 UNK         0.0141 
     16 S16       -54.0907  -29.8580   11.6049 S.3       14 UNK        -0.2313 
     17 C17       -55.8906  -30.1441   11.7277 C.3       14 UNK        -0.0915 
     18 CA        -56.5387  -29.5156   12.9969 C.3       13 UNK         0.0968 
     19 C         -56.3449  -30.3728   14.2784 C.2       13 UNK         0.5732 
     20 N         -56.0300  -29.8074   15.4350 N.am      13 UNK        -0.7310 
     21 O         -56.5220  -31.5882   14.2365 O.2       13 UNK        -0.5035 
     22 N         -56.1992  -28.0880   13.1284 N.am      13 UNK        -0.4233 
     23 C         -56.7953  -27.1180   12.4241 C.2       13 UNK         0.4989 
     24 O         -57.8368  -27.2813   11.7845 O.2       13 UNK        -0.4996 
     25 CA        -56.0725  -25.7598   12.3603 C.3       12 UNK         0.0216 
     26 CB        -56.9529  -24.6179   11.8051 C.3       12 UNK        -0.1964 
     27 N         -55.4168  -25.3755   13.6129 N.am      12 UNK        -0.4276 
     28 C         -55.9989  -25.0142   14.7644 C.2       12 UNK         0.5020 
     29 O         -57.2179  -24.9992   14.9471 O.2       12 UNK        -0.5489 
     30 CA        -55.0425  -24.5794   15.8934 C.3       11 UNK         0.0294 
     31 CB        -55.7542  -24.3828   17.2495 C.3       11 UNK        -0.2019 
     32 N         -53.8787  -25.4621   16.0386 N.am      11 UNK        -0.4493 
     33 C         -53.8934  -26.7703   16.3367 C.2       11 UNK         0.4932 
     34 O         -54.9327  -27.4079   16.5032 O.2       11 UNK        -0.5029 
     35 CA        -52.5468  -27.5155   16.4565 C.3       10 UNK         0.0280 
     36 CB        -52.5285  -28.7590   15.5500 C.3       10 UNK        -0.1976 
     37 N         -51.3779  -26.6890   16.1471 N.am      10 UNK        -0.4242 
     38 C         -50.8151  -25.7909   16.9674 C.2       10 UNK         0.5072 
     39 O         -51.1798  -25.5980   18.1275 O.2       10 UNK        -0.5224 
     40 CA        -49.6879  -24.9235   16.3743 C.3       9 UNK         0.0343 
     41 CB        -48.3298  -25.6315   16.5001 C.3       9 UNK        -0.2003 
     42 N         -49.9219  -24.5557   14.9734 N.am      9 UNK        -0.4272 
     43 C         -50.9637  -23.8317   14.5359 C.2       9 UNK         0.4988 
     44 O         -51.8171  -23.3412   15.2752 O.2       9 UNK        -0.5108 
     45 CA        -51.1235  -23.6957   13.0137 C.3       8 UNK         0.0248 
     46 CB        -50.1869  -22.6190   12.4410 C.3       8 UNK        -0.2001 
     47 N         -50.9038  -24.9727   12.3322 N.am      8 UNK        -0.4140 
     48 C         -51.7218  -26.0301   12.4362 C.2       8 UNK         0.5028 
     49 O         -52.7753  -26.0194   13.0718 O.2       8 UNK        -0.5428 
     50 CA        -51.2776  -27.3231   11.7381 C.3       7 UNK         0.0264 
     51 CB        -51.7043  -27.2997   10.2663 C.3       7 UNK        -0.1988 
     52 N         -49.8350  -27.5570   11.8395 N.am      7 UNK        -0.4454 
     53 C         -49.2056  -27.8372   12.9909 C.2       7 UNK         0.5027 
     54 O         -49.7841  -27.9466   14.0707 O.2       7 UNK        -0.5083 
     55 CA        -47.6677  -27.9482   12.9549 C.3       6 UNK         0.0844 
     56 C56       -47.1896  -29.3897   12.6578 C.3       14 UNK        -0.0967 
     57 S57       -47.3549  -29.8787   10.9026 S.3       14 UNK        -0.2604 
     58 C58       -48.5118  -31.2873   10.9680 C.3       14 UNK         0.0134 
     59 N         -47.0428  -26.9619   12.0714 N.am      6 UNK        -0.4116 
     60 C         -47.1633  -25.6336   12.1687 C.2       5 UNK         0.5034 
     61 O         -47.8044  -25.0752   13.0592 O.2       5 UNK        -0.5045 
     62 CA        -46.5141  -24.7739   11.0726 C.3       5 UNK         0.0224 
     63 CB        -45.1820  -24.1672   11.5516 C.3       5 UNK        -0.1978 
     64 N         -46.3725  -25.4405    9.7696 N.am      5 UNK        -0.4737 
     65 C         -45.5462  -26.4275    9.3920 C.2       4 UNK         0.5027 
     66 O         -44.7785  -27.0109   10.1558 O.2       4 UNK        -0.5211 
     67 CA        -45.6058  -26.8470    7.9119 C.3       4 UNK         0.0297 
     68 CB        -46.5720  -28.0273    7.7254 C.3       4 UNK        -0.1993 
     69 N         -46.0123  -25.7361    7.0457 N.am      4 UNK        -0.4486 
     70 C         -45.2083  -24.7184    6.7014 C.2       3 UNK         0.4961 
     71 O         -44.0057  -24.6752    6.9628 O.2       3 UNK        -0.5105 
     72 CA        -45.8580  -23.5340    5.9668 C.3       3 UNK         0.0299 
     73 CB        -45.8177  -23.7456    4.4448 C.3       3 UNK        -0.1972 
     74 N         -47.2373  -23.3075    6.4104 N.am      3 UNK        -0.4305 
     75 C         -47.5564  -22.7047    7.5681 C.2       2 UNK         0.5006 
     76 O         -46.7233  -22.2180    8.3325 O.2       2 UNK        -0.5106 
     77 CA        -49.0434  -22.6368    7.9673 C.3       2 UNK         0.0296 
     78 CB        -49.6348  -21.2648    7.6067 C.3       2 UNK        -0.2002 
     79 N         -49.8728  -23.6893    7.3769 N.am      2 UNK        -0.4032 
     80 C         -49.7540  -24.9997    7.6359 C.2       1 UNK         0.5000 
     81 O         -48.9410  -25.4533    8.4440 O.2       1 UNK        -0.5238 
     82 H82       -51.5215  -24.8215    3.0600 H         1 UNK         0.0889 
     83 H83       -50.0622  -25.5641    2.4013 H         1 UNK         0.0889 
     84 H84       -50.0517  -23.8616    2.8693 H         1 UNK         0.0889 
     85 H85       -51.8791  -25.4111    5.1831 H         1 UNK         0.3028 
     86 H86       -51.6418  -25.8895    7.3312 H         1 UNK         0.0864 
     87 H87       -49.2791  -27.5661    6.3379 H         1 UNK         0.0720 
     88 H88       -50.0208  -27.7451    7.9099 H         1 UNK         0.0720 
     89 H89       -49.7351  -30.2199    6.2163 H         1 UNK         0.0814 
     90 H90       -51.3087  -30.9389    5.9910 H         1 UNK         0.0814 
     91 H91       -48.7330  -30.5665    8.3470 H         1 UNK         0.1469 
     92 H92       -51.1101  -31.4976   11.7948 H         1 UNK         0.1381 
     93 H93       -53.0095  -30.6125    8.0541 H         1 UNK         0.1206 
     94 H94       -53.5417  -32.1809   11.2770 H         1 UNK         0.0813 
     95 H95       -54.3122  -31.5061    9.8605 H         1 UNK         0.0813 
     96 H96       -56.0982  -31.2140   11.6698 H         1 UNK         0.0638 
     97 H97       -56.3483  -29.7126   10.8364 H         1 UNK         0.0638 
     98 H98       -57.6187  -29.5728   12.8500 H         1 UNK         0.0568 
     99 H99       -55.9355  -30.4026   16.2415 H         1 UNK         0.3450 
    100 H100      -55.8712  -28.8124   15.5448 H         1 UNK         0.3450 
    101 H101      -55.3516  -27.8795   13.6351 H         1 UNK         0.2987 
    102 H102      -55.2597  -25.9052   11.6470 H         1 UNK         0.0766 
    103 H103      -56.3998  -23.6803   11.7516 H         1 UNK         0.0798 
    104 H104      -57.8389  -24.4519   12.4185 H         1 UNK         0.0798 
    105 H105      -57.2977  -24.8462   10.7958 H         1 UNK         0.0798 
    106 H106      -54.3973  -25.4383   13.5849 H         1 UNK         0.3198 
    107 H107      -54.6466  -23.6087   15.5908 H         1 UNK         0.0843 
    108 H108      -56.2246  -25.3026   17.5983 H         1 UNK         0.0831 
    109 H109      -56.5374  -23.6276   17.1730 H         1 UNK         0.0831 
    110 H110      -55.0575  -24.0489   18.0183 H         1 UNK         0.0831 
    111 H111      -52.9820  -25.0175   15.8768 H         1 UNK         0.3133 
    112 H112      -52.4613  -27.8546   17.4907 H         1 UNK         0.0566 
    113 H113      -52.6794  -28.4969   14.5025 H         1 UNK         0.0814 
    114 H114      -51.5826  -29.2947   15.6285 H         1 UNK         0.0814 
    115 H115      -53.3131  -29.4622   15.8285 H         1 UNK         0.0814 
    116 H116      -50.9554  -26.8399   15.2358 H         1 UNK         0.3091 
    117 H117      -49.6445  -23.9981   16.9524 H         1 UNK         0.0702 
    118 H118      -47.5196  -25.0063   16.1241 H         1 UNK         0.0785 
    119 H119      -48.3115  -26.5706   15.9471 H         1 UNK         0.0785 
    120 H120      -48.1060  -25.8625   17.5424 H         1 UNK         0.0785 
    121 H121      -49.2389  -24.8812   14.2934 H         1 UNK         0.2998 
    122 H122      -52.1516  -23.3846   12.8152 H         1 UNK         0.0697 
    123 H123      -49.1362  -22.8549   12.6086 H         1 UNK         0.0825 
    124 H124      -50.3786  -21.6525   12.9088 H         1 UNK         0.0825 
    125 H125      -50.3363  -22.4930   11.3686 H         1 UNK         0.0825 
    126 H126      -50.0385  -25.0795   11.8241 H         1 UNK         0.3029 
    127 H127      -51.7828  -28.1571   12.2279 H         1 UNK         0.0897 
    128 H128      -52.7867  -27.1991   10.1758 H         1 UNK         0.0792 
    129 H129      -51.4254  -28.2229    9.7621 H         1 UNK         0.0792 
    130 H130      -51.2505  -26.4672    9.7319 H         1 UNK         0.0792 
    131 H131      -49.2916  -27.5034   10.9897 H         1 UNK         0.3086 
    132 H132      -47.3259  -27.7046   13.9629 H         1 UNK         0.0583 
    133 H133      -46.1315  -29.4694   12.9122 H         1 UNK         0.1020 
    134 H134      -47.6900  -30.1023   13.3154 H         1 UNK         0.1020 
    135 H135      -48.0073  -32.1642   10.5605 H         1 UNK         0.0694 
    136 H136      -48.7578  -31.5372   12.0002 H         1 UNK         0.0694 
    137 H137      -46.4567  -27.3268   11.3294 H         1 UNK         0.2989 
    138 H138      -47.2018  -23.9449   10.8965 H         1 UNK         0.1055 
    139 H139      -45.3284  -23.5765   12.4569 H         1 UNK         0.0806 
    140 H140      -44.7573  -23.5045   10.7972 H         1 UNK         0.0806 
    141 H141      -44.4416  -24.9334   11.7827 H         1 UNK         0.0806 
    142 H142      -47.0615  -25.1546    9.0808 H         1 UNK         0.3061 
    143 H143      -44.6073  -27.1733    7.6130 H         1 UNK         0.0734 
    144 H144      -46.6834  -28.2946    6.6746 H         1 UNK         0.0832 
    145 H145      -46.2019  -28.9112    8.2458 H         1 UNK         0.0832 
    146 H146      -47.5609  -27.8083    8.1278 H         1 UNK         0.0832 
    147 H147      -46.9868  -25.6927    6.7800 H         1 UNK         0.3156 
    148 H148      -45.2721  -22.6398    6.1912 H         1 UNK         0.0589 
    149 H149      -46.3162  -24.6679    4.1464 H         1 UNK         0.0808 
    150 H150      -46.2916  -22.9196    3.9145 H         1 UNK         0.0808 
    151 H151      -44.7876  -23.8091    4.0918 H         1 UNK         0.0808 
    152 H152      -47.9665  -23.7296    5.8447 H         1 UNK         0.3098 
    153 H153      -49.0896  -22.7519    9.0524 H         1 UNK         0.0720 
    154 H154      -50.6585  -21.1656    7.9685 H         1 UNK         0.0791 
    155 H155      -49.6398  -21.0972    6.5289 H         1 UNK         0.0791 
    156 H156      -49.0550  -20.4587    8.0590 H         1 UNK         0.0791 
    157 H157      -50.5573  -23.3998    6.6931 H         1 UNK         0.3028 
@<TRIPOS>BOND
     1    1    2 1    
     2    1   82 1    
     3    1   83 1    
     4    1   84 1    
     5    2    3 2    
     6    2    4 am   BACKBONE|DICT|INTERRES
     7    4    5 1    
     8    4   85 1    
     9    5    6 1    
    10    5   80 1    
    11    5   86 1    
    12    6    7 1    
    13    6   87 1    
    14    6   88 1    
    15    7    8 1    
    16    8    9 1    
    17    8   89 1    
    18    8   90 1    
    19    9   10 ar   
    20    9   14 ar   
    21   10   11 ar   
    22   10   91 1    
    23   11   12 ar   
    24   11   58 1    
    25   12   13 ar   
    26   12   92 1    
    27   13   14 ar   
    28   13   15 1    
    29   14   93 1    
    30   15   16 1    
    31   15   94 1    
    32   15   95 1    
    33   16   17 1    
    34   17   18 1    
    35   17   96 1    
    36   17   97 1    
    37   18   19 1    
    38   18   22 1    
    39   18   98 1    
    40   19   20 am   BACKBONE|DICT|INTERRES
    41   19   21 2    
    42   20   99 1    
    43   20  100 1    
    44   22   23 am   BACKBONE|DICT|INTERRES
    45   22  101 1    
    46   23   24 2    
    47   23   25 1    
    48   25   26 1    
    49   25   27 1    
    50   25  102 1    
    51   26  103 1    
    52   26  104 1    
    53   26  105 1    
    54   27   28 am   BACKBONE|DICT|INTERRES
    55   27  106 1    
    56   28   29 2    
    57   28   30 1    
    58   30   31 1    
    59   30   32 1    
    60   30  107 1    
    61   31  108 1    
    62   31  109 1    
    63   31  110 1    
    64   32   33 am   BACKBONE|DICT|INTERRES
    65   32  111 1    
    66   33   34 2    
    67   33   35 1    
    68   35   36 1    
    69   35   37 1    
    70   35  112 1    
    71   36  113 1    
    72   36  114 1    
    73   36  115 1    
    74   37   38 am   BACKBONE|DICT|INTERRES
    75   37  116 1    
    76   38   39 2    
    77   38   40 1    
    78   40   41 1    
    79   40   42 1    
    80   40  117 1    
    81   41  118 1    
    82   41  119 1    
    83   41  120 1    
    84   42   43 am   BACKBONE|DICT|INTERRES
    85   42  121 1    
    86   43   44 2    
    87   43   45 1    
    88   45   46 1    
    89   45   47 1    
    90   45  122 1    
    91   46  123 1    
    92   46  124 1    
    93   46  125 1    
    94   47   48 am   BACKBONE|DICT|INTERRES
    95   47  126 1    
    96   48   49 2    
    97   48   50 1    
    98   50   51 1    
    99   50   52 1    
   100   50  127 1    
   101   51  128 1    
   102   51  129 1    
   103   51  130 1    
   104   52   53 am   BACKBONE|DICT|INTERRES
   105   52  131 1    
   106   53   54 2    
   107   53   55 1    
   108   55   56 1    
   109   55   59 1    
   110   55  132 1    
   111   56   57 1    
   112   56  133 1    
   113   56  134 1    
   114   57   58 1    
   115   58  135 1    
   116   58  136 1    
   117   59   60 am   BACKBONE|DICT|INTERRES
   118   59  137 1    
   119   60   61 2    
   120   60   62 1    
   121   62   63 1    
   122   62   64 1    
   123   62  138 1    
   124   63  139 1    
   125   63  140 1    
   126   63  141 1    
   127   64   65 am   BACKBONE|DICT|INTERRES
   128   64  142 1    
   129   65   66 2    
   130   65   67 1    
   131   67   68 1    
   132   67   69 1    
   133   67  143 1    
   134   68  144 1    
   135   68  145 1    
   136   68  146 1    
   137   69   70 am   BACKBONE|DICT|INTERRES
   138   69  147 1    
   139   70   71 2    
   140   70   72 1    
   141   72   73 1    
   142   72   74 1    
   143   72  148 1    
   144   73  149 1    
   145   73  150 1    
   146   73  151 1    
   147   74   75 am   BACKBONE|DICT|INTERRES
   148   74  152 1    
   149   75   76 2    
   150   75   77 1    
   151   77   78 1    
   152   77   79 1    
   153   77  153 1    
   154   78  154 1    
   155   78  155 1    
   156   78  156 1    
   157   79   80 am   BACKBONE|DICT|INTERRES
   158   79  157 1    
   159   80   81 2    
@<TRIPOS>SUBSTRUCTURE
     1 UNK         1 GROUP             0       ****    0 ROOT    
