@<TRIPOS>MOLECULE
3R207
157   159    1
SMALL
USER_CHARGES


@<TRIPOS>ATOM
      1 CA        -48.7217  -29.8462    8.3673 C.3       0 UNK        -0.1975 
      2 C         -49.7713  -28.7392    8.3119 C.2       0 UNK         0.4852 
      3 O         -49.9849  -28.0679    9.3136 O.2       0 UNK        -0.5216 
      4 N         -50.4455  -28.5075    7.1773 N.am      1 UNK        -0.4461 
      5 CA        -50.2701  -29.1937    5.8884 C.3       1 UNK         0.0864 
      6 C6        -51.5521  -29.1379    5.0215 C.3       14 UNK        -0.0898 
      7 S7        -52.9669  -29.9577    5.8344 S.3       14 UNK        -0.2598 
      8 C8        -54.1855  -28.6102    5.9497 C.3       14 UNK         0.0286 
      9 C9        -53.7922  -27.5625    6.9810 C.ar      14 UNK        -0.0844 
     10 C10       -53.1898  -26.3670    6.5776 C.ar      14 UNK        -0.0881 
     11 C11       -52.8535  -25.3881    7.5168 C.ar      14 UNK        -0.0643 
     12 C12       -53.1330  -25.6092    8.8681 C.ar      14 UNK        -0.0930 
     13 C13       -53.7263  -26.8043    9.2855 C.ar      14 UNK        -0.0827 
     14 C14       -54.0561  -27.7772    8.3374 C.ar      14 UNK        -0.1249 
     15 C15       -54.0157  -27.0299   10.7611 C.3       14 UNK         0.0141 
     16 S16       -52.6460  -27.9045   11.5779 S.3       14 UNK        -0.2313 
     17 C17       -53.1738  -29.6470   11.4599 C.3       14 UNK        -0.0915 
     18 CA        -53.3354  -30.3564   12.8365 C.3       13 UNK         0.0968 
     19 C         -52.0116  -30.8362   13.4956 C.2       13 UNK         0.5732 
     20 N         -51.9558  -30.9758   14.8163 N.am      13 UNK        -0.7310 
     21 O         -51.0336  -31.1263   12.8112 O.2       13 UNK        -0.5035 
     22 N         -54.1862  -29.6085   13.7746 N.am      13 UNK        -0.4233 
     23 C         -55.4977  -29.8020   13.9434 C.2       13 UNK         0.4989 
     24 O         -56.1659  -30.5668   13.2448 O.2       13 UNK        -0.4996 
     25 CA        -56.1869  -29.0181   15.0817 C.3       12 UNK         0.0216 
     26 CB        -57.4518  -29.7319   15.6043 C.3       12 UNK        -0.1964 
     27 N         -55.3117  -28.6598   16.2079 N.am      12 UNK        -0.4276 
     28 C         -54.5786  -29.4808   16.9802 C.2       12 UNK         0.5020 
     29 O         -54.4935  -30.6952   16.7906 O.2       12 UNK        -0.5489 
     30 CA        -53.7807  -28.8447   18.1372 C.3       11 UNK         0.0294 
     31 CB        -52.4058  -29.5149   18.3173 C.3       11 UNK        -0.2019 
     32 N         -53.5734  -27.4154   17.9084 N.am      11 UNK        -0.4493 
     33 C         -54.1069  -26.4144   18.6216 C.2       11 UNK         0.4932 
     34 O         -54.7824  -26.5812   19.6371 O.2       11 UNK        -0.5029 
     35 CA        -53.8719  -24.9785   18.1054 C.3       10 UNK         0.0280 
     36 CB        -52.7281  -24.3110   18.8854 C.3       10 UNK        -0.1976 
     37 N         -53.5785  -24.9019   16.6699 N.am      10 UNK        -0.4242 
     38 C         -54.4025  -25.3009   15.6888 C.2       10 UNK         0.5072 
     39 O         -55.5515  -25.6983   15.8824 O.2       10 UNK        -0.5224 
     40 CA        -53.8242  -25.3496   14.2628 C.3       9 UNK         0.0343 
     41 CB        -54.1452  -24.0421   13.5220 C.3       9 UNK        -0.2003 
     42 N         -52.3777  -25.6024   14.2145 N.am      9 UNK        -0.4272 
     43 C         -51.7474  -26.6502   14.7740 C.2       9 UNK         0.4988 
     44 O         -52.3537  -27.5766   15.3147 O.2       9 UNK        -0.5108 
     45 CA        -50.2032  -26.6756   14.7807 C.3       8 UNK         0.0248 
     46 CB        -49.6700  -27.9670   14.1418 C.3       8 UNK        -0.2001 
     47 N         -49.5704  -25.5241   14.1328 N.am      8 UNK        -0.4140 
     48 C         -49.5856  -24.2629   14.5929 C.2       8 UNK         0.5028 
     49 O         -50.0627  -23.9466   15.6837 O.2       8 UNK        -0.5428 
     50 CA        -49.0399  -23.1571   13.6633 C.3       7 UNK         0.0264 
     51 CB        -47.6262  -22.7418   14.0985 C.3       7 UNK        -0.1988 
     52 N         -49.0182  -23.5228   12.2408 N.am      7 UNK        -0.4454 
     53 C         -50.0911  -23.9016   11.5239 C.2       7 UNK         0.5027 
     54 O         -51.2390  -23.8472   11.9653 O.2       7 UNK        -0.5083 
     55 CA        -49.8699  -24.4745   10.1030 C.3       6 UNK         0.0844 
     56 C56       -50.3031  -23.4181    9.0556 C.3       14 UNK        -0.0967 
     57 S57       -50.4135  -24.0774    7.3577 S.3       14 UNK        -0.2604 
     58 C58       -52.2106  -24.0862    7.0623 C.3       14 UNK         0.0134 
     59 N         -48.5112  -24.9772    9.8514 N.am      6 UNK        -0.4116 
     60 C         -47.8192  -25.8467   10.6071 C.2       5 UNK         0.5034 
     61 O         -48.2625  -26.3920   11.6182 O.2       5 UNK        -0.5045 
     62 CA        -46.3408  -26.0666   10.2392 C.3       5 UNK         0.0224 
     63 CB        -46.1732  -27.3238    9.3724 C.3       5 UNK        -0.1978 
     64 N         -45.7199  -24.9153    9.5721 N.am      5 UNK        -0.4737 
     65 C         -45.6035  -23.6819   10.0852 C.2       4 UNK         0.5027 
     66 O         -46.0131  -23.3767   11.2055 O.2       4 UNK        -0.5211 
     67 CA        -44.9805  -22.5869    9.1968 C.3       4 UNK         0.0297 
     68 CB        -43.4539  -22.5100    9.3945 C.3       4 UNK        -0.1993 
     69 N         -45.3521  -22.6770    7.7749 N.am      4 UNK        -0.4486 
     70 C         -45.0058  -23.6097    6.8778 C.2       3 UNK         0.4961 
     71 O         -44.2182  -24.5316    7.1023 O.2       3 UNK        -0.5105 
     72 CA        -45.6967  -23.5203    5.5061 C.3       3 UNK         0.0299 
     73 CB        -44.7663  -22.8603    4.4761 C.3       3 UNK        -0.1972 
     74 N         -46.1124  -24.8377    5.0137 N.am      3 UNK        -0.4305 
     75 C         -46.9392  -25.6736    5.6576 C.2       2 UNK         0.5006 
     76 O         -47.4865  -25.4159    6.7329 O.2       2 UNK        -0.5106 
     77 CA        -47.1658  -27.0415    5.0064 C.3       2 UNK         0.0296 
     78 CB        -45.9535  -27.9641    5.2506 C.3       2 UNK        -0.2002 
     79 N         -48.3762  -27.6291    5.5747 N.am      2 UNK        -0.4032 
     80 C         -49.0425  -28.6875    5.0954 C.2       1 UNK         0.5000 
     81 O         -48.7118  -29.2828    4.0682 O.2       1 UNK        -0.5238 
     82 H82       -49.1636  -30.8147    8.1357 H         1 UNK         0.0889 
     83 H83       -48.2977  -29.9142    9.3690 H         1 UNK         0.0889 
     84 H84       -47.9039  -29.6528    7.6742 H         1 UNK         0.0889 
     85 H85       -51.1728  -27.8048    7.1972 H         1 UNK         0.3028 
     86 H86       -50.0776  -30.2493    6.0861 H         1 UNK         0.0864 
     87 H87       -51.3943  -29.6511    4.0708 H         1 UNK         0.0720 
     88 H88       -51.8021  -28.1081    4.7655 H         1 UNK         0.0720 
     89 H89       -54.3226  -28.1562    4.9670 H         1 UNK         0.0814 
     90 H90       -55.1525  -29.0368    6.2204 H         1 UNK         0.0814 
     91 H91       -52.9911  -26.1914    5.5292 H         1 UNK         0.1469 
     92 H92       -52.8826  -24.8532    9.5992 H         1 UNK         0.1381 
     93 H93       -54.5182  -28.7019    8.6545 H         1 UNK         0.1206 
     94 H94       -54.1538  -26.0691   11.2553 H         1 UNK         0.0813 
     95 H95       -54.9546  -27.5687   10.8946 H         1 UNK         0.0813 
     96 H96       -54.1230  -29.6988   10.9264 H         1 UNK         0.0638 
     97 H97       -52.4631  -30.1770   10.8238 H         1 UNK         0.0638 
     98 H98       -53.8319  -31.3041   12.6212 H         1 UNK         0.0568 
     99 H99       -51.1021  -31.3051   15.2364 H         1 UNK         0.3450 
    100 H100      -52.7742  -30.8188   15.3893 H         1 UNK         0.3450 
    101 H101      -53.6910  -28.9634   14.3810 H         1 UNK         0.2987 
    102 H102      -56.5035  -28.0735   14.6371 H         1 UNK         0.0766 
    103 H103      -57.9448  -29.1472   16.3809 H         1 UNK         0.0798 
    104 H104      -58.1797  -29.8822   14.8060 H         1 UNK         0.0798 
    105 H105      -57.2166  -30.7122   16.0205 H         1 UNK         0.0798 
    106 H106      -55.2924  -27.6678   16.4222 H         1 UNK         0.3198 
    107 H107      -54.3630  -29.0064   19.0464 H         1 UNK         0.0843 
    108 H108      -51.7938  -29.4240   17.4190 H         1 UNK         0.0831 
    109 H109      -52.5094  -30.5781   18.5380 H         1 UNK         0.0831 
    110 H110      -51.8539  -29.0680   19.1441 H         1 UNK         0.0831 
    111 H111      -53.0517  -27.1977   17.0631 H         1 UNK         0.3133 
    112 H112      -54.7880  -24.4125   18.2860 H         1 UNK         0.0566 
    113 H113      -51.7766  -24.8182   18.7194 H         1 UNK         0.0814 
    114 H114      -52.9242  -24.3279   19.9585 H         1 UNK         0.0814 
    115 H115      -52.6064  -23.2667   18.5969 H         1 UNK         0.0814 
    116 H116      -52.6508  -24.5920   16.4120 H         1 UNK         0.3091 
    117 H117      -54.3156  -26.1743   13.7433 H         1 UNK         0.0702 
    118 H118      -53.8442  -24.0887   12.4762 H         1 UNK         0.0785 
    119 H119      -53.6388  -23.1886   13.9745 H         1 UNK         0.0785 
    120 H120      -55.2162  -23.8348   13.5384 H         1 UNK         0.0785 
    121 H121      -51.8231  -24.9176   13.7136 H         1 UNK         0.2998 
    122 H122      -49.8974  -26.6718   15.8287 H         1 UNK         0.0697 
    123 H123      -49.9836  -28.0617   13.1011 H         1 UNK         0.0825 
    124 H124      -50.0338  -28.8453   14.6749 H         1 UNK         0.0825 
    125 H125      -48.5810  -28.0049   14.1665 H         1 UNK         0.0825 
    126 H126      -49.1505  -25.7053   13.2241 H         1 UNK         0.3029 
    127 H127      -49.7008  -22.2944   13.7690 H         1 UNK         0.0897 
    128 H128      -47.2602  -21.9005   13.5095 H         1 UNK         0.0792 
    129 H129      -47.6123  -22.4346   15.1453 H         1 UNK         0.0792 
    130 H130      -46.9146  -23.5613   13.9878 H         1 UNK         0.0792 
    131 H131      -48.1015  -23.5828   11.8102 H         1 UNK         0.3086 
    132 H132      -50.5298  -25.3397   10.0186 H         1 UNK         0.0583 
    133 H133      -51.2660  -22.9790    9.3237 H         1 UNK         0.1020 
    134 H134      -49.5975  -22.5852    9.0480 H         1 UNK         0.1020 
    135 H135      -52.6878  -23.2372    7.5532 H         1 UNK         0.0694 
    136 H136      -52.3789  -23.9413    5.9941 H         1 UNK         0.0694 
    137 H137      -48.0686  -24.6443    9.0051 H         1 UNK         0.2989 
    138 H138      -45.7990  -26.2241   11.1743 H         1 UNK         0.1055 
    139 H139      -45.1284  -27.4982    9.1154 H         1 UNK         0.0806 
    140 H140      -46.7427  -27.2540    8.4465 H         1 UNK         0.0806 
    141 H141      -46.5286  -28.2067    9.9047 H         1 UNK         0.0806 
    142 H142      -45.3413  -25.0667    8.6418 H         1 UNK         0.3061 
    143 H143      -45.3971  -21.6396    9.5436 H         1 UNK         0.0734 
    144 H144      -43.2100  -22.3114   10.4389 H         1 UNK         0.0832 
    145 H145      -42.9559  -23.4406    9.1214 H         1 UNK         0.0832 
    146 H146      -43.0162  -21.7074    8.8011 H         1 UNK         0.0832 
    147 H147      -46.0232  -21.9822    7.4754 H         1 UNK         0.3156 
    148 H148      -46.5974  -22.9103    5.6027 H         1 UNK         0.0589 
    149 H149      -43.8580  -23.4445    4.3212 H         1 UNK         0.0808 
    150 H150      -45.2596  -22.7420    3.5112 H         1 UNK         0.0808 
    151 H151      -44.4609  -21.8662    4.8059 H         1 UNK         0.0808 
    152 H152      -45.6820  -25.1513    4.1560 H         1 UNK         0.3098 
    153 H153      -47.3134  -26.8963    3.9342 H         1 UNK         0.0720 
    154 H154      -46.0742  -28.9273    4.7552 H         1 UNK         0.0791 
    155 H155      -45.0351  -27.5207    4.8639 H         1 UNK         0.0791 
    156 H156      -45.7997  -28.1529    6.3135 H         1 UNK         0.0791 
    157 H157      -48.7220  -27.1434    6.3950 H         1 UNK         0.3028 
@<TRIPOS>BOND
     1    1    2 1    
     2    1   82 1    
     3    1   83 1    
     4    1   84 1    
     5    2    3 2    
     6    2    4 am   BACKBONE|DICT|INTERRES
     7    4    5 1    
     8    4   85 1    
     9    5    6 1    
    10    5   80 1    
    11    5   86 1    
    12    6    7 1    
    13    6   87 1    
    14    6   88 1    
    15    7    8 1    
    16    8    9 1    
    17    8   89 1    
    18    8   90 1    
    19    9   10 ar   
    20    9   14 ar   
    21   10   11 ar   
    22   10   91 1    
    23   11   12 ar   
    24   11   58 1    
    25   12   13 ar   
    26   12   92 1    
    27   13   14 ar   
    28   13   15 1    
    29   14   93 1    
    30   15   16 1    
    31   15   94 1    
    32   15   95 1    
    33   16   17 1    
    34   17   18 1    
    35   17   96 1    
    36   17   97 1    
    37   18   19 1    
    38   18   22 1    
    39   18   98 1    
    40   19   20 am   BACKBONE|DICT|INTERRES
    41   19   21 2    
    42   20   99 1    
    43   20  100 1    
    44   22   23 am   BACKBONE|DICT|INTERRES
    45   22  101 1    
    46   23   24 2    
    47   23   25 1    
    48   25   26 1    
    49   25   27 1    
    50   25  102 1    
    51   26  103 1    
    52   26  104 1    
    53   26  105 1    
    54   27   28 am   BACKBONE|DICT|INTERRES
    55   27  106 1    
    56   28   29 2    
    57   28   30 1    
    58   30   31 1    
    59   30   32 1    
    60   30  107 1    
    61   31  108 1    
    62   31  109 1    
    63   31  110 1    
    64   32   33 am   BACKBONE|DICT|INTERRES
    65   32  111 1    
    66   33   34 2    
    67   33   35 1    
    68   35   36 1    
    69   35   37 1    
    70   35  112 1    
    71   36  113 1    
    72   36  114 1    
    73   36  115 1    
    74   37   38 am   BACKBONE|DICT|INTERRES
    75   37  116 1    
    76   38   39 2    
    77   38   40 1    
    78   40   41 1    
    79   40   42 1    
    80   40  117 1    
    81   41  118 1    
    82   41  119 1    
    83   41  120 1    
    84   42   43 am   BACKBONE|DICT|INTERRES
    85   42  121 1    
    86   43   44 2    
    87   43   45 1    
    88   45   46 1    
    89   45   47 1    
    90   45  122 1    
    91   46  123 1    
    92   46  124 1    
    93   46  125 1    
    94   47   48 am   BACKBONE|DICT|INTERRES
    95   47  126 1    
    96   48   49 2    
    97   48   50 1    
    98   50   51 1    
    99   50   52 1    
   100   50  127 1    
   101   51  128 1    
   102   51  129 1    
   103   51  130 1    
   104   52   53 am   BACKBONE|DICT|INTERRES
   105   52  131 1    
   106   53   54 2    
   107   53   55 1    
   108   55   56 1    
   109   55   59 1    
   110   55  132 1    
   111   56   57 1    
   112   56  133 1    
   113   56  134 1    
   114   57   58 1    
   115   58  135 1    
   116   58  136 1    
   117   59   60 am   BACKBONE|DICT|INTERRES
   118   59  137 1    
   119   60   61 2    
   120   60   62 1    
   121   62   63 1    
   122   62   64 1    
   123   62  138 1    
   124   63  139 1    
   125   63  140 1    
   126   63  141 1    
   127   64   65 am   BACKBONE|DICT|INTERRES
   128   64  142 1    
   129   65   66 2    
   130   65   67 1    
   131   67   68 1    
   132   67   69 1    
   133   67  143 1    
   134   68  144 1    
   135   68  145 1    
   136   68  146 1    
   137   69   70 am   BACKBONE|DICT|INTERRES
   138   69  147 1    
   139   70   71 2    
   140   70   72 1    
   141   72   73 1    
   142   72   74 1    
   143   72  148 1    
   144   73  149 1    
   145   73  150 1    
   146   73  151 1    
   147   74   75 am   BACKBONE|DICT|INTERRES
   148   74  152 1    
   149   75   76 2    
   150   75   77 1    
   151   77   78 1    
   152   77   79 1    
   153   77  153 1    
   154   78  154 1    
   155   78  155 1    
   156   78  156 1    
   157   79   80 am   BACKBONE|DICT|INTERRES
   158   79  157 1    
   159   80   81 2    
@<TRIPOS>SUBSTRUCTURE
     1 UNK         1 GROUP             0       ****    0 ROOT    
