@<TRIPOS>MOLECULE
3R207
157   159    1
SMALL
USER_CHARGES


@<TRIPOS>ATOM
      1 CA        -45.7589  -30.5567    6.6686 C.3       0 UNK        -0.1975 
      2 C         -46.5980  -30.5209    7.9439 C.2       0 UNK         0.4852 
      3 O         -46.0290  -30.5327    9.0333 O.2       0 UNK        -0.5216 
      4 N         -47.9385  -30.4883    7.8778 N.am      1 UNK        -0.4461 
      5 CA        -48.7820  -30.4456    6.6749 C.3       1 UNK         0.0864 
      6 C6        -50.2699  -30.6728    7.0424 C.3       14 UNK        -0.0898 
      7 S7        -51.3011  -31.2374    5.6426 S.3       14 UNK        -0.2598 
      8 C8        -52.0816  -29.6972    5.0479 C.3       14 UNK         0.0286 
      9 C9        -52.9449  -29.0346    6.1114 C.ar      14 UNK        -0.0844 
     10 C10       -52.4768  -27.9088    6.7959 C.ar      14 UNK        -0.0881 
     11 C11       -53.2435  -27.3244    7.8067 C.ar      14 UNK        -0.0643 
     12 C12       -54.5002  -27.8545    8.1130 C.ar      14 UNK        -0.0930 
     13 C13       -54.9892  -28.9651    7.4181 C.ar      14 UNK        -0.0827 
     14 C14       -54.2071  -29.5517    6.4186 C.ar      14 UNK        -0.1249 
     15 C15       -56.3561  -29.5377    7.7566 C.3       14 UNK         0.0141 
     16 S16       -56.2290  -30.7554    9.1027 S.3       14 UNK        -0.2313 
     17 C17       -57.5122  -30.1600   10.2553 C.3       14 UNK        -0.0915 
     18 CA        -57.0162  -29.0259   11.1931 C.3       13 UNK         0.0968 
     19 C         -58.1674  -28.5159   12.1108 C.2       13 UNK         0.5732 
     20 N         -58.0687  -28.6035   13.4333 N.am      13 UNK        -0.7310 
     21 O         -59.1740  -28.0219   11.6082 O.2       13 UNK        -0.5035 
     22 N         -55.7926  -29.4071   11.9130 N.am      13 UNK        -0.4233 
     23 C         -54.9317  -28.5416   12.4567 C.2       13 UNK         0.4989 
     24 O         -55.0124  -27.3164   12.3440 O.2       13 UNK        -0.4996 
     25 CA        -53.7965  -29.1601   13.2872 C.3       12 UNK         0.0216 
     26 CB        -52.4333  -28.9199   12.6209 C.3       12 UNK        -0.1964 
     27 N         -53.7862  -28.6349   14.6553 N.am      12 UNK        -0.4276 
     28 C         -54.7770  -28.8190   15.5437 C.2       12 UNK         0.5020 
     29 O         -55.8016  -29.4567   15.2885 O.2       12 UNK        -0.5489 
     30 CA        -54.6125  -28.2303   16.9594 C.3       11 UNK         0.0294 
     31 CB        -54.2567  -29.3420   17.9604 C.3       11 UNK        -0.2019 
     32 N         -53.6048  -27.1727   17.0492 N.am      11 UNK        -0.4493 
     33 C         -53.7652  -25.9226   16.5956 C.2       11 UNK         0.4932 
     34 O         -54.8235  -25.4981   16.1309 O.2       11 UNK        -0.5029 
     35 CA        -52.5457  -24.9805   16.6650 C.3       10 UNK         0.0280 
     36 CB        -52.6816  -24.0162   17.8545 C.3       10 UNK        -0.1976 
     37 N         -51.2290  -25.6318   16.7301 N.am      10 UNK        -0.4242 
     38 C         -50.7442  -26.5301   15.8617 C.2       10 UNK         0.5072 
     39 O         -51.4014  -27.0166   14.9420 O.2       10 UNK        -0.5224 
     40 CA        -49.2790  -26.9489   16.0610 C.3       9 UNK         0.0343 
     41 CB        -48.8972  -28.1706   15.2036 C.3       9 UNK        -0.2003 
     42 N         -48.3844  -25.8430   15.7266 N.am      9 UNK        -0.4272 
     43 C         -48.0654  -24.8263   16.5376 C.2       9 UNK         0.4988 
     44 O         -48.4951  -24.7097   17.6864 O.2       9 UNK        -0.5108 
     45 CA        -47.1308  -23.7545   15.9600 C.3       8 UNK         0.0248 
     46 CB        -45.7196  -24.3185   15.7194 C.3       8 UNK        -0.2001 
     47 N         -47.6725  -23.2326   14.7059 N.am      8 UNK        -0.4140 
     48 C         -48.4275  -22.1297   14.6026 C.2       8 UNK         0.5028 
     49 O         -48.6707  -21.3736   15.5443 O.2       8 UNK        -0.5428 
     50 CA        -49.0229  -21.8081   13.2174 C.3       7 UNK         0.0264 
     51 CB        -48.1015  -20.8492   12.4464 C.3       7 UNK        -0.1988 
     52 N         -49.2811  -22.9945   12.3967 N.am      7 UNK        -0.4454 
     53 C         -50.1464  -23.9695   12.7121 C.2       7 UNK         0.5027 
     54 O         -50.8984  -23.9112   13.6835 O.2       7 UNK        -0.5083 
     55 CA        -50.1649  -25.2293   11.8188 C.3       6 UNK         0.0844 
     56 C56       -51.3238  -25.1420   10.7991 C.3       14 UNK        -0.0967 
     57 S57       -51.5467  -26.6909    9.8697 S.3       14 UNK        -0.2604 
     58 C58       -52.7012  -26.1365    8.5826 C.3       14 UNK         0.0134 
     59 N         -48.8721  -25.5094   11.1767 N.am      6 UNK        -0.4116 
     60 C         -47.7222  -25.7559   11.8229 C.2       5 UNK         0.5034 
     61 O         -47.6077  -25.7585   13.0480 O.2       5 UNK        -0.5045 
     62 CA        -46.4737  -25.9720   10.9594 C.3       5 UNK         0.0224 
     63 CB        -46.4599  -27.3785   10.3389 C.3       5 UNK        -0.1978 
     64 N         -46.3892  -24.9517    9.9142 N.am      5 UNK        -0.4737 
     65 C         -45.9428  -23.7047   10.1254 C.2       4 UNK         0.5027 
     66 O         -45.4630  -23.3245   11.1929 O.2       4 UNK        -0.5211 
     67 CA        -46.0664  -22.7028    8.9628 C.3       4 UNK         0.0297 
     68 CB        -44.7735  -22.6845    8.1321 C.3       4 UNK        -0.1993 
     69 N         -47.2054  -22.9699    8.0807 N.am      4 UNK        -0.4486 
     70 C         -48.4925  -22.8847    8.4460 C.2       3 UNK         0.4961 
     71 O         -48.8664  -22.5268    9.5615 O.2       3 UNK        -0.5105 
     72 CA        -49.5377  -23.3318    7.4083 C.3       3 UNK         0.0299 
     73 CB        -49.9498  -22.1513    6.5154 C.3       3 UNK        -0.1972 
     74 N         -49.0987  -24.4554    6.5712 N.am      3 UNK        -0.4305 
     75 C         -48.7234  -25.6535    7.0389 C.2       2 UNK         0.5006 
     76 O         -48.6748  -25.9404    8.2375 O.2       2 UNK        -0.5106 
     77 CA        -48.2674  -26.6821    6.0034 C.3       2 UNK         0.0296 
     78 CB        -46.7861  -26.4663    5.6409 C.3       2 UNK        -0.2002 
     79 N         -48.4513  -28.0134    6.5701 N.am      2 UNK        -0.4032 
     80 C         -48.5923  -29.1433    5.8677 C.2       1 UNK         0.5000 
     81 O         -48.5459  -29.1928    4.6377 O.2       1 UNK        -0.5238 
     82 H82       -44.7540  -30.9164    6.8889 H         1 UNK         0.0889 
     83 H83       -45.6674  -29.5577    6.2434 H         1 UNK         0.0889 
     84 H84       -46.1826  -31.2221    5.9179 H         1 UNK         0.0889 
     85 H85       -48.4451  -30.4840    8.7515 H         1 UNK         0.3028 
     86 H86       -48.4716  -31.2752    6.0369 H         1 UNK         0.0864 
     87 H87       -50.7008  -29.7957    7.5246 H         1 UNK         0.0720 
     88 H88       -50.3384  -31.4651    7.7897 H         1 UNK         0.0720 
     89 H89       -52.6993  -29.9322    4.1799 H         1 UNK         0.0814 
     90 H90       -51.3143  -29.0102    4.6896 H         1 UNK         0.0814 
     91 H91       -51.5005  -27.5036    6.5679 H         1 UNK         0.1469 
     92 H92       -55.0916  -27.4101    8.9017 H         1 UNK         0.1381 
     93 H93       -54.5719  -30.4226    5.8908 H         1 UNK         0.1206 
     94 H94       -57.0339  -28.7278    8.0301 H         1 UNK         0.0813 
     95 H95       -56.7958  -30.0183    6.8813 H         1 UNK         0.0813 
     96 H96       -58.3793  -29.8371    9.6760 H         1 UNK         0.0638 
     97 H97       -57.8479  -31.0141   10.8461 H         1 UNK         0.0638 
     98 H98       -56.7610  -28.1764   10.5575 H         1 UNK         0.0568 
     99 H99       -58.8273  -28.2640   14.0021 H         1 UNK         0.3450 
    100 H100      -57.2431  -28.9890   13.8781 H         1 UNK         0.3450 
    101 H101      -55.6593  -30.3965   12.0590 H         1 UNK         0.2987 
    102 H102      -53.9498  -30.2394   13.3532 H         1 UNK         0.0766 
    103 H103      -52.4120  -29.3307   11.6106 H         1 UNK         0.0798 
    104 H104      -51.6246  -29.3873   13.1828 H         1 UNK         0.0798 
    105 H105      -52.2124  -27.8551   12.5427 H         1 UNK         0.0798 
    106 H106      -52.9927  -28.0470   14.9032 H         1 UNK         0.3198 
    107 H107      -55.5785  -27.8096   17.2477 H         1 UNK         0.0843 
    108 H108      -53.2952  -29.8021   17.7292 H         1 UNK         0.0831 
    109 H109      -55.0074  -30.1337   17.9465 H         1 UNK         0.0831 
    110 H110      -54.2120  -28.9599   18.9804 H         1 UNK         0.0831 
    111 H111      -52.7010  -27.4309   17.4171 H         1 UNK         0.3133 
    112 H112      -52.5586  -24.3880   15.7487 H         1 UNK         0.0566 
    113 H113      -51.8943  -23.2619   17.8461 H         1 UNK         0.0814 
    114 H114      -53.6345  -23.4859   17.8227 H         1 UNK         0.0814 
    115 H115      -52.6334  -24.5437   18.8080 H         1 UNK         0.0814 
    116 H116      -50.5822  -25.2733   17.4232 H         1 UNK         0.3091 
    117 H117      -49.1451  -27.2202   17.1104 H         1 UNK         0.0702 
    118 H118      -49.5344  -29.0250   15.4353 H         1 UNK         0.0785 
    119 H119      -49.0024  -27.9653   14.1372 H         1 UNK         0.0785 
    120 H120      -47.8663  -28.4751   15.3844 H         1 UNK         0.0785 
    121 H121      -48.0296  -25.8357   14.7713 H         1 UNK         0.2998 
    122 H122      -47.0461  -22.9507   16.6946 H         1 UNK         0.0697 
    123 H123      -45.7160  -25.1181   14.9776 H         1 UNK         0.0825 
    124 H124      -45.3004  -24.7255   16.6405 H         1 UNK         0.0825 
    125 H125      -45.0400  -23.5407   15.3707 H         1 UNK         0.0825 
    126 H126      -47.5591  -23.8188   13.8873 H         1 UNK         0.3029 
    127 H127      -49.9789  -21.3067   13.3826 H         1 UNK         0.0897 
    128 H128      -48.5523  -20.5374   11.5040 H         1 UNK         0.0792 
    129 H129      -47.1388  -21.3096   12.2210 H         1 UNK         0.0792 
    130 H130      -47.9046  -19.9457   13.0251 H         1 UNK         0.0792 
    131 H131      -48.7947  -23.0501   11.5070 H         1 UNK         0.3086 
    132 H132      -50.3685  -26.0714   12.4839 H         1 UNK         0.0583 
    133 H133      -52.2658  -24.9283   11.3092 H         1 UNK         0.1020 
    134 H134      -51.1568  -24.3208   10.1006 H         1 UNK         0.1020 
    135 H135      -53.5187  -25.5781    9.0416 H         1 UNK         0.0694 
    136 H136      -52.1910  -25.4489    7.9066 H         1 UNK         0.0694 
    137 H137      -48.8783  -25.5611   10.1621 H         1 UNK         0.2989 
    138 H138      -45.5993  -25.8857   11.6090 H         1 UNK         0.1055 
    139 H139      -46.4407  -28.1435   11.1164 H         1 UNK         0.0806 
    140 H140      -45.5777  -27.5309    9.7170 H         1 UNK         0.0806 
    141 H141      -47.3385  -27.5711    9.7244 H         1 UNK         0.0806 
    142 H142      -46.8361  -25.1693    9.0326 H         1 UNK         0.3061 
    143 H143      -46.2082  -21.7117    9.3994 H         1 UNK         0.0734 
    144 H144      -43.9102  -22.4625    8.7612 H         1 UNK         0.0832 
    145 H145      -44.8100  -21.9204    7.3554 H         1 UNK         0.0832 
    146 H146      -44.5869  -23.6459    7.6517 H         1 UNK         0.0832 
    147 H147      -46.9956  -23.2708    7.1404 H         1 UNK         0.3156 
    148 H148      -50.4207  -23.6625    7.9569 H         1 UNK         0.0589 
    149 H149      -49.1183  -21.7925    5.9076 H         1 UNK         0.0808 
    150 H150      -50.7640  -22.4257    5.8444 H         1 UNK         0.0808 
    151 H151      -50.2994  -21.3112    7.1175 H         1 UNK         0.0808 
    152 H152      -49.0939  -24.2996    5.5730 H         1 UNK         0.3098 
    153 H153      -48.8891  -26.5789    5.1113 H         1 UNK         0.0720 
    154 H154      -46.4522  -27.1842    4.8914 H         1 UNK         0.0791 
    155 H155      -46.1391  -26.5709    6.5131 H         1 UNK         0.0791 
    156 H156      -46.6208  -25.4711    5.2265 H         1 UNK         0.0791 
    157 H157      -48.5297  -28.0282    7.5797 H         1 UNK         0.3028 
@<TRIPOS>BOND
     1    1    2 1    
     2    1   82 1    
     3    1   83 1    
     4    1   84 1    
     5    2    3 2    
     6    2    4 am   BACKBONE|DICT|INTERRES
     7    4    5 1    
     8    4   85 1    
     9    5    6 1    
    10    5   80 1    
    11    5   86 1    
    12    6    7 1    
    13    6   87 1    
    14    6   88 1    
    15    7    8 1    
    16    8    9 1    
    17    8   89 1    
    18    8   90 1    
    19    9   10 ar   
    20    9   14 ar   
    21   10   11 ar   
    22   10   91 1    
    23   11   12 ar   
    24   11   58 1    
    25   12   13 ar   
    26   12   92 1    
    27   13   14 ar   
    28   13   15 1    
    29   14   93 1    
    30   15   16 1    
    31   15   94 1    
    32   15   95 1    
    33   16   17 1    
    34   17   18 1    
    35   17   96 1    
    36   17   97 1    
    37   18   19 1    
    38   18   22 1    
    39   18   98 1    
    40   19   20 am   BACKBONE|DICT|INTERRES
    41   19   21 2    
    42   20   99 1    
    43   20  100 1    
    44   22   23 am   BACKBONE|DICT|INTERRES
    45   22  101 1    
    46   23   24 2    
    47   23   25 1    
    48   25   26 1    
    49   25   27 1    
    50   25  102 1    
    51   26  103 1    
    52   26  104 1    
    53   26  105 1    
    54   27   28 am   BACKBONE|DICT|INTERRES
    55   27  106 1    
    56   28   29 2    
    57   28   30 1    
    58   30   31 1    
    59   30   32 1    
    60   30  107 1    
    61   31  108 1    
    62   31  109 1    
    63   31  110 1    
    64   32   33 am   BACKBONE|DICT|INTERRES
    65   32  111 1    
    66   33   34 2    
    67   33   35 1    
    68   35   36 1    
    69   35   37 1    
    70   35  112 1    
    71   36  113 1    
    72   36  114 1    
    73   36  115 1    
    74   37   38 am   BACKBONE|DICT|INTERRES
    75   37  116 1    
    76   38   39 2    
    77   38   40 1    
    78   40   41 1    
    79   40   42 1    
    80   40  117 1    
    81   41  118 1    
    82   41  119 1    
    83   41  120 1    
    84   42   43 am   BACKBONE|DICT|INTERRES
    85   42  121 1    
    86   43   44 2    
    87   43   45 1    
    88   45   46 1    
    89   45   47 1    
    90   45  122 1    
    91   46  123 1    
    92   46  124 1    
    93   46  125 1    
    94   47   48 am   BACKBONE|DICT|INTERRES
    95   47  126 1    
    96   48   49 2    
    97   48   50 1    
    98   50   51 1    
    99   50   52 1    
   100   50  127 1    
   101   51  128 1    
   102   51  129 1    
   103   51  130 1    
   104   52   53 am   BACKBONE|DICT|INTERRES
   105   52  131 1    
   106   53   54 2    
   107   53   55 1    
   108   55   56 1    
   109   55   59 1    
   110   55  132 1    
   111   56   57 1    
   112   56  133 1    
   113   56  134 1    
   114   57   58 1    
   115   58  135 1    
   116   58  136 1    
   117   59   60 am   BACKBONE|DICT|INTERRES
   118   59  137 1    
   119   60   61 2    
   120   60   62 1    
   121   62   63 1    
   122   62   64 1    
   123   62  138 1    
   124   63  139 1    
   125   63  140 1    
   126   63  141 1    
   127   64   65 am   BACKBONE|DICT|INTERRES
   128   64  142 1    
   129   65   66 2    
   130   65   67 1    
   131   67   68 1    
   132   67   69 1    
   133   67  143 1    
   134   68  144 1    
   135   68  145 1    
   136   68  146 1    
   137   69   70 am   BACKBONE|DICT|INTERRES
   138   69  147 1    
   139   70   71 2    
   140   70   72 1    
   141   72   73 1    
   142   72   74 1    
   143   72  148 1    
   144   73  149 1    
   145   73  150 1    
   146   73  151 1    
   147   74   75 am   BACKBONE|DICT|INTERRES
   148   74  152 1    
   149   75   76 2    
   150   75   77 1    
   151   77   78 1    
   152   77   79 1    
   153   77  153 1    
   154   78  154 1    
   155   78  155 1    
   156   78  156 1    
   157   79   80 am   BACKBONE|DICT|INTERRES
   158   79  157 1    
   159   80   81 2    
@<TRIPOS>SUBSTRUCTURE
     1 UNK         1 GROUP             0       ****    0 ROOT    
