@<TRIPOS>MOLECULE
3R207
157   159    1
SMALL
USER_CHARGES


@<TRIPOS>ATOM
      1 CA        -51.3249  -23.3113    1.5476 C.3       0 UNK        -0.1975 
      2 C         -50.9000  -23.7129    2.9529 C.2       0 UNK         0.4852 
      3 O         -50.4202  -22.8658    3.7078 O.2       0 UNK        -0.5216 
      4 N         -51.0816  -24.9929    3.3030 N.am      1 UNK        -0.4461 
      5 CA        -50.6833  -25.5884    4.5811 C.3       1 UNK         0.0864 
      6 C6        -51.8312  -26.4532    5.1759 C.3       14 UNK        -0.0898 
      7 S7        -51.6527  -26.6867    6.9766 S.3       14 UNK        -0.2598 
      8 C8        -51.8627  -28.4838    7.1554 C.3       14 UNK         0.0286 
      9 C9        -51.3789  -28.9694    8.5141 C.ar      14 UNK        -0.0844 
     10 C10       -50.0321  -29.2928    8.7028 C.ar      14 UNK        -0.0881 
     11 C11       -49.5845  -29.8062    9.9230 C.ar      14 UNK        -0.0643 
     12 C12       -50.4961  -29.9827   10.9683 C.ar      14 UNK        -0.0930 
     13 C13       -51.8458  -29.6506   10.7995 C.ar      14 UNK        -0.0827 
     14 C14       -52.2776  -29.1333    9.5723 C.ar      14 UNK        -0.1249 
     15 C15       -52.8236  -29.8288   11.9548 C.3       14 UNK         0.0141 
     16 S16       -54.3015  -30.7907   11.5014 S.3       14 UNK        -0.2313 
     17 C17       -55.2639  -30.7073   13.0519 C.3       14 UNK        -0.0915 
     18 CA        -56.3806  -29.6294   12.9961 C.3       13 UNK         0.0968 
     19 C         -57.4027  -29.7678   14.1629 C.2       13 UNK         0.5732 
     20 N         -57.7811  -28.7019   14.8612 N.am      13 UNK        -0.7310 
     21 O         -57.8916  -30.8645   14.4250 O.2       13 UNK        -0.5035 
     22 N         -55.8078  -28.2802   12.9064 N.am      13 UNK        -0.4233 
     23 C         -56.1295  -27.3587   11.9913 C.2       13 UNK         0.4989 
     24 O         -56.9096  -27.5634   11.0594 O.2       13 UNK        -0.4996 
     25 CA        -55.4612  -25.9743   12.1282 C.3       12 UNK         0.0216 
     26 CB        -56.3516  -24.8321   11.5949 C.3       12 UNK        -0.1964 
     27 N         -54.9819  -25.6640   13.4816 N.am      12 UNK        -0.4276 
     28 C         -55.6998  -25.5901   14.6104 C.2       12 UNK         0.5020 
     29 O         -56.9128  -25.8065   14.6648 O.2       12 UNK        -0.5489 
     30 CA        -54.9085  -25.2752   15.8968 C.3       11 UNK         0.0294 
     31 CB        -55.7844  -25.3590   17.1643 C.3       11 UNK        -0.2019 
     32 N         -53.7026  -26.0988   16.0704 N.am      11 UNK        -0.4493 
     33 C         -53.6185  -27.4391   16.0427 C.2       11 UNK         0.4932 
     34 O         -54.5639  -28.1734   15.7533 O.2       11 UNK        -0.5029 
     35 CA        -52.2622  -28.0840   16.3906 C.3       10 UNK         0.0280 
     36 CB        -51.9426  -29.2634   15.4608 C.3       10 UNK        -0.1976 
     37 N         -51.1432  -27.1410   16.3443 N.am      10 UNK        -0.4242 
     38 C         -50.6605  -26.4649   17.3942 C.2       10 UNK         0.5072 
     39 O         -51.1149  -26.5504   18.5357 O.2       10 UNK        -0.5224 
     40 CA        -49.4830  -25.5121   17.1218 C.3       9 UNK         0.0343 
     41 CB        -48.1547  -26.2850   17.1143 C.3       9 UNK        -0.2003 
     42 N         -49.6178  -24.7519   15.8749 N.am      9 UNK        -0.4272 
     43 C         -50.6082  -23.8837   15.6165 C.2       9 UNK         0.4988 
     44 O         -51.5303  -23.6397   16.3959 O.2       9 UNK        -0.5108 
     45 CA        -50.5858  -23.1924   14.2442 C.3       8 UNK         0.0248 
     46 CB        -49.5170  -22.0883   14.2027 C.3       8 UNK        -0.2001 
     47 N         -50.3699  -24.1353   13.1463 N.am      8 UNK        -0.4140 
     48 C         -51.2162  -25.1216   12.8192 C.2       8 UNK         0.5028 
     49 O         -52.2974  -25.3062   13.3742 O.2       8 UNK        -0.5428 
     50 CA        -50.7654  -26.0993   11.7253 C.3       7 UNK         0.0264 
     51 CB        -50.9290  -25.4841   10.3305 C.3       7 UNK        -0.1988 
     52 N         -49.3857  -26.5464   11.9095 N.am      7 UNK        -0.4454 
     53 C         -48.9483  -27.2326   12.9753 C.2       7 UNK         0.5027 
     54 O         -49.6676  -27.5776   13.9121 O.2       7 UNK        -0.5083 
     55 CA        -47.4421  -27.5392   13.0428 C.3       6 UNK         0.0844 
     56 C56       -47.0847  -28.8866   12.3701 C.3       14 UNK        -0.0967 
     57 S57       -47.0480  -28.8283   10.5449 S.3       14 UNK        -0.2604 
     58 C58       -48.1268  -30.2191   10.0789 C.3       14 UNK         0.0134 
     59 N         -46.6328  -26.4192   12.5564 N.am      6 UNK        -0.4116 
     60 C         -46.5455  -25.2307   13.1682 C.2       5 UNK         0.5034 
     61 O         -47.1097  -24.9567   14.2287 O.2       5 UNK        -0.5045 
     62 CA        -45.7221  -24.1532   12.4470 C.3       5 UNK         0.0224 
     63 CB        -44.2178  -24.4625   12.5243 C.3       5 UNK        -0.1978 
     64 N         -46.1182  -23.9606   11.0474 N.am      5 UNK        -0.4737 
     65 C         -47.3306  -23.5460   10.6514 C.2       4 UNK         0.5027 
     66 O         -48.2689  -23.3538   11.4219 O.2       4 UNK        -0.5211 
     67 CA        -47.5364  -23.2762    9.1529 C.3       4 UNK         0.0297 
     68 CB        -47.3394  -21.7819    8.8522 C.3       4 UNK        -0.1993 
     69 N         -46.6566  -24.0649    8.2872 N.am      4 UNK        -0.4486 
     70 C         -46.8504  -25.3587    8.0044 C.2       3 UNK         0.4961 
     71 O         -47.7575  -26.0325    8.4931 O.2       3 UNK        -0.5105 
     72 CA        -45.8638  -25.9781    7.0003 C.3       3 UNK         0.0299 
     73 CB        -44.7478  -26.7725    7.7083 C.3       3 UNK        -0.1972 
     74 N         -46.5698  -26.7508    5.9704 N.am      3 UNK        -0.4305 
     75 C         -47.0812  -27.9892    6.0300 C.2       2 UNK         0.5006 
     76 O         -46.8845  -28.7953    6.9389 O.2       2 UNK        -0.5106 
     77 CA        -48.0027  -28.3747    4.8575 C.3       2 UNK         0.0296 
     78 CB        -48.3973  -29.8644    4.8660 C.3       2 UNK        -0.2002 
     79 N         -49.2194  -27.5598    4.8793 N.am      2 UNK        -0.4032 
     80 C         -49.3313  -26.3161    4.3957 C.2       1 UNK         0.5000 
     81 O         -48.3978  -25.7351    3.8345 O.2       1 UNK        -0.5238 
     82 H82       -51.7495  -24.1485    0.9937 H         1 UNK         0.0889 
     83 H83       -50.4673  -22.9362    0.9899 H         1 UNK         0.0889 
     84 H84       -52.0740  -22.5213    1.5935 H         1 UNK         0.0889 
     85 H85       -51.4511  -25.6391    2.6195 H         1 UNK         0.3028 
     86 H86       -50.4844  -24.7852    5.2942 H         1 UNK         0.0864 
     87 H87       -52.7841  -25.9410    5.0317 H         1 UNK         0.0720 
     88 H88       -51.9353  -27.4069    4.6552 H         1 UNK         0.0720 
     89 H89       -51.3189  -29.0104    6.3707 H         1 UNK         0.0814 
     90 H90       -52.9154  -28.7351    7.0155 H         1 UNK         0.0814 
     91 H91       -49.3265  -29.1564    7.8960 H         1 UNK         0.1469 
     92 H92       -50.1528  -30.3813   11.9129 H         1 UNK         0.1381 
     93 H93       -53.3190  -28.8748    9.4365 H         1 UNK         0.1206 
     94 H94       -53.1194  -28.8458   12.3220 H         1 UNK         0.0813 
     95 H95       -52.3366  -30.3499   12.7788 H         1 UNK         0.0813 
     96 H96       -54.5988  -30.5313   13.8989 H         1 UNK         0.0638 
     97 H97       -55.6933  -31.6987   13.2060 H         1 UNK         0.0638 
     98 H98       -56.9703  -29.8307   12.1004 H         1 UNK         0.0568 
     99 H99       -57.4020  -27.7810   14.6685 H         1 UNK         0.3450 
    100 H100      -58.4492  -28.8190   15.6053 H         1 UNK         0.3450 
    101 H101      -55.2201  -28.0139   13.6873 H         1 UNK         0.2987 
    102 H102      -54.5688  -26.0152   11.5017 H         1 UNK         0.0766 
    103 H103      -57.2942  -24.7680   12.1394 H         1 UNK         0.0798 
    104 H104      -55.8502  -23.8678   11.6767 H         1 UNK         0.0798 
    105 H105      -56.5935  -24.9799   10.5416 H         1 UNK         0.0798 
    106 H106      -53.9706  -25.5100   13.5507 H         1 UNK         0.3198 
    107 H107      -54.5640  -24.2445   15.7976 H         1 UNK         0.0843 
    108 H108      -56.1772  -26.3653   17.3156 H         1 UNK         0.0831 
    109 H109      -56.6377  -24.6829   17.0966 H         1 UNK         0.0831 
    110 H110      -55.2215  -25.0807   18.0551 H         1 UNK         0.0831 
    111 H111      -52.8517  -25.5817   16.2544 H         1 UNK         0.3133 
    112 H112      -52.3593  -28.4834   17.4019 H         1 UNK         0.0566 
    113 H113      -52.7221  -30.0253   15.4926 H         1 UNK         0.0814 
    114 H114      -51.8472  -28.9218   14.4326 H         1 UNK         0.0814 
    115 H115      -51.0059  -29.7464   15.7393 H         1 UNK         0.0814 
    116 H116      -50.6783  -27.0453   15.4435 H         1 UNK         0.3091 
    117 H117      -49.4494  -24.7902   17.9403 H         1 UNK         0.0702 
    118 H118      -47.3044  -25.6116   17.0050 H         1 UNK         0.0785 
    119 H119      -48.1151  -27.0088   16.2999 H         1 UNK         0.0785 
    120 H120      -48.0162  -26.8338   18.0468 H         1 UNK         0.0785 
    121 H121      -48.8824  -24.8749   15.1848 H         1 UNK         0.2998 
    122 H122      -51.5612  -22.7256   14.0917 H         1 UNK         0.0697 
    123 H123      -48.5098  -22.4956   14.3000 H         1 UNK         0.0825 
    124 H124      -49.6616  -21.3720   15.0125 H         1 UNK         0.0825 
    125 H125      -49.5602  -21.5326   13.2658 H         1 UNK         0.0825 
    126 H126      -49.5199  -24.0127   12.5978 H         1 UNK         0.3029 
    127 H127      -51.4031  -26.9828   11.7841 H         1 UNK         0.0897 
    128 H128      -50.4043  -24.5339   10.2359 H         1 UNK         0.0792 
    129 H129      -51.9805  -25.3033   10.1047 H         1 UNK         0.0792 
    130 H130      -50.5395  -26.1548    9.5654 H         1 UNK         0.0792 
    131 H131      -48.7300  -26.3243   11.1731 H         1 UNK         0.3086 
    132 H132      -47.2065  -27.6534   14.1031 H         1 UNK         0.0583 
    133 H133      -46.0927  -29.1970   12.7019 H         1 UNK         0.1020 
    134 H134      -47.7589  -29.6738   12.7128 H         1 UNK         0.1020 
    135 H135      -47.7672  -30.6200    9.1298 H         1 UNK         0.0694 
    136 H136      -48.0289  -31.0327   10.7989 H         1 UNK         0.0694 
    137 H137      -46.1689  -26.5544   11.6698 H         1 UNK         0.2989 
    138 H138      -45.9007  -23.2111   12.9706 H         1 UNK         0.1055 
    139 H139      -43.9028  -24.6102   13.5584 H         1 UNK         0.0806 
    140 H140      -43.6238  -23.6412   12.1228 H         1 UNK         0.0806 
    141 H141      -43.9566  -25.3659   11.9718 H         1 UNK         0.0806 
    142 H142      -45.4070  -24.0940   10.3436 H         1 UNK         0.3061 
    143 H143      -48.5714  -23.5316    8.9147 H         1 UNK         0.0734 
    144 H144      -46.3186  -21.4572    9.0577 H         1 UNK         0.0832 
    145 H145      -47.5634  -21.5530    7.8101 H         1 UNK         0.0832 
    146 H146      -48.0041  -21.1711    9.4651 H         1 UNK         0.0832 
    147 H147      -45.8895  -23.5750    7.8483 H         1 UNK         0.3156 
    148 H148      -45.3827  -25.1640    6.4558 H         1 UNK         0.0589 
    149 H149      -45.1502  -27.5379    8.3727 H         1 UNK         0.0808 
    150 H150      -44.0885  -27.2610    6.9910 H         1 UNK         0.0808 
    151 H151      -44.1320  -26.1128    8.3205 H         1 UNK         0.0808 
    152 H152      -46.8640  -26.2033    5.1674 H         1 UNK         0.3098 
    153 H153      -47.4561  -28.1848    3.9310 H         1 UNK         0.0720 
    154 H154      -49.0036  -30.1178    3.9962 H         1 UNK         0.0791 
    155 H155      -48.9628  -30.1350    5.7578 H         1 UNK         0.0791 
    156 H156      -47.5117  -30.5007    4.8377 H         1 UNK         0.0791 
    157 H157      -50.0019  -27.9314    5.3964 H         1 UNK         0.3028 
@<TRIPOS>BOND
     1    1    2 1    
     2    1   82 1    
     3    1   83 1    
     4    1   84 1    
     5    2    3 2    
     6    2    4 am   BACKBONE|DICT|INTERRES
     7    4    5 1    
     8    4   85 1    
     9    5    6 1    
    10    5   80 1    
    11    5   86 1    
    12    6    7 1    
    13    6   87 1    
    14    6   88 1    
    15    7    8 1    
    16    8    9 1    
    17    8   89 1    
    18    8   90 1    
    19    9   10 ar   
    20    9   14 ar   
    21   10   11 ar   
    22   10   91 1    
    23   11   12 ar   
    24   11   58 1    
    25   12   13 ar   
    26   12   92 1    
    27   13   14 ar   
    28   13   15 1    
    29   14   93 1    
    30   15   16 1    
    31   15   94 1    
    32   15   95 1    
    33   16   17 1    
    34   17   18 1    
    35   17   96 1    
    36   17   97 1    
    37   18   19 1    
    38   18   22 1    
    39   18   98 1    
    40   19   20 am   BACKBONE|DICT|INTERRES
    41   19   21 2    
    42   20   99 1    
    43   20  100 1    
    44   22   23 am   BACKBONE|DICT|INTERRES
    45   22  101 1    
    46   23   24 2    
    47   23   25 1    
    48   25   26 1    
    49   25   27 1    
    50   25  102 1    
    51   26  103 1    
    52   26  104 1    
    53   26  105 1    
    54   27   28 am   BACKBONE|DICT|INTERRES
    55   27  106 1    
    56   28   29 2    
    57   28   30 1    
    58   30   31 1    
    59   30   32 1    
    60   30  107 1    
    61   31  108 1    
    62   31  109 1    
    63   31  110 1    
    64   32   33 am   BACKBONE|DICT|INTERRES
    65   32  111 1    
    66   33   34 2    
    67   33   35 1    
    68   35   36 1    
    69   35   37 1    
    70   35  112 1    
    71   36  113 1    
    72   36  114 1    
    73   36  115 1    
    74   37   38 am   BACKBONE|DICT|INTERRES
    75   37  116 1    
    76   38   39 2    
    77   38   40 1    
    78   40   41 1    
    79   40   42 1    
    80   40  117 1    
    81   41  118 1    
    82   41  119 1    
    83   41  120 1    
    84   42   43 am   BACKBONE|DICT|INTERRES
    85   42  121 1    
    86   43   44 2    
    87   43   45 1    
    88   45   46 1    
    89   45   47 1    
    90   45  122 1    
    91   46  123 1    
    92   46  124 1    
    93   46  125 1    
    94   47   48 am   BACKBONE|DICT|INTERRES
    95   47  126 1    
    96   48   49 2    
    97   48   50 1    
    98   50   51 1    
    99   50   52 1    
   100   50  127 1    
   101   51  128 1    
   102   51  129 1    
   103   51  130 1    
   104   52   53 am   BACKBONE|DICT|INTERRES
   105   52  131 1    
   106   53   54 2    
   107   53   55 1    
   108   55   56 1    
   109   55   59 1    
   110   55  132 1    
   111   56   57 1    
   112   56  133 1    
   113   56  134 1    
   114   57   58 1    
   115   58  135 1    
   116   58  136 1    
   117   59   60 am   BACKBONE|DICT|INTERRES
   118   59  137 1    
   119   60   61 2    
   120   60   62 1    
   121   62   63 1    
   122   62   64 1    
   123   62  138 1    
   124   63  139 1    
   125   63  140 1    
   126   63  141 1    
   127   64   65 am   BACKBONE|DICT|INTERRES
   128   64  142 1    
   129   65   66 2    
   130   65   67 1    
   131   67   68 1    
   132   67   69 1    
   133   67  143 1    
   134   68  144 1    
   135   68  145 1    
   136   68  146 1    
   137   69   70 am   BACKBONE|DICT|INTERRES
   138   69  147 1    
   139   70   71 2    
   140   70   72 1    
   141   72   73 1    
   142   72   74 1    
   143   72  148 1    
   144   73  149 1    
   145   73  150 1    
   146   73  151 1    
   147   74   75 am   BACKBONE|DICT|INTERRES
   148   74  152 1    
   149   75   76 2    
   150   75   77 1    
   151   77   78 1    
   152   77   79 1    
   153   77  153 1    
   154   78  154 1    
   155   78  155 1    
   156   78  156 1    
   157   79   80 am   BACKBONE|DICT|INTERRES
   158   79  157 1    
   159   80   81 2    
@<TRIPOS>SUBSTRUCTURE
     1 UNK         1 GROUP             0       ****    0 ROOT    
