@<TRIPOS>MOLECULE
3R207
157   159    1
SMALL
USER_CHARGES


@<TRIPOS>ATOM
      1 CA        -52.2262  -32.0071    9.6570 C.3       0 UNK        -0.1975 
      2 C         -50.8736  -31.7871    8.9960 C.2       0 UNK         0.4852 
      3 O         -50.1893  -32.7573    8.6668 O.2       0 UNK        -0.5216 
      4 N         -50.5001  -30.5197    8.7888 N.am      1 UNK        -0.4461 
      5 CA        -49.2322  -30.0812    8.2011 C.3       1 UNK         0.0864 
      6 C6        -49.4581  -29.0476    7.0605 C.3       14 UNK        -0.0898 
      7 S7        -50.4584  -27.6016    7.5545 S.3       14 UNK        -0.2598 
      8 C8        -52.0564  -27.9891    6.7817 C.3       14 UNK         0.0286 
      9 C9        -53.1457  -27.0715    7.3110 C.ar      14 UNK        -0.0844 
     10 C10       -53.3358  -25.8055    6.7495 C.ar      14 UNK        -0.0881 
     11 C11       -54.3313  -24.9528    7.2388 C.ar      14 UNK        -0.0643 
     12 C12       -55.1462  -25.3820    8.2911 C.ar      14 UNK        -0.0930 
     13 C13       -54.9779  -26.6542    8.8457 C.ar      14 UNK        -0.0827 
     14 C14       -53.9712  -27.4917    8.3579 C.ar      14 UNK        -0.1249 
     15 C15       -55.9084  -27.1420    9.9436 C.3       14 UNK         0.0141 
     16 S16       -55.1443  -26.9981   11.5856 S.3       14 UNK        -0.2313 
     17 C17       -56.4834  -27.6674   12.6327 C.3       14 UNK        -0.0915 
     18 CA        -56.2340  -29.1149   13.1329 C.3       13 UNK         0.0968 
     19 C         -56.2881  -30.1613   11.9782 C.2       13 UNK         0.5732 
     20 N         -55.2110  -30.8700   11.6556 N.am      13 UNK        -0.7310 
     21 O         -57.3394  -30.3384   11.3674 O.2       13 UNK        -0.5035 
     22 N         -55.0407  -29.1887   13.9845 N.am      13 UNK        -0.4233 
     23 C         -54.7514  -30.2011   14.8108 C.2       13 UNK         0.4989 
     24 O         -55.5309  -31.1229   15.0600 O.2       13 UNK        -0.4996 
     25 CA        -53.3517  -30.1829   15.4557 C.3       12 UNK         0.0216 
     26 CB        -52.8673  -31.5899   15.8649 C.3       12 UNK        -0.1964 
     27 N         -52.3359  -29.5112   14.6340 N.am      12 UNK        -0.4276 
     28 C         -51.9393  -29.8256   13.3908 C.2       12 UNK         0.5020 
     29 O         -52.4420  -30.7292   12.7220 O.2       12 UNK        -0.5489 
     30 CA        -50.8143  -28.9742   12.7717 C.3       11 UNK         0.0294 
     31 CB        -51.3686  -28.0637   11.6615 C.3       11 UNK        -0.2019 
     32 N         -50.0907  -28.1552   13.7512 N.am      11 UNK        -0.4493 
     33 C         -49.2322  -28.6294   14.6670 C.2       11 UNK         0.4932 
     34 O         -48.9303  -29.8178   14.7730 O.2       11 UNK        -0.5029 
     35 CA        -48.6310  -27.6129   15.6491 C.3       10 UNK         0.0280 
     36 CB        -47.4472  -26.8683   15.0114 C.3       10 UNK        -0.1976 
     37 N         -49.6351  -26.6414   16.0838 N.am      10 UNK        -0.4242 
     38 C         -50.3435  -26.7233   17.2186 C.2       10 UNK         0.5072 
     39 O         -50.2015  -27.6183   18.0526 O.2       10 UNK        -0.5224 
     40 CA        -51.3901  -25.6218   17.4795 C.3       9 UNK         0.0343 
     41 CB        -50.7836  -24.4996   18.3372 C.3       9 UNK        -0.2003 
     42 N         -51.9501  -25.0420   16.2560 N.am      9 UNK        -0.4272 
     43 C         -52.7467  -25.6992   15.4024 C.2       9 UNK         0.4988 
     44 O         -53.1478  -26.8474   15.5877 O.2       9 UNK        -0.5108 
     45 CA        -53.1318  -24.9798   14.0990 C.3       8 UNK         0.0248 
     46 CB        -54.4844  -24.2679   14.2535 C.3       8 UNK        -0.2001 
     47 N         -52.1377  -24.0374   13.5699 N.am      8 UNK        -0.4140 
     48 C         -50.8522  -24.3139   13.3113 C.2       8 UNK         0.5028 
     49 O         -50.3090  -25.3806   13.6026 O.2       8 UNK        -0.5428 
     50 CA        -50.0608  -23.2342   12.5594 C.3       7 UNK         0.0264 
     51 CB        -48.5398  -23.3972   12.7343 C.3       7 UNK        -0.1988 
     52 N         -50.3819  -23.3161   11.1379 N.am      7 UNK        -0.4454 
     53 C         -51.4850  -22.8388   10.5519 C.2       7 UNK         0.5027 
     54 O         -52.3148  -22.1609   11.1633 O.2       7 UNK        -0.5083 
     55 CA        -51.7198  -23.1801    9.0566 C.3       6 UNK         0.0844 
     56 C56       -52.8165  -22.2721    8.4308 C.3       14 UNK        -0.0967 
     57 S57       -53.0647  -22.5383    6.6387 S.3       14 UNK        -0.2604 
     58 C58       -54.5551  -23.5837    6.6089 C.3       14 UNK         0.0134 
     59 N         -50.5096  -23.2054    8.2229 N.am      6 UNK        -0.4116 
     60 C         -49.4894  -24.0711    8.2651 C.2       5 UNK         0.5034 
     61 O         -49.3130  -24.8866    9.1694 O.2       5 UNK        -0.5045 
     62 CA        -48.4976  -24.0417    7.0902 C.3       5 UNK         0.0224 
     63 CB        -49.0475  -23.3756    5.8072 C.3       5 UNK        -0.1978 
     64 N         -47.2104  -23.4624    7.4795 N.am      5 UNK        -0.4737 
     65 C         -46.9679  -22.2193    7.9244 C.2       4 UNK         0.5027 
     66 O         -47.8326  -21.3482    8.0300 O.2       4 UNK        -0.5211 
     67 CA        -45.5016  -21.8861    8.2796 C.3       4 UNK         0.0297 
     68 CB        -45.3813  -20.7744    9.3450 C.3       4 UNK        -0.1993 
     69 N         -44.7082  -23.0704    8.6423 N.am      4 UNK        -0.4486 
     70 C         -44.8963  -23.8662    9.7042 C.2       3 UNK         0.4961 
     71 O         -45.6962  -23.6415   10.6143 O.2       3 UNK        -0.5105 
     72 CA        -44.0506  -25.1499    9.7428 C.3       3 UNK         0.0299 
     73 CB        -42.8658  -24.9913   10.7092 C.3       3 UNK        -0.1972 
     74 N         -44.8649  -26.2951   10.1527 N.am      3 UNK        -0.4305 
     75 C         -45.8950  -26.7885    9.4516 C.2       2 UNK         0.5006 
     76 O         -46.1941  -26.4223    8.3102 O.2       2 UNK        -0.5106 
     77 CA        -46.7290  -27.8640   10.1575 C.3       2 UNK         0.0296 
     78 CB        -47.4902  -27.2764   11.3607 C.3       2 UNK        -0.2002 
     79 N         -47.6715  -28.4470    9.2078 N.am      2 UNK        -0.4032 
     80 C         -48.2802  -29.6315    9.3337 C.2       1 UNK         0.5000 
     81 O         -48.1019  -30.3787   10.2992 O.2       1 UNK        -0.5238 
     82 H82       -52.1004  -32.5434   10.5974 H         1 UNK         0.0889 
     83 H83       -52.8714  -32.5993    9.0089 H         1 UNK         0.0889 
     84 H84       -52.7325  -31.0663    9.8728 H         1 UNK         0.0889 
     85 H85       -51.0942  -29.7681    9.1063 H         1 UNK         0.3028 
     86 H86       -48.7331  -30.9372    7.7423 H         1 UNK         0.0864 
     87 H87       -48.5080  -28.6983    6.6524 H         1 UNK         0.0720 
     88 H88       -49.9526  -29.5449    6.2246 H         1 UNK         0.0720 
     89 H89       -51.9704  -27.8875    5.6988 H         1 UNK         0.0814 
     90 H90       -52.3176  -29.0308    6.9747 H         1 UNK         0.0814 
     91 H91       -52.7028  -25.4783    5.9359 H         1 UNK         0.1469 
     92 H92       -55.9262  -24.7338    8.6667 H         1 UNK         0.1381 
     93 H93       -53.8369  -28.4733    8.7918 H         1 UNK         0.1206 
     94 H94       -56.8413  -26.5764    9.9293 H         1 UNK         0.0813 
     95 H95       -56.1771  -28.1820    9.7543 H         1 UNK         0.0813 
     96 H96       -56.5898  -27.0025   13.4911 H         1 UNK         0.0638 
     97 H97       -57.4351  -27.6052   12.1019 H         1 UNK         0.0638 
     98 H98       -57.0802  -29.3651   13.7754 H         1 UNK         0.0568 
     99 H99       -54.3293  -30.7472   12.1440 H         1 UNK         0.3450 
    100 H100      -55.2809  -31.5478   10.9151 H         1 UNK         0.3450 
    101 H101      -54.3495  -28.4661   13.8468 H         1 UNK         0.2987 
    102 H102      -53.4479  -29.5873   16.3648 H         1 UNK         0.0766 
    103 H103      -51.8818  -31.5497   16.3291 H         1 UNK         0.0798 
    104 H104      -53.5458  -32.0456   16.5870 H         1 UNK         0.0798 
    105 H105      -52.8064  -32.2600   15.0066 H         1 UNK         0.0798 
    106 H106      -51.9295  -28.6840   15.0525 H         1 UNK         0.3198 
    107 H107      -50.1038  -29.6686   12.3173 H         1 UNK         0.0843 
    108 H108      -51.9400  -28.6345   10.9289 H         1 UNK         0.0831 
    109 H109      -50.5671  -27.5579   11.1226 H         1 UNK         0.0831 
    110 H110      -52.0329  -27.2987   12.0613 H         1 UNK         0.0831 
    111 H111      -50.2332  -27.1459   13.6969 H         1 UNK         0.3133 
    112 H112      -48.2499  -28.1663   16.5101 H         1 UNK         0.0566 
    113 H113      -46.9453  -26.2314   15.7397 H         1 UNK         0.0814 
    114 H114      -47.7667  -26.2354   14.1833 H         1 UNK         0.0814 
    115 H115      -46.7047  -27.5682   14.6257 H         1 UNK         0.0814 
    116 H116      -49.8654  -25.9131   15.4141 H         1 UNK         0.3091 
    117 H117      -52.2093  -26.0757   18.0414 H         1 UNK         0.0702 
    118 H118      -51.5323  -23.7522   18.6007 H         1 UNK         0.0785 
    119 H119      -49.9674  -23.9922   17.8213 H         1 UNK         0.0785 
    120 H120      -50.3822  -24.8963   19.2709 H         1 UNK         0.0785 
    121 H121      -51.6715  -24.1000   16.0237 H         1 UNK         0.2998 
    122 H122      -53.2466  -25.7564   13.3443 H         1 UNK         0.0697 
    123 H123      -54.4255  -23.4353   14.9553 H         1 UNK         0.0825 
    124 H124      -55.2473  -24.9550   14.6229 H         1 UNK         0.0825 
    125 H125      -54.8393  -23.8810   13.2979 H         1 UNK         0.0825 
    126 H126      -52.4955  -23.1524   13.2327 H         1 UNK         0.3029 
    127 H127      -50.3480  -22.2546   12.9475 H         1 UNK         0.0897 
    128 H128      -47.9956  -22.5947   12.2358 H         1 UNK         0.0792 
    129 H129      -48.2612  -23.3751   13.7885 H         1 UNK         0.0792 
    130 H130      -48.1817  -24.3412   12.3211 H         1 UNK         0.0792 
    131 H131      -49.7927  -23.9257   10.5712 H         1 UNK         0.3086 
    132 H132      -52.1079  -24.2007    9.0538 H         1 UNK         0.0583 
    133 H133      -53.7680  -22.4138    8.9472 H         1 UNK         0.1020 
    134 H134      -52.5571  -21.2205    8.5689 H         1 UNK         0.1020 
    135 H135      -55.3711  -23.0522    7.1010 H         1 UNK         0.0694 
    136 H136      -54.8626  -23.7232    5.5717 H         1 UNK         0.0694 
    137 H137      -50.5193  -22.5502    7.4554 H         1 UNK         0.2989 
    138 H138      -48.3004  -25.0885    6.8510 H         1 UNK         0.1055 
    139 H139      -48.3548  -23.5050    4.9756 H         1 UNK         0.0806 
    140 H140      -49.2163  -22.3052    5.9274 H         1 UNK         0.0806 
    141 H141      -49.9937  -23.8281    5.5057 H         1 UNK         0.0806 
    142 H142      -46.4437  -24.1225    7.5041 H         1 UNK         0.3061 
    143 H143      -45.0576  -21.5009    7.3604 H         1 UNK         0.0734 
    144 H144      -45.8230  -19.8434    8.9878 H         1 UNK         0.0832 
    145 H145      -45.8955  -21.0391   10.2693 H         1 UNK         0.0832 
    146 H146      -44.3395  -20.5651    9.5868 H         1 UNK         0.0832 
    147 H147      -44.0117  -23.3463    7.9625 H         1 UNK         0.3156 
    148 H148      -43.6599  -25.3554    8.7439 H         1 UNK         0.0589 
    149 H149      -43.2001  -24.7951   11.7290 H         1 UNK         0.0808 
    150 H150      -42.2423  -25.8854   10.7252 H         1 UNK         0.0808 
    151 H151      -42.2282  -24.1581   10.4105 H         1 UNK         0.0808 
    152 H152      -44.7111  -26.6389   11.0891 H         1 UNK         0.3098 
    153 H153      -46.0450  -28.6422   10.5023 H         1 UNK         0.0720 
    154 H154      -48.0067  -28.0580   11.9150 H         1 UNK         0.0791 
    155 H155      -46.8149  -26.7807   12.0574 H         1 UNK         0.0791 
    156 H156      -48.2323  -26.5411   11.0473 H         1 UNK         0.0791 
    157 H157      -47.8458  -27.8706    8.3929 H         1 UNK         0.3028 
@<TRIPOS>BOND
     1    1    2 1    
     2    1   82 1    
     3    1   83 1    
     4    1   84 1    
     5    2    3 2    
     6    2    4 am   BACKBONE|DICT|INTERRES
     7    4    5 1    
     8    4   85 1    
     9    5    6 1    
    10    5   80 1    
    11    5   86 1    
    12    6    7 1    
    13    6   87 1    
    14    6   88 1    
    15    7    8 1    
    16    8    9 1    
    17    8   89 1    
    18    8   90 1    
    19    9   10 ar   
    20    9   14 ar   
    21   10   11 ar   
    22   10   91 1    
    23   11   12 ar   
    24   11   58 1    
    25   12   13 ar   
    26   12   92 1    
    27   13   14 ar   
    28   13   15 1    
    29   14   93 1    
    30   15   16 1    
    31   15   94 1    
    32   15   95 1    
    33   16   17 1    
    34   17   18 1    
    35   17   96 1    
    36   17   97 1    
    37   18   19 1    
    38   18   22 1    
    39   18   98 1    
    40   19   20 am   BACKBONE|DICT|INTERRES
    41   19   21 2    
    42   20   99 1    
    43   20  100 1    
    44   22   23 am   BACKBONE|DICT|INTERRES
    45   22  101 1    
    46   23   24 2    
    47   23   25 1    
    48   25   26 1    
    49   25   27 1    
    50   25  102 1    
    51   26  103 1    
    52   26  104 1    
    53   26  105 1    
    54   27   28 am   BACKBONE|DICT|INTERRES
    55   27  106 1    
    56   28   29 2    
    57   28   30 1    
    58   30   31 1    
    59   30   32 1    
    60   30  107 1    
    61   31  108 1    
    62   31  109 1    
    63   31  110 1    
    64   32   33 am   BACKBONE|DICT|INTERRES
    65   32  111 1    
    66   33   34 2    
    67   33   35 1    
    68   35   36 1    
    69   35   37 1    
    70   35  112 1    
    71   36  113 1    
    72   36  114 1    
    73   36  115 1    
    74   37   38 am   BACKBONE|DICT|INTERRES
    75   37  116 1    
    76   38   39 2    
    77   38   40 1    
    78   40   41 1    
    79   40   42 1    
    80   40  117 1    
    81   41  118 1    
    82   41  119 1    
    83   41  120 1    
    84   42   43 am   BACKBONE|DICT|INTERRES
    85   42  121 1    
    86   43   44 2    
    87   43   45 1    
    88   45   46 1    
    89   45   47 1    
    90   45  122 1    
    91   46  123 1    
    92   46  124 1    
    93   46  125 1    
    94   47   48 am   BACKBONE|DICT|INTERRES
    95   47  126 1    
    96   48   49 2    
    97   48   50 1    
    98   50   51 1    
    99   50   52 1    
   100   50  127 1    
   101   51  128 1    
   102   51  129 1    
   103   51  130 1    
   104   52   53 am   BACKBONE|DICT|INTERRES
   105   52  131 1    
   106   53   54 2    
   107   53   55 1    
   108   55   56 1    
   109   55   59 1    
   110   55  132 1    
   111   56   57 1    
   112   56  133 1    
   113   56  134 1    
   114   57   58 1    
   115   58  135 1    
   116   58  136 1    
   117   59   60 am   BACKBONE|DICT|INTERRES
   118   59  137 1    
   119   60   61 2    
   120   60   62 1    
   121   62   63 1    
   122   62   64 1    
   123   62  138 1    
   124   63  139 1    
   125   63  140 1    
   126   63  141 1    
   127   64   65 am   BACKBONE|DICT|INTERRES
   128   64  142 1    
   129   65   66 2    
   130   65   67 1    
   131   67   68 1    
   132   67   69 1    
   133   67  143 1    
   134   68  144 1    
   135   68  145 1    
   136   68  146 1    
   137   69   70 am   BACKBONE|DICT|INTERRES
   138   69  147 1    
   139   70   71 2    
   140   70   72 1    
   141   72   73 1    
   142   72   74 1    
   143   72  148 1    
   144   73  149 1    
   145   73  150 1    
   146   73  151 1    
   147   74   75 am   BACKBONE|DICT|INTERRES
   148   74  152 1    
   149   75   76 2    
   150   75   77 1    
   151   77   78 1    
   152   77   79 1    
   153   77  153 1    
   154   78  154 1    
   155   78  155 1    
   156   78  156 1    
   157   79   80 am   BACKBONE|DICT|INTERRES
   158   79  157 1    
   159   80   81 2    
@<TRIPOS>SUBSTRUCTURE
     1 UNK         1 GROUP             0       ****    0 ROOT    
