@<TRIPOS>MOLECULE
3R207
157   159    1
SMALL
USER_CHARGES


@<TRIPOS>ATOM
      1 CA        -46.4379  -31.7437    2.8449 C.3       0 UNK        -0.1975 
      2 C         -47.4419  -30.6095    2.9902 C.2       0 UNK         0.4852 
      3 O         -47.3934  -29.6497    2.2201 O.2       0 UNK        -0.5216 
      4 N         -48.3526  -30.7172    3.9680 N.am      1 UNK        -0.4461 
      5 CA        -49.3791  -29.7158    4.2812 C.3       1 UNK         0.0864 
      6 C6        -50.4255  -30.2890    5.2707 C.3       14 UNK        -0.0898 
      7 S7        -51.9138  -29.2428    5.4526 S.3       14 UNK        -0.2598 
      8 C8        -53.1318  -30.4406    6.0947 C.3       14 UNK         0.0286 
      9 C9        -53.3052  -30.4011    7.6123 C.ar      14 UNK        -0.0844 
     10 C10       -52.2074  -30.3623    8.4805 C.ar      14 UNK        -0.0881 
     11 C11       -52.3857  -30.3697    9.8683 C.ar      14 UNK        -0.0643 
     12 C12       -53.6826  -30.4346   10.3893 C.ar      14 UNK        -0.0930 
     13 C13       -54.7903  -30.4857    9.5359 C.ar      14 UNK        -0.0827 
     14 C14       -54.5930  -30.4627    8.1523 C.ar      14 UNK        -0.1249 
     15 C15       -56.2030  -30.5941   10.0989 C.3       14 UNK         0.0141 
     16 S16       -56.7712  -29.0617   10.9043 S.3       14 UNK        -0.2313 
     17 C17       -56.5718  -27.8253    9.5772 C.3       14 UNK        -0.0915 
     18 CA        -55.2324  -27.0389    9.6660 C.3       13 UNK         0.0968 
     19 C         -55.0134  -26.1774    8.3996 C.2       13 UNK         0.5732 
     20 N         -54.5774  -26.7886    7.3068 N.am      13 UNK        -0.7310 
     21 O         -55.2608  -24.9723    8.3886 O.2       13 UNK        -0.5035 
     22 N         -55.1411  -26.2093   10.8762 N.am      13 UNK        -0.4233 
     23 C         -54.5343  -26.5760   12.0095 C.2       13 UNK         0.4989 
     24 O         -54.0061  -27.6764   12.1690 O.2       13 UNK        -0.4996 
     25 CA        -54.4615  -25.5251   13.1357 C.3       12 UNK         0.0216 
     26 CB        -55.8156  -24.8330   13.4069 C.3       12 UNK        -0.1964 
     27 N         -53.8851  -26.0855   14.3678 N.am      12 UNK        -0.4276 
     28 C         -54.4111  -27.0283   15.1684 C.2       12 UNK         0.5020 
     29 O         -55.5623  -27.4589   15.0858 O.2       12 UNK        -0.5489 
     30 CA        -53.4808  -27.5956   16.2525 C.3       11 UNK         0.0294 
     31 CB        -52.6652  -28.7757   15.6966 C.3       11 UNK        -0.2019 
     32 N         -52.5679  -26.5733   16.7643 N.am      11 UNK        -0.4493 
     33 C         -52.8644  -25.7267   17.7594 C.2       11 UNK         0.4932 
     34 O         -53.9162  -25.7753   18.3993 O.2       11 UNK        -0.5029 
     35 CA        -51.8391  -24.6206   18.0770 C.3       10 UNK         0.0280 
     36 CB        -51.8041  -24.2480   19.5749 C.3       10 UNK        -0.1976 
     37 N         -50.4920  -24.8868   17.5571 N.am      10 UNK        -0.4242 
     38 C         -49.6282  -25.8378   17.9499 C.2       10 UNK         0.5072 
     39 O         -49.8619  -26.6379   18.8567 O.2       10 UNK        -0.5224 
     40 CA        -48.2813  -25.9461   17.2031 C.3       9 UNK         0.0343 
     41 CB        -48.1615  -27.3128   16.5064 C.3       9 UNK        -0.2003 
     42 N         -48.0607  -24.8928   16.2088 N.am      9 UNK        -0.4272 
     43 C         -47.7658  -23.6142   16.4807 C.2       9 UNK         0.4988 
     44 O         -47.5518  -23.1867   17.6153 O.2       9 UNK        -0.5108 
     45 CA        -47.7616  -22.6366   15.2904 C.3       8 UNK         0.0248 
     46 CB        -46.3709  -22.5860   14.6391 C.3       8 UNK        -0.2001 
     47 N         -48.7816  -22.9433   14.2767 N.am      8 UNK        -0.4140 
     48 C         -50.1035  -22.9521   14.5113 C.2       8 UNK         0.5028 
     49 O         -50.6013  -22.6763   15.6021 O.2       8 UNK        -0.5428 
     50 CA        -51.0309  -23.3929   13.3681 C.3       7 UNK         0.0264 
     51 CB        -51.2224  -22.2673   12.3406 C.3       7 UNK        -0.1988 
     52 N         -50.5649  -24.6091   12.6995 N.am      7 UNK        -0.4454 
     53 C         -50.4928  -25.8200   13.2719 C.2       7 UNK         0.5027 
     54 O         -50.9189  -26.0552   14.4048 O.2       7 UNK        -0.5083 
     55 CA        -49.8006  -26.9414   12.4630 C.3       6 UNK         0.0844 
     56 C56       -50.8024  -27.6462   11.5153 C.3       14 UNK        -0.0967 
     57 S57       -50.0419  -28.9761   10.5233 S.3       14 UNK        -0.2604 
     58 C58       -51.1748  -30.3812   10.7977 C.3       14 UNK         0.0134 
     59 N         -48.6065  -26.4458   11.7683 N.am      6 UNK        -0.4116 
     60 C         -47.5201  -25.9531   12.3811 C.2       5 UNK         0.5034 
     61 O         -47.3781  -25.9180   13.6021 O.2       5 UNK        -0.5045 
     62 CA        -46.4359  -25.3366   11.4866 C.3       5 UNK         0.0224 
     63 CB        -45.4718  -26.4119   10.9602 C.3       5 UNK        -0.1978 
     64 N         -47.0258  -24.5882   10.3745 N.am      5 UNK        -0.4737 
     65 C         -47.6301  -23.3994   10.5165 C.2       4 UNK         0.5027 
     66 O         -47.6945  -22.7955   11.5863 O.2       4 UNK        -0.5211 
     67 CA        -48.3137  -22.8004    9.2749 C.3       4 UNK         0.0297 
     68 CB        -47.3059  -21.9900    8.4453 C.3       4 UNK        -0.1993 
     69 N         -48.9479  -23.8111    8.4261 N.am      4 UNK        -0.4486 
     70 C         -49.9774  -24.5839    8.8006 C.2       3 UNK         0.4961 
     71 O         -50.5514  -24.4802    9.8830 O.2       3 UNK        -0.5105 
     72 CA        -50.4062  -25.6953    7.8280 C.3       3 UNK         0.0299 
     73 CB        -51.4997  -25.1850    6.8789 C.3       3 UNK        -0.1972 
     74 N         -49.3073  -26.2624    7.0396 N.am      3 UNK        -0.4305 
     75 C         -48.1900  -26.8163    7.5293 C.2       2 UNK         0.5006 
     76 O         -47.9248  -26.8567    8.7309 O.2       2 UNK        -0.5106 
     77 CA        -47.2128  -27.4192    6.4995 C.3       2 UNK         0.0296 
     78 CB        -45.9035  -27.9077    7.1475 C.3       2 UNK        -0.2002 
     79 N         -47.8247  -28.5295    5.7658 N.am      2 UNK        -0.4032 
     80 C         -48.7608  -28.4062    4.8132 C.2       1 UNK         0.5000 
     81 O         -49.1461  -27.3195    4.3739 O.2       1 UNK        -0.5238 
     82 H82       -46.5163  -32.1891    1.8535 H         1 UNK         0.0889 
     83 H83       -46.5988  -32.5294    3.5828 H         1 UNK         0.0889 
     84 H84       -45.4238  -31.3647    2.9691 H         1 UNK         0.0889 
     85 H85       -48.3463  -31.5406    4.5535 H         1 UNK         0.3028 
     86 H86       -49.8916  -29.4769    3.3465 H         1 UNK         0.0864 
     87 H87       -50.7484  -31.2684    4.9142 H         1 UNK         0.0720 
     88 H88       -49.9773  -30.4593    6.2500 H         1 UNK         0.0720 
     89 H89       -52.8686  -31.4549    5.7936 H         1 UNK         0.0814 
     90 H90       -54.0836  -30.2238    5.6071 H         1 UNK         0.0814 
     91 H91       -51.2041  -30.3329    8.0849 H         1 UNK         0.1469 
     92 H92       -53.8350  -30.4473   11.4601 H         1 UNK         0.1381 
     93 H93       -55.4487  -30.5125    7.4925 H         1 UNK         0.1206 
     94 H94       -56.2358  -31.4051   10.8276 H         1 UNK         0.0813 
     95 H95       -56.9126  -30.8637    9.3151 H         1 UNK         0.0813 
     96 H96       -57.4161  -27.1359    9.6295 H         1 UNK         0.0638 
     97 H97       -56.6624  -28.3362    8.6170 H         1 UNK         0.0638 
     98 H98       -54.4060  -27.7509    9.6763 H         1 UNK         0.0568 
     99 H99       -54.4494  -26.2512    6.4649 H         1 UNK         0.3450 
    100 H100      -54.3620  -27.7734    7.3129 H         1 UNK         0.3450 
    101 H101      -55.5019  -25.2712   10.7733 H         1 UNK         0.2987 
    102 H102      -53.7610  -24.7638   12.7928 H         1 UNK         0.0766 
    103 H103      -55.7563  -24.1741   14.2733 H         1 UNK         0.0798 
    104 H104      -56.6118  -25.5552   13.5908 H         1 UNK         0.0798 
    105 H105      -56.1251  -24.2187   12.5611 H         1 UNK         0.0798 
    106 H106      -52.9001  -25.8875   14.5086 H         1 UNK         0.3198 
    107 H107      -54.1022  -27.9701   17.0691 H         1 UNK         0.0843 
    108 H108      -52.0379  -28.4786   14.8555 H         1 UNK         0.0831 
    109 H109      -53.3251  -29.5685   15.3417 H         1 UNK         0.0831 
    110 H110      -52.0196  -29.2075   16.4614 H         1 UNK         0.0831 
    111 H111      -51.7045  -26.4353   16.2491 H         1 UNK         0.3133 
    112 H112      -52.1890  -23.7397   17.5376 H         1 UNK         0.0566 
    113 H113      -51.0756  -23.4613   19.7710 H         1 UNK         0.0814 
    114 H114      -52.7745  -23.8784   19.9086 H         1 UNK         0.0814 
    115 H115      -51.5529  -25.1039   20.2017 H         1 UNK         0.0814 
    116 H116      -50.2134  -24.2721   16.7986 H         1 UNK         0.3091 
    117 H117      -47.4916  -25.8760   17.9538 H         1 UNK         0.0702 
    118 H118      -47.1915  -27.4273   16.0222 H         1 UNK         0.0785 
    119 H119      -48.9320  -27.4458   15.7464 H         1 UNK         0.0785 
    120 H120      -48.2634  -28.1305   17.2212 H         1 UNK         0.0785 
    121 H121      -48.1249  -25.1738   15.2341 H         1 UNK         0.2998 
    122 H122      -47.9861  -21.6430   15.6836 H         1 UNK         0.0697 
    123 H123      -46.0833  -23.5535   14.2285 H         1 UNK         0.0825 
    124 H124      -45.6098  -22.3029   15.3674 H         1 UNK         0.0825 
    125 H125      -46.3352  -21.8537   13.8324 H         1 UNK         0.0825 
    126 H126      -48.4477  -23.1186   13.3320 H         1 UNK         0.3029 
    127 H127      -52.0039  -23.6068   13.8131 H         1 UNK         0.0897 
    128 H128      -51.9371  -22.5538   11.5687 H         1 UNK         0.0792 
    129 H129      -51.6046  -21.3641   12.8181 H         1 UNK         0.0792 
    130 H130      -50.2870  -22.0044   11.8470 H         1 UNK         0.0792 
    131 H131      -50.2917  -24.5157   11.7228 H         1 UNK         0.3086 
    132 H132      -49.4570  -27.6844   13.1858 H         1 UNK         0.0583 
    133 H133      -51.5997  -28.0840   12.1132 H         1 UNK         0.1020 
    134 H134      -51.2798  -26.9366   10.8375 H         1 UNK         0.1020 
    135 H135      -50.6210  -31.3041   10.6210 H         1 UNK         0.0694 
    136 H136      -51.4796  -30.4092   11.8449 H         1 UNK         0.0694 
    137 H137      -48.6164  -26.4859   10.7553 H         1 UNK         0.2989 
    138 H138      -45.8566  -24.6399   12.0961 H         1 UNK         0.1055 
    139 H139      -44.9563  -26.9035   11.7863 H         1 UNK         0.0806 
    140 H140      -44.7081  -25.9797   10.3137 H         1 UNK         0.0806 
    141 H141      -45.9883  -27.1892   10.3974 H         1 UNK         0.0806 
    142 H142      -47.1012  -25.0781    9.4909 H         1 UNK         0.3061 
    143 H143      -49.0942  -22.1207    9.6231 H         1 UNK         0.0734 
    144 H144      -47.7915  -21.4903    7.6069 H         1 UNK         0.0832 
    145 H145      -46.8364  -21.2152    9.0534 H         1 UNK         0.0832 
    146 H146      -46.5084  -22.6189    8.0476 H         1 UNK         0.0832 
    147 H147      -48.5423  -23.9681    7.5151 H         1 UNK         0.3156 
    148 H148      -50.8256  -26.5082    8.4242 H         1 UNK         0.0589 
    149 H149      -51.1280  -24.4026    6.2162 H         1 UNK         0.0808 
    150 H150      -51.8920  -25.9919    6.2595 H         1 UNK         0.0808 
    151 H151      -52.3383  -24.7678    7.4384 H         1 UNK         0.0808 
    152 H152      -49.4468  -26.3246    6.0346 H         1 UNK         0.3098 
    153 H153      -46.9582  -26.6291    5.7899 H         1 UNK         0.0720 
    154 H154      -45.2065  -28.2856    6.3992 H         1 UNK         0.0791 
    155 H155      -46.0827  -28.7027    7.8727 H         1 UNK         0.0791 
    156 H156      -45.4015  -27.0948    7.6740 H         1 UNK         0.0791 
    157 H157      -47.5758  -29.4588    6.0713 H         1 UNK         0.3028 
@<TRIPOS>BOND
     1    1    2 1    
     2    1   82 1    
     3    1   83 1    
     4    1   84 1    
     5    2    3 2    
     6    2    4 am   BACKBONE|DICT|INTERRES
     7    4    5 1    
     8    4   85 1    
     9    5    6 1    
    10    5   80 1    
    11    5   86 1    
    12    6    7 1    
    13    6   87 1    
    14    6   88 1    
    15    7    8 1    
    16    8    9 1    
    17    8   89 1    
    18    8   90 1    
    19    9   10 ar   
    20    9   14 ar   
    21   10   11 ar   
    22   10   91 1    
    23   11   12 ar   
    24   11   58 1    
    25   12   13 ar   
    26   12   92 1    
    27   13   14 ar   
    28   13   15 1    
    29   14   93 1    
    30   15   16 1    
    31   15   94 1    
    32   15   95 1    
    33   16   17 1    
    34   17   18 1    
    35   17   96 1    
    36   17   97 1    
    37   18   19 1    
    38   18   22 1    
    39   18   98 1    
    40   19   20 am   BACKBONE|DICT|INTERRES
    41   19   21 2    
    42   20   99 1    
    43   20  100 1    
    44   22   23 am   BACKBONE|DICT|INTERRES
    45   22  101 1    
    46   23   24 2    
    47   23   25 1    
    48   25   26 1    
    49   25   27 1    
    50   25  102 1    
    51   26  103 1    
    52   26  104 1    
    53   26  105 1    
    54   27   28 am   BACKBONE|DICT|INTERRES
    55   27  106 1    
    56   28   29 2    
    57   28   30 1    
    58   30   31 1    
    59   30   32 1    
    60   30  107 1    
    61   31  108 1    
    62   31  109 1    
    63   31  110 1    
    64   32   33 am   BACKBONE|DICT|INTERRES
    65   32  111 1    
    66   33   34 2    
    67   33   35 1    
    68   35   36 1    
    69   35   37 1    
    70   35  112 1    
    71   36  113 1    
    72   36  114 1    
    73   36  115 1    
    74   37   38 am   BACKBONE|DICT|INTERRES
    75   37  116 1    
    76   38   39 2    
    77   38   40 1    
    78   40   41 1    
    79   40   42 1    
    80   40  117 1    
    81   41  118 1    
    82   41  119 1    
    83   41  120 1    
    84   42   43 am   BACKBONE|DICT|INTERRES
    85   42  121 1    
    86   43   44 2    
    87   43   45 1    
    88   45   46 1    
    89   45   47 1    
    90   45  122 1    
    91   46  123 1    
    92   46  124 1    
    93   46  125 1    
    94   47   48 am   BACKBONE|DICT|INTERRES
    95   47  126 1    
    96   48   49 2    
    97   48   50 1    
    98   50   51 1    
    99   50   52 1    
   100   50  127 1    
   101   51  128 1    
   102   51  129 1    
   103   51  130 1    
   104   52   53 am   BACKBONE|DICT|INTERRES
   105   52  131 1    
   106   53   54 2    
   107   53   55 1    
   108   55   56 1    
   109   55   59 1    
   110   55  132 1    
   111   56   57 1    
   112   56  133 1    
   113   56  134 1    
   114   57   58 1    
   115   58  135 1    
   116   58  136 1    
   117   59   60 am   BACKBONE|DICT|INTERRES
   118   59  137 1    
   119   60   61 2    
   120   60   62 1    
   121   62   63 1    
   122   62   64 1    
   123   62  138 1    
   124   63  139 1    
   125   63  140 1    
   126   63  141 1    
   127   64   65 am   BACKBONE|DICT|INTERRES
   128   64  142 1    
   129   65   66 2    
   130   65   67 1    
   131   67   68 1    
   132   67   69 1    
   133   67  143 1    
   134   68  144 1    
   135   68  145 1    
   136   68  146 1    
   137   69   70 am   BACKBONE|DICT|INTERRES
   138   69  147 1    
   139   70   71 2    
   140   70   72 1    
   141   72   73 1    
   142   72   74 1    
   143   72  148 1    
   144   73  149 1    
   145   73  150 1    
   146   73  151 1    
   147   74   75 am   BACKBONE|DICT|INTERRES
   148   74  152 1    
   149   75   76 2    
   150   75   77 1    
   151   77   78 1    
   152   77   79 1    
   153   77  153 1    
   154   78  154 1    
   155   78  155 1    
   156   78  156 1    
   157   79   80 am   BACKBONE|DICT|INTERRES
   158   79  157 1    
   159   80   81 2    
@<TRIPOS>SUBSTRUCTURE
     1 UNK         1 GROUP             0       ****    0 ROOT    
