@<TRIPOS>MOLECULE
3R207
157   159    1
SMALL
USER_CHARGES


@<TRIPOS>ATOM
      1 CA        -49.7354  -26.6406    9.1920 C.3       0 UNK        -0.1975 
      2 C         -49.9466  -26.8131    7.6959 C.2       0 UNK         0.4852 
      3 O         -49.9750  -25.8164    6.9748 O.2       0 UNK        -0.5216 
      4 N         -50.0968  -28.0700    7.2499 N.am      1 UNK        -0.4461 
      5 CA        -50.3057  -28.5233    5.8677 C.3       1 UNK         0.0864 
      6 C6        -51.6085  -27.9898    5.2134 C.3       14 UNK        -0.0898 
      7 S7        -53.0812  -28.7705    5.9512 S.3       14 UNK        -0.2598 
      8 C8        -54.2988  -27.4171    5.8990 C.3       14 UNK         0.0286 
      9 C9        -54.1496  -26.4358    7.0551 C.ar      14 UNK        -0.0844 
     10 C10       -53.9870  -25.0685    6.8071 C.ar      14 UNK        -0.0881 
     11 C11       -53.9331  -24.1537    7.8649 C.ar      14 UNK        -0.0643 
     12 C12       -54.0225  -24.6216    9.1792 C.ar      14 UNK        -0.0930 
     13 C13       -54.1541  -25.9879    9.4411 C.ar      14 UNK        -0.0827 
     14 C14       -54.2335  -26.8877    8.3759 C.ar      14 UNK        -0.1249 
     15 C15       -54.2121  -26.4854   10.8757 C.3       14 UNK         0.0141 
     16 S16       -52.5769  -27.0547   11.4299 S.3       14 UNK        -0.2313 
     17 C17       -52.6046  -28.8218   10.9765 C.3       14 UNK        -0.0915 
     18 CA        -52.2360  -29.7775   12.1475 C.3       13 UNK         0.0968 
     19 C         -50.7209  -29.8478   12.4868 C.2       13 UNK         0.5732 
     20 N         -50.3443  -30.1672   13.7205 N.am      13 UNK        -0.7310 
     21 O         -49.8722  -29.6498   11.6214 O.2       13 UNK        -0.5035 
     22 N         -53.0739  -29.5715   13.3389 N.am      13 UNK        -0.4233 
     23 C         -54.1919  -30.2512   13.6147 C.2       13 UNK         0.4989 
     24 O         -54.6879  -31.0800   12.8487 O.2       13 UNK        -0.4996 
     25 CA        -54.8806  -29.9641   14.9664 C.3       12 UNK         0.0216 
     26 CB        -55.7299  -31.1547   15.4608 C.3       12 UNK        -0.1964 
     27 N         -53.9794  -29.5086   16.0344 N.am      12 UNK        -0.4276 
     28 C         -52.9025  -30.1401   16.5328 C.2       12 UNK         0.5020 
     29 O         -52.4848  -31.2152   16.1000 O.2       12 UNK        -0.5489 
     30 CA        -52.1440  -29.4511   17.6861 C.3       11 UNK         0.0294 
     31 CB        -50.6189  -29.5958   17.5277 C.3       11 UNK        -0.2019 
     32 N         -52.4696  -28.0269   17.7559 N.am      11 UNK        -0.4493 
     33 C         -53.1789  -27.4246   18.7200 C.2       11 UNK         0.4932 
     34 O         -53.5768  -27.9952   19.7356 O.2       11 UNK        -0.5029 
     35 CA        -53.5298  -25.9359   18.5108 C.3       10 UNK         0.0280 
     36 CB        -52.5584  -25.0423   19.2982 C.3       10 UNK        -0.1976 
     37 N         -53.5309  -25.5161   17.1050 N.am      10 UNK        -0.4242 
     38 C         -54.3355  -26.0082   16.1503 C.2       10 UNK         0.5072 
     39 O         -55.2365  -26.8181   16.3683 O.2       10 UNK        -0.5224 
     40 CA        -54.0318  -25.5984   14.6975 C.3       9 UNK         0.0343 
     41 CB        -54.8746  -24.3730   14.3111 C.3       9 UNK        -0.2003 
     42 N         -52.6124  -25.3171   14.4470 N.am      9 UNK        -0.4272 
     43 C         -51.5920  -26.1591   14.6869 C.2       9 UNK         0.4988 
     44 O         -51.7634  -27.3215   15.0580 O.2       9 UNK        -0.5108 
     45 CA        -50.1472  -25.6367   14.5329 C.3       8 UNK         0.0248 
     46 CB        -49.3411  -26.5163   13.5637 C.3       8 UNK        -0.2001 
     47 N         -50.0481  -24.2381   14.1074 N.am      8 UNK        -0.4140 
     48 C         -50.3979  -23.1699   14.8422 C.2       8 UNK         0.5028 
     49 O         -50.7715  -23.2474   16.0135 O.2       8 UNK        -0.5428 
     50 CA        -50.3913  -21.7918   14.1464 C.3       7 UNK         0.0264 
     51 CB        -49.1337  -21.0000   14.5389 C.3       7 UNK        -0.1988 
     52 N         -50.4756  -21.8607   12.6826 N.am      7 UNK        -0.4454 
     53 C         -51.4740  -22.4237   11.9832 C.2       7 UNK         0.5027 
     54 O         -52.5120  -22.8317   12.5041 O.2       7 UNK        -0.5083 
     55 CA        -51.2668  -22.6270   10.4637 C.3       6 UNK         0.0844 
     56 C56       -52.1618  -21.6545    9.6584 C.3       14 UNK        -0.0967 
     57 S57       -52.1462  -22.0107    7.8656 S.3       14 UNK        -0.2604 
     58 C58       -53.8256  -22.6602    7.5825 C.3       14 UNK         0.0134 
     59 N         -49.8647  -22.5709   10.0219 N.am      6 UNK        -0.4116 
     60 C         -48.8725  -23.3578   10.4566 C.2       5 UNK         0.5034 
     61 O         -48.9953  -24.1815   11.3674 O.2       5 UNK        -0.5045 
     62 CA        -47.5041  -23.1593    9.7993 C.3       5 UNK         0.0224 
     63 CB        -46.8426  -21.8521   10.2748 C.3       5 UNK        -0.1978 
     64 N         -46.6597  -24.2948   10.1547 N.am      5 UNK        -0.4737 
     65 C         -45.6559  -24.7815    9.4219 C.2       4 UNK         0.5027 
     66 O         -45.2798  -24.2731    8.3634 O.2       4 UNK        -0.5211 
     67 CA        -44.9212  -26.0254    9.9630 C.3       4 UNK         0.0297 
     68 CB        -45.6518  -26.7520   11.1190 C.3       4 UNK        -0.1993 
     69 N         -44.5780  -26.9497    8.8757 N.am      4 UNK        -0.4486 
     70 C         -45.4330  -27.6392    8.1086 C.2       3 UNK         0.4961 
     71 O         -46.6528  -27.6894    8.2884 O.2       3 UNK        -0.5105 
     72 CA        -44.8114  -28.4156    6.9420 C.3       3 UNK         0.0299 
     73 CB        -44.0601  -29.6669    7.4325 C.3       3 UNK        -0.1972 
     74 N         -45.8839  -28.8135    6.0378 N.am      3 UNK        -0.4305 
     75 C         -45.7949  -28.9414    4.7103 C.2       2 UNK         0.5006 
     76 O         -44.7536  -28.7598    4.0773 O.2       2 UNK        -0.5106 
     77 CA        -47.0678  -29.3610    3.9505 C.3       2 UNK         0.0296 
     78 CB        -46.8943  -30.7681    3.3520 C.3       2 UNK        -0.2002 
     79 N         -48.2759  -29.3511    4.7839 N.am      2 UNK        -0.4032 
     80 C         -49.0613  -28.2831    4.9852 C.2       1 UNK         0.5000 
     81 O         -48.8449  -27.1763    4.4871 O.2       1 UNK        -0.5238 
     82 H82       -49.8390  -27.5795    9.7348 H         1 UNK         0.0889 
     83 H83       -48.7372  -26.2506    9.3847 H         1 UNK         0.0889 
     84 H84       -50.4629  -25.9357    9.5934 H         1 UNK         0.0889 
     85 H85       -50.0430  -28.8170    7.9277 H         1 UNK         0.3028 
     86 H86       -50.4195  -29.6064    5.9419 H         1 UNK         0.0864 
     87 H87       -51.6760  -26.9039    5.2937 H         1 UNK         0.0720 
     88 H88       -51.6279  -28.2166    4.1457 H         1 UNK         0.0720 
     89 H89       -55.2986  -27.8507    5.9449 H         1 UNK         0.0814 
     90 H90       -54.2326  -26.9090    4.9357 H         1 UNK         0.0814 
     91 H91       -53.9292  -24.7110    5.7881 H         1 UNK         0.1469 
     92 H92       -53.9875  -23.9229   10.0028 H         1 UNK         0.1381 
     93 H93       -54.3563  -27.9436    8.5732 H         1 UNK         0.1206 
     94 H94       -54.9558  -27.2760   10.9823 H         1 UNK         0.0813 
     95 H95       -54.5367  -25.6797   11.5333 H         1 UNK         0.0813 
     96 H96       -51.9430  -28.9713   10.1220 H         1 UNK         0.0638 
     97 H97       -53.5990  -29.0844   10.6153 H         1 UNK         0.0638 
     98 H98       -52.4279  -30.7855   11.7761 H         1 UNK         0.0568 
     99 H99       -51.0285  -30.4025   14.4249 H         1 UNK         0.3450 
    100 H100      -49.3614  -30.2294   13.9295 H         1 UNK         0.3450 
    101 H101      -52.7141  -28.8982   14.0073 H         1 UNK         0.2987 
    102 H102      -55.5617  -29.1333   14.7766 H         1 UNK         0.0766 
    103 H103      -56.5031  -31.4162   14.7373 H         1 UNK         0.0798 
    104 H104      -56.2347  -30.9197   16.3978 H         1 UNK         0.0798 
    105 H105      -55.1199  -32.0443   15.6220 H         1 UNK         0.0798 
    106 H106      -54.2321  -28.6132   16.4399 H         1 UNK         0.3198 
    107 H107      -52.4425  -29.9571   18.6064 H         1 UNK         0.0843 
    108 H108      -50.2664  -29.1465   16.5983 H         1 UNK         0.0831 
    109 H109      -50.3197  -30.6447   17.5192 H         1 UNK         0.0831 
    110 H110      -50.0892  -29.1178   18.3517 H         1 UNK         0.0831 
    111 H111      -52.2053  -27.4952   16.9308 H         1 UNK         0.3133 
    112 H112      -54.5366  -25.7792   18.9033 H         1 UNK         0.0566 
    113 H113      -52.8443  -23.9921   19.2354 H         1 UNK         0.0814 
    114 H114      -51.5359  -25.1344   18.9290 H         1 UNK         0.0814 
    115 H115      -52.5492  -25.3110   20.3555 H         1 UNK         0.0814 
    116 H116      -52.8169  -24.8550   16.8282 H         1 UNK         0.3091 
    117 H117      -54.3169  -26.4340   14.0556 H         1 UNK         0.0702 
    118 H118      -54.7501  -24.1150   13.2603 H         1 UNK         0.0785 
    119 H119      -54.6041  -23.4963   14.9009 H         1 UNK         0.0785 
    120 H120      -55.9369  -24.5617   14.4721 H         1 UNK         0.0785 
    121 H121      -52.3997  -24.3999   14.0744 H         1 UNK         0.2998 
    122 H122      -49.6824  -25.7137   15.5176 H         1 UNK         0.0697 
    123 H123      -49.7868  -26.5356   12.5685 H         1 UNK         0.0825 
    124 H124      -49.2928  -27.5450   13.9201 H         1 UNK         0.0825 
    125 H125      -48.3147  -26.1638   13.4630 H         1 UNK         0.0825 
    126 H126      -49.7435  -24.0924   13.1481 H         1 UNK         0.3029 
    127 H127      -51.2688  -21.2476   14.5023 H         1 UNK         0.0897 
    128 H128      -48.2235  -21.4873   14.1866 H         1 UNK         0.0792 
    129 H129      -49.0543  -20.9064   15.6231 H         1 UNK         0.0792 
    130 H130      -49.1556  -19.9896   14.1301 H         1 UNK         0.0792 
    131 H131      -49.6625  -21.5501   12.1719 H         1 UNK         0.3086 
    132 H132      -51.6022  -23.6449   10.2570 H         1 UNK         0.0583 
    133 H133      -53.1903  -21.6802   10.0231 H         1 UNK         0.1020 
    134 H134      -51.8274  -20.6253    9.8027 H         1 UNK         0.1020 
    135 H135      -54.5511  -22.1118    8.1848 H         1 UNK         0.0694 
    136 H136      -54.0941  -22.4596    6.5442 H         1 UNK         0.0694 
    137 H137      -49.6761  -21.9237    9.2699 H         1 UNK         0.2989 
    138 H138      -47.6464  -23.1359    8.7161 H         1 UNK         0.1055 
    139 H139      -46.7028  -21.8418   11.3566 H         1 UNK         0.0806 
    140 H140      -47.4464  -20.9824   10.0131 H         1 UNK         0.0806 
    141 H141      -45.8653  -21.7127    9.8122 H         1 UNK         0.0806 
    142 H142      -46.9662  -24.7918   10.9825 H         1 UNK         0.3061 
    143 H143      -43.9716  -25.6613   10.3580 H         1 UNK         0.0734 
    144 H144      -46.6627  -27.0567   10.8447 H         1 UNK         0.0832 
    145 H145      -45.1103  -27.6479   11.4226 H         1 UNK         0.0832 
    146 H146      -45.7275  -26.1160   12.0017 H         1 UNK         0.0832 
    147 H147      -43.6006  -26.9628    8.6182 H         1 UNK         0.3156 
    148 H148      -44.1197  -27.7496    6.4216 H         1 UNK         0.0589 
    149 H149      -44.7204  -30.3444    7.9755 H         1 UNK         0.0808 
    150 H150      -43.6261  -30.2200    6.5993 H         1 UNK         0.0808 
    151 H151      -43.2420  -29.4006    8.1027 H         1 UNK         0.0808 
    152 H152      -46.7887  -28.8857    6.4858 H         1 UNK         0.3098 
    153 H153      -47.1965  -28.6579    3.1247 H         1 UNK         0.0720 
    154 H154      -47.7640  -31.0588    2.7623 H         1 UNK         0.0791 
    155 H155      -46.7446  -31.5218    4.1262 H         1 UNK         0.0791 
    156 H156      -46.0293  -30.8076    2.6882 H         1 UNK         0.0791 
    157 H157      -48.5214  -30.2277    5.2225 H         1 UNK         0.3028 
@<TRIPOS>BOND
     1    1    2 1    
     2    1   82 1    
     3    1   83 1    
     4    1   84 1    
     5    2    3 2    
     6    2    4 am   BACKBONE|DICT|INTERRES
     7    4    5 1    
     8    4   85 1    
     9    5    6 1    
    10    5   80 1    
    11    5   86 1    
    12    6    7 1    
    13    6   87 1    
    14    6   88 1    
    15    7    8 1    
    16    8    9 1    
    17    8   89 1    
    18    8   90 1    
    19    9   10 ar   
    20    9   14 ar   
    21   10   11 ar   
    22   10   91 1    
    23   11   12 ar   
    24   11   58 1    
    25   12   13 ar   
    26   12   92 1    
    27   13   14 ar   
    28   13   15 1    
    29   14   93 1    
    30   15   16 1    
    31   15   94 1    
    32   15   95 1    
    33   16   17 1    
    34   17   18 1    
    35   17   96 1    
    36   17   97 1    
    37   18   19 1    
    38   18   22 1    
    39   18   98 1    
    40   19   20 am   BACKBONE|DICT|INTERRES
    41   19   21 2    
    42   20   99 1    
    43   20  100 1    
    44   22   23 am   BACKBONE|DICT|INTERRES
    45   22  101 1    
    46   23   24 2    
    47   23   25 1    
    48   25   26 1    
    49   25   27 1    
    50   25  102 1    
    51   26  103 1    
    52   26  104 1    
    53   26  105 1    
    54   27   28 am   BACKBONE|DICT|INTERRES
    55   27  106 1    
    56   28   29 2    
    57   28   30 1    
    58   30   31 1    
    59   30   32 1    
    60   30  107 1    
    61   31  108 1    
    62   31  109 1    
    63   31  110 1    
    64   32   33 am   BACKBONE|DICT|INTERRES
    65   32  111 1    
    66   33   34 2    
    67   33   35 1    
    68   35   36 1    
    69   35   37 1    
    70   35  112 1    
    71   36  113 1    
    72   36  114 1    
    73   36  115 1    
    74   37   38 am   BACKBONE|DICT|INTERRES
    75   37  116 1    
    76   38   39 2    
    77   38   40 1    
    78   40   41 1    
    79   40   42 1    
    80   40  117 1    
    81   41  118 1    
    82   41  119 1    
    83   41  120 1    
    84   42   43 am   BACKBONE|DICT|INTERRES
    85   42  121 1    
    86   43   44 2    
    87   43   45 1    
    88   45   46 1    
    89   45   47 1    
    90   45  122 1    
    91   46  123 1    
    92   46  124 1    
    93   46  125 1    
    94   47   48 am   BACKBONE|DICT|INTERRES
    95   47  126 1    
    96   48   49 2    
    97   48   50 1    
    98   50   51 1    
    99   50   52 1    
   100   50  127 1    
   101   51  128 1    
   102   51  129 1    
   103   51  130 1    
   104   52   53 am   BACKBONE|DICT|INTERRES
   105   52  131 1    
   106   53   54 2    
   107   53   55 1    
   108   55   56 1    
   109   55   59 1    
   110   55  132 1    
   111   56   57 1    
   112   56  133 1    
   113   56  134 1    
   114   57   58 1    
   115   58  135 1    
   116   58  136 1    
   117   59   60 am   BACKBONE|DICT|INTERRES
   118   59  137 1    
   119   60   61 2    
   120   60   62 1    
   121   62   63 1    
   122   62   64 1    
   123   62  138 1    
   124   63  139 1    
   125   63  140 1    
   126   63  141 1    
   127   64   65 am   BACKBONE|DICT|INTERRES
   128   64  142 1    
   129   65   66 2    
   130   65   67 1    
   131   67   68 1    
   132   67   69 1    
   133   67  143 1    
   134   68  144 1    
   135   68  145 1    
   136   68  146 1    
   137   69   70 am   BACKBONE|DICT|INTERRES
   138   69  147 1    
   139   70   71 2    
   140   70   72 1    
   141   72   73 1    
   142   72   74 1    
   143   72  148 1    
   144   73  149 1    
   145   73  150 1    
   146   73  151 1    
   147   74   75 am   BACKBONE|DICT|INTERRES
   148   74  152 1    
   149   75   76 2    
   150   75   77 1    
   151   77   78 1    
   152   77   79 1    
   153   77  153 1    
   154   78  154 1    
   155   78  155 1    
   156   78  156 1    
   157   79   80 am   BACKBONE|DICT|INTERRES
   158   79  157 1    
   159   80   81 2    
@<TRIPOS>SUBSTRUCTURE
     1 UNK         1 GROUP             0       ****    0 ROOT    
