@<TRIPOS>MOLECULE
3R207
157   159    1
SMALL
USER_CHARGES


@<TRIPOS>ATOM
      1 CA        -49.9900  -30.2831    6.4702 C.3       0 UNK        -0.1975 
      2 C         -49.6764  -29.0682    7.3288 C.2       0 UNK         0.4852 
      3 O         -49.8087  -27.9398    6.8579 O.2       0 UNK        -0.5216 
      4 N         -49.2548  -29.2882    8.5816 N.am      1 UNK        -0.4461 
      5 CA        -48.9606  -28.2495    9.5816 C.3       1 UNK         0.0864 
      6 C6        -48.7632  -28.8814   10.9875 C.3       14 UNK        -0.0898 
      7 S7        -49.6061  -27.9784   12.3264 S.3       14 UNK        -0.2598 
      8 C8        -51.3267  -28.5744   12.1738 C.3       14 UNK         0.0286 
      9 C9        -52.1260  -27.6613   11.2595 C.ar      14 UNK        -0.0844 
     10 C10       -52.5348  -26.4141   11.7328 C.ar      14 UNK        -0.0881 
     11 C11       -53.1667  -25.5056   10.8829 C.ar      14 UNK        -0.0643 
     12 C12       -53.4268  -25.8678    9.5570 C.ar      14 UNK        -0.0930 
     13 C13       -53.0513  -27.1278    9.0790 C.ar      14 UNK        -0.0827 
     14 C14       -52.4107  -28.0257    9.9398 C.ar      14 UNK        -0.1249 
     15 C15       -53.2783  -27.4901    7.6166 C.3       14 UNK         0.0141 
     16 S16       -54.9814  -28.0392    7.2793 S.3       14 UNK        -0.2313 
     17 C17       -55.0179  -29.6823    8.0769 C.3       14 UNK        -0.0915 
     18 CA        -56.0491  -29.7675    9.2322 C.3       13 UNK         0.0968 
     19 C         -56.0484  -31.1875    9.8597 C.2       13 UNK         0.5732 
     20 N         -56.9697  -32.0492    9.4504 N.am      13 UNK        -0.7310 
     21 O         -55.1915  -31.5282   10.6727 O.2       13 UNK        -0.5035 
     22 N         -55.8292  -28.7038   10.2185 N.am      13 UNK        -0.4233 
     23 C         -56.6263  -28.4142   11.2512 C.2       13 UNK         0.4989 
     24 O         -57.6718  -29.0097   11.5224 O.2       13 UNK        -0.4996 
     25 CA        -56.2100  -27.1881   12.0755 C.3       12 UNK         0.0216 
     26 CB        -56.9695  -25.9347   11.6112 C.3       12 UNK        -0.1964 
     27 N         -56.3889  -27.3641   13.5156 N.am      12 UNK        -0.4276 
     28 C         -55.6907  -28.2289   14.2606 C.2       12 UNK         0.5020 
     29 O         -54.8977  -29.0571   13.8047 O.2       12 UNK        -0.5489 
     30 CA        -55.8979  -28.1355   15.7836 C.3       11 UNK         0.0294 
     31 CB        -56.9386  -29.1654   16.2525 C.3       11 UNK        -0.2019 
     32 N         -54.6426  -28.3474   16.5113 N.am      11 UNK        -0.4493 
     33 C         -53.5497  -27.5809   16.3879 C.2       11 UNK         0.4932 
     34 O         -53.5162  -26.5329   15.7361 O.2       11 UNK        -0.5029 
     35 CA        -52.2846  -28.0948   17.0967 C.3       10 UNK         0.0280 
     36 CB        -51.8378  -29.4536   16.5248 C.3       10 UNK        -0.1976 
     37 N         -51.1811  -27.1523   16.9350 N.am      10 UNK        -0.4242 
     38 C         -50.9028  -26.1177   17.7373 C.2       10 UNK         0.5072 
     39 O         -51.5346  -25.8578   18.7636 O.2       10 UNK        -0.5224 
     40 CA        -49.7172  -25.2225   17.3112 C.3       9 UNK         0.0343 
     41 CB        -49.0192  -24.5428   18.5085 C.3       9 UNK        -0.2003 
     42 N         -48.7413  -25.9096   16.4506 N.am      9 UNK        -0.4272 
     43 C         -47.9984  -26.9869   16.7632 C.2       9 UNK         0.4988 
     44 O         -47.9877  -27.5124   17.8768 O.2       9 UNK        -0.5108 
     45 CA        -47.1576  -27.6284   15.6427 C.3       8 UNK         0.0248 
     46 CB        -47.7504  -28.9919   15.2468 C.3       8 UNK        -0.2001 
     47 N         -47.0336  -26.7835   14.4506 N.am      8 UNK        -0.4140 
     48 C         -46.2020  -25.7360   14.3693 C.2       8 UNK         0.5028 
     49 O         -45.4272  -25.4104   15.2700 O.2       8 UNK        -0.5428 
     50 CA        -46.2322  -24.8972   13.0812 C.3       7 UNK         0.0264 
     51 CB        -45.1134  -25.3404   12.1278 C.3       7 UNK        -0.1988 
     52 N         -47.5063  -24.8821   12.3539 N.am      7 UNK        -0.4454 
     53 C         -48.6730  -24.4161   12.8295 C.2       7 UNK         0.5027 
     54 O         -48.8653  -24.1486   14.0174 O.2       7 UNK        -0.5083 
     55 CA        -49.7964  -24.1963   11.7913 C.3       6 UNK         0.0844 
     56 C56       -50.9658  -23.3171   12.3276 C.3       14 UNK        -0.0967 
     57 S57       -52.2411  -22.9098   11.0764 S.3       14 UNK        -0.2604 
     58 C58       -53.5514  -24.1301   11.4005 C.3       14 UNK         0.0134 
     59 N         -49.2424  -23.7528   10.5109 N.am      6 UNK        -0.4116 
     60 C         -48.6740  -22.5736   10.2245 C.2       5 UNK         0.5034 
     61 O         -48.5436  -21.6491   11.0277 O.2       5 UNK        -0.5045 
     62 CA        -48.1444  -22.4060    8.7888 C.3       5 UNK         0.0224 
     63 CB        -46.6170  -22.5687    8.7645 C.3       5 UNK        -0.1978 
     64 N         -48.7494  -23.3654    7.8573 N.am      5 UNK        -0.4737 
     65 C         -50.0006  -23.2651    7.3842 C.2       4 UNK         0.5027 
     66 O         -50.7141  -22.2789    7.5715 O.2       4 UNK        -0.5211 
     67 CA        -50.5643  -24.4776    6.6160 C.3       4 UNK         0.0297 
     68 CB        -51.6608  -24.0892    5.6022 C.3       4 UNK        -0.1993 
     69 N         -49.5423  -25.3208    5.9872 N.am      4 UNK        -0.4486 
     70 C         -48.6725  -24.9769    5.0268 C.2       3 UNK         0.4961 
     71 O         -48.6123  -23.8575    4.5150 O.2       3 UNK        -0.5105 
     72 CA        -47.7036  -26.0892    4.5801 C.3       3 UNK         0.0299 
     73 CB        -46.6519  -25.6037    3.5591 C.3       3 UNK        -0.1972 
     74 N         -47.0592  -26.7677    5.7134 N.am      3 UNK        -0.4305 
     75 C         -46.2632  -26.2184    6.6442 C.2       2 UNK         0.5006 
     76 O         -45.9598  -25.0259    6.6767 O.2       2 UNK        -0.5106 
     77 CA        -45.7370  -27.1824    7.7253 C.3       2 UNK         0.0296 
     78 CB        -44.7676  -26.5117    8.7191 C.3       2 UNK        -0.2002 
     79 N         -46.8335  -27.8658    8.4215 N.am      2 UNK        -0.4032 
     80 C         -47.7988  -27.3150    9.1767 C.2       1 UNK         0.5000 
     81 O         -47.8310  -26.1291    9.5162 O.2       1 UNK        -0.5238 
     82 H82       -51.0334  -30.2585    6.1572 H         1 UNK         0.0889 
     83 H83       -49.8178  -31.2172    7.0045 H         1 UNK         0.0889 
     84 H84       -49.3665  -30.2820    5.5766 H         1 UNK         0.0889 
     85 H85       -49.1604  -30.2414    8.9027 H         1 UNK         0.3028 
     86 H86       -49.8356  -27.6009    9.6050 H         1 UNK         0.0864 
     87 H87       -49.1373  -29.9060   11.0139 H         1 UNK         0.0720 
     88 H88       -47.7053  -28.9666   11.2445 H         1 UNK         0.0720 
     89 H89       -51.7907  -28.5822   13.1610 H         1 UNK         0.0814 
     90 H90       -51.3496  -29.6056   11.8191 H         1 UNK         0.0814 
     91 H91       -52.3224  -26.1359   12.7564 H         1 UNK         0.1469 
     92 H92       -53.9056  -25.1615    8.8923 H         1 UNK         0.1381 
     93 H93       -52.0884  -28.9895    9.5707 H         1 UNK         0.1206 
     94 H94       -53.0631  -26.6217    6.9926 H         1 UNK         0.0813 
     95 H95       -52.5806  -28.2646    7.2973 H         1 UNK         0.0813 
     96 H96       -54.0196  -29.9416    8.4323 H         1 UNK         0.0638 
     97 H97       -55.2597  -30.4148    7.3047 H         1 UNK         0.0638 
     98 H98       -57.0387  -29.5903    8.8065 H         1 UNK         0.0568 
     99 H99       -56.9721  -32.9812    9.8342 H         1 UNK         0.3450 
    100 H100      -57.6684  -31.7849    8.7735 H         1 UNK         0.3450 
    101 H101      -54.9882  -28.1601   10.0809 H         1 UNK         0.2987 
    102 H102      -55.1473  -27.0215   11.9135 H         1 UNK         0.0766 
    103 H103      -56.8127  -25.7573   10.5461 H         1 UNK         0.0798 
    104 H104      -56.6279  -25.0437   12.1383 H         1 UNK         0.0798 
    105 H105      -58.0441  -26.0317   11.7712 H         1 UNK         0.0798 
    106 H106      -57.0509  -26.7503   13.9677 H         1 UNK         0.3198 
    107 H107      -56.2582  -27.1345   16.0312 H         1 UNK         0.0843 
    108 H108      -56.6176  -30.1866   16.0421 H         1 UNK         0.0831 
    109 H109      -57.8926  -29.0146   15.7454 H         1 UNK         0.0831 
    110 H110      -57.1263  -29.0842   17.3234 H         1 UNK         0.0831 
    111 H111      -54.5731  -29.2017   17.0444 H         1 UNK         0.3133 
    112 H112      -52.5091  -28.2157   18.1585 H         1 UNK         0.0566 
    113 H113      -52.5881  -30.2262   16.6956 H         1 UNK         0.0814 
    114 H114      -50.9159  -29.7967   16.9955 H         1 UNK         0.0814 
    115 H115      -51.6636  -29.4030   15.4496 H         1 UNK         0.0814 
    116 H116      -50.6397  -27.2420   16.0892 H         1 UNK         0.3091 
    117 H117      -50.1498  -24.4330   16.6948 H         1 UNK         0.0702 
    118 H118      -48.1936  -23.9118   18.1792 H         1 UNK         0.0785 
    119 H119      -48.6236  -25.2725   19.2155 H         1 UNK         0.0785 
    120 H120      -49.7141  -23.9051   19.0561 H         1 UNK         0.0785 
    121 H121      -48.6580  -25.5226   15.5153 H         1 UNK         0.2998 
    122 H122      -46.1580  -27.8050   16.0460 H         1 UNK         0.0697 
    123 H123      -48.7965  -28.9113   14.9521 H         1 UNK         0.0825 
    124 H124      -47.7090  -29.6889   16.0848 H         1 UNK         0.0825 
    125 H125      -47.1999  -29.4458   14.4225 H         1 UNK         0.0825 
    126 H126      -47.6428  -26.9876   13.6693 H         1 UNK         0.3029 
    127 H127      -46.0282  -23.8666   13.3800 H         1 UNK         0.0897 
    128 H128      -45.3098  -26.3289   11.7111 H         1 UNK         0.0792 
    129 H129      -44.1519  -25.3867   12.6415 H         1 UNK         0.0792 
    130 H130      -45.0001  -24.6360   11.3041 H         1 UNK         0.0792 
    131 H131      -47.4698  -25.1357   11.3719 H         1 UNK         0.3086 
    132 H132      -50.1949  -25.1866   11.5854 H         1 UNK         0.0583 
    133 H133      -51.4417  -23.8011   13.1820 H         1 UNK         0.1020 
    134 H134      -50.5753  -22.3716   12.7082 H         1 UNK         0.1020 
    135 H135      -53.7742  -24.1653   12.4682 H         1 UNK         0.0694 
    136 H136      -54.4679  -23.7990   10.9100 H         1 UNK         0.0694 
    137 H137      -49.2105  -24.4611    9.7890 H         1 UNK         0.2989 
    138 H138      -48.3906  -21.3933    8.4618 H         1 UNK         0.1055 
    139 H139      -46.3152  -23.5628    9.0949 H         1 UNK         0.0806 
    140 H140      -46.1347  -21.8450    9.4228 H         1 UNK         0.0806 
    141 H141      -46.2170  -22.4136    7.7622 H         1 UNK         0.0806 
    142 H142      -48.2063  -24.1898    7.6333 H         1 UNK         0.3061 
    143 H143      -51.0324  -25.1071    7.3744 H         1 UNK         0.0734 
    144 H144      -51.2853  -23.3998    4.8456 H         1 UNK         0.0832 
    145 H145      -52.0581  -24.9662    5.0915 H         1 UNK         0.0832 
    146 H146      -52.4987  -23.5999    6.1004 H         1 UNK         0.0832 
    147 H147      -49.5248  -26.2874    6.3193 H         1 UNK         0.3156 
    148 H148      -48.3174  -26.8423    4.0834 H         1 UNK         0.0589 
    149 H149      -46.0043  -26.4192    3.2376 H         1 UNK         0.0808 
    150 H150      -47.1322  -25.2012    2.6664 H         1 UNK         0.0808 
    151 H151      -46.0203  -24.8154    3.9702 H         1 UNK         0.0808 
    152 H152      -47.2817  -27.7485    5.8067 H         1 UNK         0.3098 
    153 H153      -45.1751  -27.9562    7.2000 H         1 UNK         0.0720 
    154 H154      -43.8926  -26.1170    8.2015 H         1 UNK         0.0791 
    155 H155      -44.4119  -27.2184    9.4685 H         1 UNK         0.0791 
    156 H156      -45.2377  -25.6772    9.2353 H         1 UNK         0.0791 
    157 H157      -46.9230  -28.8522    8.2223 H         1 UNK         0.3028 
@<TRIPOS>BOND
     1    1    2 1    
     2    1   82 1    
     3    1   83 1    
     4    1   84 1    
     5    2    3 2    
     6    2    4 am   BACKBONE|DICT|INTERRES
     7    4    5 1    
     8    4   85 1    
     9    5    6 1    
    10    5   80 1    
    11    5   86 1    
    12    6    7 1    
    13    6   87 1    
    14    6   88 1    
    15    7    8 1    
    16    8    9 1    
    17    8   89 1    
    18    8   90 1    
    19    9   10 ar   
    20    9   14 ar   
    21   10   11 ar   
    22   10   91 1    
    23   11   12 ar   
    24   11   58 1    
    25   12   13 ar   
    26   12   92 1    
    27   13   14 ar   
    28   13   15 1    
    29   14   93 1    
    30   15   16 1    
    31   15   94 1    
    32   15   95 1    
    33   16   17 1    
    34   17   18 1    
    35   17   96 1    
    36   17   97 1    
    37   18   19 1    
    38   18   22 1    
    39   18   98 1    
    40   19   20 am   BACKBONE|DICT|INTERRES
    41   19   21 2    
    42   20   99 1    
    43   20  100 1    
    44   22   23 am   BACKBONE|DICT|INTERRES
    45   22  101 1    
    46   23   24 2    
    47   23   25 1    
    48   25   26 1    
    49   25   27 1    
    50   25  102 1    
    51   26  103 1    
    52   26  104 1    
    53   26  105 1    
    54   27   28 am   BACKBONE|DICT|INTERRES
    55   27  106 1    
    56   28   29 2    
    57   28   30 1    
    58   30   31 1    
    59   30   32 1    
    60   30  107 1    
    61   31  108 1    
    62   31  109 1    
    63   31  110 1    
    64   32   33 am   BACKBONE|DICT|INTERRES
    65   32  111 1    
    66   33   34 2    
    67   33   35 1    
    68   35   36 1    
    69   35   37 1    
    70   35  112 1    
    71   36  113 1    
    72   36  114 1    
    73   36  115 1    
    74   37   38 am   BACKBONE|DICT|INTERRES
    75   37  116 1    
    76   38   39 2    
    77   38   40 1    
    78   40   41 1    
    79   40   42 1    
    80   40  117 1    
    81   41  118 1    
    82   41  119 1    
    83   41  120 1    
    84   42   43 am   BACKBONE|DICT|INTERRES
    85   42  121 1    
    86   43   44 2    
    87   43   45 1    
    88   45   46 1    
    89   45   47 1    
    90   45  122 1    
    91   46  123 1    
    92   46  124 1    
    93   46  125 1    
    94   47   48 am   BACKBONE|DICT|INTERRES
    95   47  126 1    
    96   48   49 2    
    97   48   50 1    
    98   50   51 1    
    99   50   52 1    
   100   50  127 1    
   101   51  128 1    
   102   51  129 1    
   103   51  130 1    
   104   52   53 am   BACKBONE|DICT|INTERRES
   105   52  131 1    
   106   53   54 2    
   107   53   55 1    
   108   55   56 1    
   109   55   59 1    
   110   55  132 1    
   111   56   57 1    
   112   56  133 1    
   113   56  134 1    
   114   57   58 1    
   115   58  135 1    
   116   58  136 1    
   117   59   60 am   BACKBONE|DICT|INTERRES
   118   59  137 1    
   119   60   61 2    
   120   60   62 1    
   121   62   63 1    
   122   62   64 1    
   123   62  138 1    
   124   63  139 1    
   125   63  140 1    
   126   63  141 1    
   127   64   65 am   BACKBONE|DICT|INTERRES
   128   64  142 1    
   129   65   66 2    
   130   65   67 1    
   131   67   68 1    
   132   67   69 1    
   133   67  143 1    
   134   68  144 1    
   135   68  145 1    
   136   68  146 1    
   137   69   70 am   BACKBONE|DICT|INTERRES
   138   69  147 1    
   139   70   71 2    
   140   70   72 1    
   141   72   73 1    
   142   72   74 1    
   143   72  148 1    
   144   73  149 1    
   145   73  150 1    
   146   73  151 1    
   147   74   75 am   BACKBONE|DICT|INTERRES
   148   74  152 1    
   149   75   76 2    
   150   75   77 1    
   151   77   78 1    
   152   77   79 1    
   153   77  153 1    
   154   78  154 1    
   155   78  155 1    
   156   78  156 1    
   157   79   80 am   BACKBONE|DICT|INTERRES
   158   79  157 1    
   159   80   81 2    
@<TRIPOS>SUBSTRUCTURE
     1 UNK         1 GROUP             0       ****    0 ROOT    
