@<TRIPOS>MOLECULE
3R207
157   159    1
SMALL
USER_CHARGES


@<TRIPOS>ATOM
      1 CA        -48.0322  -26.9684    0.2334 C.3       0 UNK        -0.1975 
      2 C         -48.6268  -27.0830    1.6294 C.2       0 UNK         0.4852 
      3 O         -48.7359  -26.0770    2.3325 O.2       0 UNK        -0.5216 
      4 N         -49.0194  -28.2986    2.0334 N.am      1 UNK        -0.4461 
      5 CA        -49.5489  -28.6025    3.3657 C.3       1 UNK         0.0864 
      6 C6        -50.3129  -29.9534    3.3609 C.3       14 UNK        -0.0898 
      7 S7        -51.1899  -30.3190    4.9201 S.3       14 UNK        -0.2598 
      8 C8        -52.6875  -29.3040    4.7437 C.3       14 UNK         0.0286 
      9 C9        -53.3538  -29.1008    6.0946 C.ar      14 UNK        -0.0844 
     10 C10       -53.0033  -28.0116    6.8994 C.ar      14 UNK        -0.0881 
     11 C11       -53.6199  -27.8217    8.1393 C.ar      14 UNK        -0.0643 
     12 C12       -54.6053  -28.7192    8.5595 C.ar      14 UNK        -0.0930 
     13 C13       -54.9292  -29.8437    7.7903 C.ar      14 UNK        -0.0827 
     14 C14       -54.3082  -30.0145    6.5495 C.ar      14 UNK        -0.1249 
     15 C15       -55.9309  -30.9019    8.2587 C.3       14 UNK         0.0141 
     16 S16       -56.1944  -31.0189   10.0657 S.3       14 UNK        -0.2313 
     17 C17       -54.5137  -31.3488   10.7120 C.3       14 UNK        -0.0915 
     18 CA        -54.2522  -30.6484   12.0774 C.3       13 UNK         0.0968 
     19 C         -52.8520  -30.9871   12.6659 C.2       13 UNK         0.5732 
     20 N         -52.1352  -30.0400   13.2628 N.am      13 UNK        -0.7310 
     21 O         -52.4124  -32.1328   12.6017 O.2       13 UNK        -0.5035 
     22 N         -54.4918  -29.1986   12.0066 N.am      13 UNK        -0.4233 
     23 C         -55.4279  -28.5376   12.6925 C.2       13 UNK         0.4989 
     24 O         -56.2188  -29.0584   13.4828 O.2       13 UNK        -0.4996 
     25 CA        -55.5100  -27.0252   12.4352 C.3       12 UNK         0.0216 
     26 CB        -56.7495  -26.6779   11.5941 C.3       12 UNK        -0.1964 
     27 N         -55.5454  -26.2789   13.6921 N.am      12 UNK        -0.4276 
     28 C         -54.5212  -26.2131   14.5499 C.2       12 UNK         0.5020 
     29 O         -53.4204  -26.7325   14.3494 O.2       12 UNK        -0.5489 
     30 CA        -54.7771  -25.4698   15.8623 C.3       11 UNK         0.0294 
     31 CB        -55.2096  -26.4592   16.9619 C.3       11 UNK        -0.2019 
     32 N         -53.5484  -24.7830   16.2430 N.am      11 UNK        -0.4493 
     33 C         -53.4361  -23.8309   17.1768 C.2       11 UNK         0.4932 
     34 O         -54.3910  -23.3916   17.8203 O.2       11 UNK        -0.5029 
     35 CA        -52.0205  -23.2732   17.4252 C.3       10 UNK         0.0280 
     36 CB        -51.8698  -22.5776   18.7946 C.3       10 UNK        -0.1976 
     37 N         -50.9754  -24.2811   17.2231 N.am      10 UNK        -0.4242 
     38 C         -50.7783  -25.4190   17.9060 C.2       10 UNK         0.5072 
     39 O         -51.4230  -25.7525   18.9012 O.2       10 UNK        -0.5224 
     40 CA        -49.6865  -26.3661   17.3734 C.3       9 UNK         0.0343 
     41 CB        -50.3285  -27.5005   16.5572 C.3       9 UNK        -0.2003 
     42 N         -48.6818  -25.6910   16.5461 N.am      9 UNK        -0.4272 
     43 C         -47.7606  -24.8343   17.0100 C.2       9 UNK         0.4988 
     44 O         -47.6005  -24.5807   18.2045 O.2       9 UNK        -0.5108 
     45 CA        -46.8876  -24.1179   15.9649 C.3       8 UNK         0.0248 
     46 CB        -45.7180  -25.0145   15.5289 C.3       8 UNK        -0.2001 
     47 N         -47.6443  -23.6730   14.7888 N.am      8 UNK        -0.4140 
     48 C         -48.6164  -22.7478   14.8163 C.2       8 UNK         0.5028 
     49 O         -48.9543  -22.1401   15.8319 O.2       8 UNK        -0.5428 
     50 CA        -49.3679  -22.4721   13.5027 C.3       7 UNK         0.0264 
     51 CB        -48.5557  -21.5386   12.5915 C.3       7 UNK        -0.1988 
     52 N         -49.7207  -23.6949   12.7777 N.am      7 UNK        -0.4454 
     53 C         -50.5586  -24.6374   13.2361 C.2       7 UNK         0.5027 
     54 O         -51.1666  -24.5421   14.3026 O.2       7 UNK        -0.5083 
     55 CA        -50.7040  -25.9196   12.3879 C.3       6 UNK         0.0844 
     56 C56       -51.7289  -25.7150   11.2449 C.3       14 UNK        -0.0967 
     57 S57       -52.0753  -27.2619   10.3450 S.3       14 UNK        -0.2604 
     58 C58       -53.2026  -26.6710    9.0432 C.3       14 UNK         0.0134 
     59 N         -49.4019  -26.4022   11.9114 N.am      6 UNK        -0.4116 
     60 C         -48.3942  -26.7832   12.7115 C.2       5 UNK         0.5034 
     61 O         -48.4706  -26.8382   13.9378 O.2       5 UNK        -0.5045 
     62 CA        -47.0494  -27.0887   12.0390 C.3       5 UNK         0.0224 
     63 CB        -47.0134  -28.5266   11.4968 C.3       5 UNK        -0.1978 
     64 N         -46.7563  -26.1280   10.9728 N.am      5 UNK        -0.4737 
     65 C         -46.4102  -24.8514   11.1974 C.2       4 UNK         0.5027 
     66 O         -46.2533  -24.3793   12.3223 O.2       4 UNK        -0.5211 
     67 CA        -46.2492  -23.9346    9.9720 C.3       4 UNK         0.0297 
     68 CB        -44.8176  -24.0213    9.4208 C.3       4 UNK        -0.1993 
     69 N         -47.2055  -24.2321    8.9038 N.am      4 UNK        -0.4486 
     70 C         -48.5348  -24.0945    9.0117 C.2       3 UNK         0.4961 
     71 O         -49.0961  -23.6325   10.0038 O.2       3 UNK        -0.5105 
     72 CA        -49.3874  -24.6148    7.8407 C.3       3 UNK         0.0299 
     73 CB        -49.6557  -23.4927    6.8265 C.3       3 UNK        -0.1972 
     74 N         -48.8083  -25.7748    7.1514 N.am      3 UNK        -0.4305 
     75 C         -48.5174  -26.9463    7.7376 C.2       2 UNK         0.5006 
     76 O         -48.6861  -27.1617    8.9381 O.2       2 UNK        -0.5106 
     77 CA        -47.9533  -28.0442    6.8260 C.3       2 UNK         0.0296 
     78 CB        -47.8187  -29.4082    7.5323 C.3       2 UNK        -0.2002 
     79 N         -48.8140  -28.1689    5.6545 N.am      2 UNK        -0.4032 
     80 C         -48.4297  -28.5477    4.4309 C.2       1 UNK         0.5000 
     81 O         -47.2712  -28.8552    4.1339 O.2       1 UNK        -0.5238 
     82 H82       -47.0117  -26.5905    0.2908 H         1 UNK         0.0889 
     83 H83       -48.6193  -26.2756   -0.3688 H         1 UNK         0.0889 
     84 H84       -48.0095  -27.9292   -0.2807 H         1 UNK         0.0889 
     85 H85       -48.8738  -29.0928    1.4266 H         1 UNK         0.3028 
     86 H86       -50.2651  -27.8132    3.6030 H         1 UNK         0.0864 
     87 H87       -49.6255  -30.7768    3.1578 H         1 UNK         0.0720 
     88 H88       -51.0441  -29.9675    2.5508 H         1 UNK         0.0720 
     89 H89       -53.3739  -29.7891    4.0479 H         1 UNK         0.0814 
     90 H90       -52.4427  -28.3356    4.3064 H         1 UNK         0.0814 
     91 H91       -52.2445  -27.3170    6.5670 H         1 UNK         0.1469 
     92 H92       -55.0925  -28.5563    9.5070 H         1 UNK         0.1381 
     93 H93       -54.5582  -30.8710    5.9377 H         1 UNK         0.1206 
     94 H94       -56.8918  -30.6998    7.7841 H         1 UNK         0.0813 
     95 H95       -55.6145  -31.8848    7.9057 H         1 UNK         0.0813 
     96 H96       -54.4084  -32.4304   10.8111 H         1 UNK         0.0638 
     97 H97       -53.7653  -31.0385    9.9818 H         1 UNK         0.0638 
     98 H98       -54.9493  -31.0904   12.7909 H         1 UNK         0.0568 
     99 H99       -51.2340  -30.2763   13.6447 H         1 UNK         0.3450 
    100 H100      -52.4998  -29.1054   13.3692 H         1 UNK         0.3450 
    101 H101      -53.8477  -28.6852   11.4200 H         1 UNK         0.2987 
    102 H102      -54.6245  -26.7085   11.8837 H         1 UNK         0.0766 
    103 H103      -56.7430  -27.2147   10.6448 H         1 UNK         0.0798 
    104 H104      -56.7869  -25.6134   11.3621 H         1 UNK         0.0798 
    105 H105      -57.6740  -26.9433   12.1087 H         1 UNK         0.0798 
    106 H106      -56.4309  -25.8687   13.9516 H         1 UNK         0.3198 
    107 H107      -55.5610  -24.7257   15.7062 H         1 UNK         0.0843 
    108 H108      -54.4250  -27.1869   17.1742 H         1 UNK         0.0831 
    109 H109      -56.0985  -27.0154   16.6613 H         1 UNK         0.0831 
    110 H110      -55.4503  -25.9468   17.8932 H         1 UNK         0.0831 
    111 H111      -52.7305  -25.0493   15.6989 H         1 UNK         0.3133 
    112 H112      -51.8552  -22.5191   16.6544 H         1 UNK         0.0566 
    113 H113      -50.8586  -22.1951   18.9340 H         1 UNK         0.0814 
    114 H114      -52.5506  -21.7298   18.8789 H         1 UNK         0.0814 
    115 H115      -52.0910  -23.2541   19.6206 H         1 UNK         0.0814 
    116 H116      -50.4166  -24.1456   16.3895 H         1 UNK         0.3091 
    117 H117      -49.1800  -26.8054   18.2352 H         1 UNK         0.0702 
    118 H118      -51.0651  -28.0435   17.1508 H         1 UNK         0.0785 
    119 H119      -50.8413  -27.1191   15.6727 H         1 UNK         0.0785 
    120 H120      -49.5824  -28.2224   16.2249 H         1 UNK         0.0785 
    121 H121      -48.6930  -25.9091   15.5517 H         1 UNK         0.2998 
    122 H122      -46.4698  -23.2280   16.4403 H         1 UNK         0.0697 
    123 H123      -46.0662  -25.9156   15.0240 H         1 UNK         0.0825 
    124 H124      -45.1263  -25.3303   16.3891 H         1 UNK         0.0825 
    125 H125      -45.0467  -24.4886   14.8498 H         1 UNK         0.0825 
    126 H126      -47.3756  -24.0760   13.8950 H         1 UNK         0.3029 
    127 H127      -50.3004  -21.9646   13.7592 H         1 UNK         0.0897 
    128 H128      -49.1105  -21.2853   11.6878 H         1 UNK         0.0792 
    129 H129      -47.6113  -21.9900   12.2878 H         1 UNK         0.0792 
    130 H130      -48.3211  -20.6034   13.1015 H         1 UNK         0.0792 
    131 H131      -49.3180  -23.8076   11.8494 H         1 UNK         0.3086 
    132 H132      -51.0969  -26.6921   13.0516 H         1 UNK         0.0583 
    133 H133      -52.6708  -25.3378   11.6479 H         1 UNK         0.1020 
    134 H134      -51.3759  -24.9636   10.5373 H         1 UNK         0.1020 
    135 H135      -54.0844  -26.2153    9.4956 H         1 UNK         0.0694 
    136 H136      -52.7096  -25.8888    8.4640 H         1 UNK         0.0694 
    137 H137      -49.2642  -26.4360   10.9078 H         1 UNK         0.2989 
    138 H138      -46.2696  -26.9993   12.7986 H         1 UNK         0.1055 
    139 H139      -47.1165  -29.2459   12.3102 H         1 UNK         0.0806 
    140 H140      -46.0703  -28.7399   10.9937 H         1 UNK         0.0806 
    141 H141      -47.8229  -28.7222   10.7939 H         1 UNK         0.0806 
    142 H142      -46.9623  -26.4246   10.0274 H         1 UNK         0.3061 
    143 H143      -46.4260  -22.9086   10.3012 H         1 UNK         0.0734 
    144 H144      -44.0882  -23.7806   10.1957 H         1 UNK         0.0832 
    145 H145      -44.6626  -23.3166    8.6036 H         1 UNK         0.0832 
    146 H146      -44.5836  -25.0213    9.0535 H         1 UNK         0.0832 
    147 H147      -46.8331  -24.6153    8.0474 H         1 UNK         0.3156 
    148 H148      -50.3458  -24.9323    8.2558 H         1 UNK         0.0589 
    149 H149      -48.7374  -23.1523    6.3463 H         1 UNK         0.0808 
    150 H150      -50.3435  -23.8182    6.0458 H         1 UNK         0.0808 
    151 H151      -50.1085  -22.6277    7.3136 H         1 UNK         0.0808 
    152 H152      -48.6287  -25.6722    6.1623 H         1 UNK         0.3098 
    153 H153      -46.9601  -27.7152    6.5131 H         1 UNK         0.0720 
    154 H154      -47.4039  -30.1629    6.8641 H         1 UNK         0.0791 
    155 H155      -48.7835  -29.7710    7.8894 H         1 UNK         0.0791 
    156 H156      -47.1535  -29.3394    8.3937 H         1 UNK         0.0791 
    157 H157      -49.7911  -27.9666    5.8140 H         1 UNK         0.3028 
@<TRIPOS>BOND
     1    1    2 1    
     2    1   82 1    
     3    1   83 1    
     4    1   84 1    
     5    2    3 2    
     6    2    4 am   BACKBONE|DICT|INTERRES
     7    4    5 1    
     8    4   85 1    
     9    5    6 1    
    10    5   80 1    
    11    5   86 1    
    12    6    7 1    
    13    6   87 1    
    14    6   88 1    
    15    7    8 1    
    16    8    9 1    
    17    8   89 1    
    18    8   90 1    
    19    9   10 ar   
    20    9   14 ar   
    21   10   11 ar   
    22   10   91 1    
    23   11   12 ar   
    24   11   58 1    
    25   12   13 ar   
    26   12   92 1    
    27   13   14 ar   
    28   13   15 1    
    29   14   93 1    
    30   15   16 1    
    31   15   94 1    
    32   15   95 1    
    33   16   17 1    
    34   17   18 1    
    35   17   96 1    
    36   17   97 1    
    37   18   19 1    
    38   18   22 1    
    39   18   98 1    
    40   19   20 am   BACKBONE|DICT|INTERRES
    41   19   21 2    
    42   20   99 1    
    43   20  100 1    
    44   22   23 am   BACKBONE|DICT|INTERRES
    45   22  101 1    
    46   23   24 2    
    47   23   25 1    
    48   25   26 1    
    49   25   27 1    
    50   25  102 1    
    51   26  103 1    
    52   26  104 1    
    53   26  105 1    
    54   27   28 am   BACKBONE|DICT|INTERRES
    55   27  106 1    
    56   28   29 2    
    57   28   30 1    
    58   30   31 1    
    59   30   32 1    
    60   30  107 1    
    61   31  108 1    
    62   31  109 1    
    63   31  110 1    
    64   32   33 am   BACKBONE|DICT|INTERRES
    65   32  111 1    
    66   33   34 2    
    67   33   35 1    
    68   35   36 1    
    69   35   37 1    
    70   35  112 1    
    71   36  113 1    
    72   36  114 1    
    73   36  115 1    
    74   37   38 am   BACKBONE|DICT|INTERRES
    75   37  116 1    
    76   38   39 2    
    77   38   40 1    
    78   40   41 1    
    79   40   42 1    
    80   40  117 1    
    81   41  118 1    
    82   41  119 1    
    83   41  120 1    
    84   42   43 am   BACKBONE|DICT|INTERRES
    85   42  121 1    
    86   43   44 2    
    87   43   45 1    
    88   45   46 1    
    89   45   47 1    
    90   45  122 1    
    91   46  123 1    
    92   46  124 1    
    93   46  125 1    
    94   47   48 am   BACKBONE|DICT|INTERRES
    95   47  126 1    
    96   48   49 2    
    97   48   50 1    
    98   50   51 1    
    99   50   52 1    
   100   50  127 1    
   101   51  128 1    
   102   51  129 1    
   103   51  130 1    
   104   52   53 am   BACKBONE|DICT|INTERRES
   105   52  131 1    
   106   53   54 2    
   107   53   55 1    
   108   55   56 1    
   109   55   59 1    
   110   55  132 1    
   111   56   57 1    
   112   56  133 1    
   113   56  134 1    
   114   57   58 1    
   115   58  135 1    
   116   58  136 1    
   117   59   60 am   BACKBONE|DICT|INTERRES
   118   59  137 1    
   119   60   61 2    
   120   60   62 1    
   121   62   63 1    
   122   62   64 1    
   123   62  138 1    
   124   63  139 1    
   125   63  140 1    
   126   63  141 1    
   127   64   65 am   BACKBONE|DICT|INTERRES
   128   64  142 1    
   129   65   66 2    
   130   65   67 1    
   131   67   68 1    
   132   67   69 1    
   133   67  143 1    
   134   68  144 1    
   135   68  145 1    
   136   68  146 1    
   137   69   70 am   BACKBONE|DICT|INTERRES
   138   69  147 1    
   139   70   71 2    
   140   70   72 1    
   141   72   73 1    
   142   72   74 1    
   143   72  148 1    
   144   73  149 1    
   145   73  150 1    
   146   73  151 1    
   147   74   75 am   BACKBONE|DICT|INTERRES
   148   74  152 1    
   149   75   76 2    
   150   75   77 1    
   151   77   78 1    
   152   77   79 1    
   153   77  153 1    
   154   78  154 1    
   155   78  155 1    
   156   78  156 1    
   157   79   80 am   BACKBONE|DICT|INTERRES
   158   79  157 1    
   159   80   81 2    
@<TRIPOS>SUBSTRUCTURE
     1 UNK         1 GROUP             0       ****    0 ROOT    
