@<TRIPOS>MOLECULE
3R207
157   159    1
SMALL
USER_CHARGES


@<TRIPOS>ATOM
      1 CA        -51.2666  -30.2717    2.2730 C.3       0 UNK        -0.1975 
      2 C         -51.1394  -29.1898    3.3355 C.2       0 UNK         0.4852 
      3 O         -52.0019  -28.3145    3.4236 O.2       0 UNK        -0.5216 
      4 N         -50.0762  -29.2486    4.1475 N.am      1 UNK        -0.4461 
      5 CA        -49.7642  -28.2724    5.1956 C.3       1 UNK         0.0864 
      6 C6        -48.6416  -28.7798    6.1359 C.3       14 UNK        -0.0898 
      7 S7        -49.0949  -30.3088    7.0280 S.3       14 UNK        -0.2598 
      8 C8        -48.8936  -29.8165    8.7726 C.3       14 UNK         0.0286 
      9 C9        -50.1852  -29.3000    9.3933 C.ar      14 UNK        -0.0844 
     10 C10       -50.7877  -28.1299    8.9209 C.ar      14 UNK        -0.0881 
     11 C11       -51.9726  -27.6562    9.4919 C.ar      14 UNK        -0.0643 
     12 C12       -52.5444  -28.3506   10.5606 C.ar      14 UNK        -0.0930 
     13 C13       -51.9439  -29.5123   11.0532 C.ar      14 UNK        -0.0827 
     14 C14       -50.7687  -29.9853   10.4636 C.ar      14 UNK        -0.1249 
     15 C15       -52.5643  -30.2482   12.2274 C.3       14 UNK         0.0141 
     16 S16       -53.6967  -31.5511   11.6582 S.3       14 UNK        -0.2313 
     17 C17       -54.7574  -31.7489   13.1291 C.3       14 UNK        -0.0915 
     18 CA        -56.1758  -31.1550   12.9172 C.3       13 UNK         0.0968 
     19 C         -57.1041  -31.4702   14.1269 C.2       13 UNK         0.5732 
     20 N         -57.6625  -30.4831   14.8177 N.am      13 UNK        -0.7310 
     21 O         -57.3303  -32.6370   14.4389 O.2       13 UNK        -0.5035 
     22 N         -56.1219  -29.7316   12.5429 N.am      13 UNK        -0.4233 
     23 C         -57.0640  -29.0769   11.8568 C.2       13 UNK         0.4989 
     24 O         -58.1052  -29.5991   11.4543 O.2       13 UNK        -0.4996 
     25 CA        -56.7992  -27.5791   11.6047 C.3       12 UNK         0.0216 
     26 CB        -57.8809  -26.9232   10.7256 C.3       12 UNK        -0.1964 
     27 N         -56.6882  -26.8316   12.8610 N.am      12 UNK        -0.4276 
     28 C         -55.6061  -26.8051   13.6471 C.2       12 UNK         0.5020 
     29 O         -54.5645  -27.4203   13.4022 O.2       12 UNK        -0.5489 
     30 CA        -55.7215  -26.0075   14.9472 C.3       11 UNK         0.0294 
     31 CB        -56.3203  -26.8808   16.0664 C.3       11 UNK        -0.2019 
     32 N         -54.3845  -25.5579   15.3147 N.am      11 UNK        -0.4493 
     33 C         -54.0914  -24.5734   16.1707 C.2       11 UNK         0.4932 
     34 O         -54.9485  -23.9273   16.7762 O.2       11 UNK        -0.5029 
     35 CA        -52.6020  -24.2236   16.3637 C.3       10 UNK         0.0280 
     36 CB        -52.2853  -23.7383   17.7942 C.3       10 UNK        -0.1976 
     37 N         -51.6735  -25.2818   15.9492 N.am      10 UNK        -0.4242 
     38 C         -51.5053  -26.4964   16.4938 C.2       10 UNK         0.5072 
     39 O         -52.1647  -26.9349   17.4370 O.2       10 UNK        -0.5224 
     40 CA        -50.3936  -27.3676   15.8823 C.3       9 UNK         0.0343 
     41 CB        -50.8998  -28.0812   14.6174 C.3       9 UNK        -0.2003 
     42 N         -49.1821  -26.6007   15.5721 N.am      9 UNK        -0.4272 
     43 C         -48.3868  -26.0310   16.4923 C.2       9 UNK         0.4988 
     44 O         -48.5346  -26.1707   17.7071 O.2       9 UNK        -0.5108 
     45 CA        -47.2417  -25.1391   15.9782 C.3       8 UNK         0.0248 
     46 CB        -46.0376  -25.9884   15.5418 C.3       8 UNK        -0.2001 
     47 N         -47.6595  -24.2617   14.8820 N.am      8 UNK        -0.4140 
     48 C         -48.5472  -23.2630   15.0034 C.2       8 UNK         0.5028 
     49 O         -49.0373  -22.9043   16.0741 O.2       8 UNK        -0.5428 
     50 CA        -48.9943  -22.5661   13.7070 C.3       7 UNK         0.0264 
     51 CB        -48.0589  -21.3982   13.3541 C.3       7 UNK        -0.1988 
     52 N         -49.0866  -23.4923   12.5751 N.am      7 UNK        -0.4454 
     53 C         -49.9971  -24.4733   12.4779 C.2       7 UNK         0.5027 
     54 O         -50.8716  -24.6723   13.3207 O.2       7 UNK        -0.5083 
     55 CA        -49.8789  -25.4161   11.2636 C.3       6 UNK         0.0844 
     56 C56       -50.5404  -24.8061   10.0018 C.3       14 UNK        -0.0967 
     57 S57       -52.3587  -24.9585   10.0373 S.3       14 UNK        -0.2604 
     58 C58       -52.6367  -26.3961    8.9554 C.3       14 UNK         0.0134 
     59 N         -48.4861  -25.7986   11.0198 N.am      6 UNK        -0.4116 
     60 C         -47.7561  -26.5705   11.8404 C.2       5 UNK         0.5034 
     61 O         -48.2054  -27.0998   12.8560 O.2       5 UNK        -0.5045 
     62 CA        -46.2565  -26.7332   11.5180 C.3       5 UNK         0.0224 
     63 CB        -46.0092  -27.9884   10.6686 C.3       5 UNK        -0.1978 
     64 N         -45.6727  -25.5732   10.8402 N.am      5 UNK        -0.4737 
     65 C         -45.6455  -24.3293   11.3363 C.2       4 UNK         0.5027 
     66 O         -45.9984  -24.0526   12.4819 O.2       4 UNK        -0.5211 
     67 CA        -45.2233  -23.1962   10.3815 C.3       4 UNK         0.0297 
     68 CB        -43.7720  -22.7781   10.6641 C.3       4 UNK        -0.1993 
     69 N         -45.3730  -23.4989    8.9488 N.am      4 UNK        -0.4486 
     70 C         -46.5066  -23.8677    8.3343 C.2       3 UNK         0.4961 
     71 O         -47.5799  -24.0488    8.9180 O.2       3 UNK        -0.5105 
     72 CA        -46.4099  -24.1293    6.8263 C.3       3 UNK         0.0299 
     73 CB        -45.5626  -25.3820    6.5306 C.3       3 UNK        -0.1972 
     74 N         -47.7566  -24.3247    6.2998 N.am      3 UNK        -0.4305 
     75 C         -48.1647  -24.0605    5.0542 C.2       2 UNK         0.5006 
     76 O         -47.4389  -23.5840    4.1790 O.2       2 UNK        -0.5106 
     77 CA        -49.6319  -24.4234    4.7465 C.3       2 UNK         0.0296 
     78 CB        -50.0468  -24.1034    3.2935 C.3       2 UNK        -0.2002 
     79 N         -49.9339  -25.8227    5.0868 N.am      2 UNK        -0.4032 
     80 C         -49.3546  -26.9212    4.5736 C.2       1 UNK         0.5000 
     81 O         -48.5047  -26.9089    3.6789 O.2       1 UNK        -0.5238 
     82 H82       -51.2726  -29.8229    1.2801 H         1 UNK         0.0889 
     83 H83       -52.1990  -30.8199    2.4055 H         1 UNK         0.0889 
     84 H84       -50.4444  -30.9857    2.3176 H         1 UNK         0.0889 
     85 H85       -49.3960  -29.9849    4.0257 H         1 UNK         0.3028 
     86 H86       -50.6716  -28.1256    5.7853 H         1 UNK         0.0864 
     87 H87       -48.3687  -28.0056    6.8550 H         1 UNK         0.0720 
     88 H88       -47.7320  -28.9839    5.5673 H         1 UNK         0.0720 
     89 H89       -48.1166  -29.0606    8.8652 H         1 UNK         0.0814 
     90 H90       -48.5305  -30.6838    9.3260 H         1 UNK         0.0814 
     91 H91       -50.3349  -27.5872    8.1064 H         1 UNK         0.1469 
     92 H92       -53.4519  -27.9791   11.0157 H         1 UNK         0.1381 
     93 H93       -50.3088  -30.8873   10.8437 H         1 UNK         0.1206 
     94 H94       -51.7876  -30.6906   12.8530 H         1 UNK         0.0813 
     95 H95       -53.0990  -29.5393   12.8594 H         1 UNK         0.0813 
     96 H96       -54.2767  -31.2996   14.0000 H         1 UNK         0.0638 
     97 H97       -54.8201  -32.8185   13.3380 H         1 UNK         0.0638 
     98 H98       -56.6185  -31.6898   12.0747 H         1 UNK         0.0568 
     99 H99       -57.4991  -29.5249   14.5600 H         1 UNK         0.3450 
    100 H100      -58.2649  -30.7053   15.5944 H         1 UNK         0.3450 
    101 H101      -55.3229  -29.2001   12.8721 H         1 UNK         0.2987 
    102 H102      -55.8518  -27.5059   11.0663 H         1 UNK         0.0766 
    103 H103      -57.6399  -25.8817   10.5115 H         1 UNK         0.0798 
    104 H104      -58.8623  -26.9503   11.2009 H         1 UNK         0.0798 
    105 H105      -57.9685  -27.4359    9.7666 H         1 UNK         0.0798 
    106 H106      -57.5147  -26.3311   13.1569 H         1 UNK         0.3198 
    107 H107      -56.3558  -25.1353   14.7743 H         1 UNK         0.0843 
    108 H108      -55.7023  -27.7578   16.2645 H         1 UNK         0.0831 
    109 H109      -57.3171  -27.2342   15.8003 H         1 UNK         0.0831 
    110 H110      -56.4167  -26.3249   16.9990 H         1 UNK         0.0831 
    111 H111      -53.6391  -26.0319   14.8178 H         1 UNK         0.3133 
    112 H112      -52.4054  -23.3897   15.6884 H         1 UNK         0.0566 
    113 H113      -51.2303  -23.4843   17.9001 H         1 UNK         0.0814 
    114 H114      -52.8584  -22.8441   18.0416 H         1 UNK         0.0814 
    115 H115      -52.5257  -24.4950   18.5415 H         1 UNK         0.0814 
    116 H116      -51.1402  -25.0673   15.1081 H         1 UNK         0.3091 
    117 H117      -50.1267  -28.1300   16.6172 H         1 UNK         0.0702 
    118 H118      -51.1641  -27.3767   13.8278 H         1 UNK         0.0785 
    119 H119      -51.7899  -28.6723   14.8362 H         1 UNK         0.0785 
    120 H120      -50.1477  -28.7610   14.2164 H         1 UNK         0.0785 
    121 H121      -48.9400  -26.5105   14.5899 H         1 UNK         0.2998 
    122 H122      -46.9206  -24.5003   16.8037 H         1 UNK         0.0697 
    123 H123      -46.3068  -26.7037   14.7656 H         1 UNK         0.0825 
    124 H124      -45.6428  -26.5596   16.3830 H         1 UNK         0.0825 
    125 H125      -45.2267  -25.3668   15.1612 H         1 UNK         0.0825 
    126 H126      -47.2325  -24.4154   13.9731 H         1 UNK         0.3029 
    127 H127      -49.9917  -22.1571   13.8844 H         1 UNK         0.0897 
    128 H128      -48.4015  -20.8693   12.4645 H         1 UNK         0.0792 
    129 H129      -47.0368  -21.7318   13.1744 H         1 UNK         0.0792 
    130 H130      -48.0232  -20.6723   14.1676 H         1 UNK         0.0792 
    131 H131      -48.3701  -23.4198   11.8669 H         1 UNK         0.3086 
    132 H132      -50.4088  -26.3370   11.5175 H         1 UNK         0.0583 
    133 H133      -50.2720  -23.7548    9.8780 H         1 UNK         0.1020 
    134 H134      -50.1698  -25.2999    9.1036 H         1 UNK         0.1020 
    135 H135      -53.7109  -26.5647    8.8657 H         1 UNK         0.0694 
    136 H136      -52.2806  -26.1663    7.9503 H         1 UNK         0.0694 
    137 H137      -48.0307  -25.3476   10.2313 H         1 UNK         0.2989 
    138 H138      -45.7357  -26.8579   12.4690 H         1 UNK         0.1055 
    139 H139      -44.9469  -28.2292   10.6239 H         1 UNK         0.0806 
    140 H140      -46.3615  -27.8554    9.6462 H         1 UNK         0.0806 
    141 H141      -46.5191  -28.8576   11.0876 H         1 UNK         0.0806 
    142 H142      -45.3508  -25.7096    9.8934 H         1 UNK         0.3061 
    143 H143      -45.8710  -22.3445   10.5991 H         1 UNK         0.0734 
    144 H144      -43.4890  -21.9008   10.0822 H         1 UNK         0.0832 
    145 H145      -43.6376  -22.5215   11.7162 H         1 UNK         0.0832 
    146 H146      -43.0684  -23.5788   10.4326 H         1 UNK         0.0832 
    147 H147      -44.5419  -23.3894    8.3847 H         1 UNK         0.3156 
    148 H148      -45.9557  -23.2534    6.3584 H         1 UNK         0.0589 
    149 H149      -45.9760  -26.2706    7.0099 H         1 UNK         0.0808 
    150 H150      -45.5104  -25.5790    5.4595 H         1 UNK         0.0808 
    151 H151      -44.5374  -25.2648    6.8832 H         1 UNK         0.0808 
    152 H152      -48.4265  -24.6264    6.9952 H         1 UNK         0.3098 
    153 H153      -50.2451  -23.8040    5.4031 H         1 UNK         0.0720 
    154 H154      -51.0949  -24.3462    3.1183 H         1 UNK         0.0791 
    155 H155      -49.4498  -24.6553    2.5669 H         1 UNK         0.0791 
    156 H156      -49.9193  -23.0420    3.0773 H         1 UNK         0.0791 
    157 H157      -50.6379  -25.9468    5.7998 H         1 UNK         0.3028 
@<TRIPOS>BOND
     1    1    2 1    
     2    1   82 1    
     3    1   83 1    
     4    1   84 1    
     5    2    3 2    
     6    2    4 am   BACKBONE|DICT|INTERRES
     7    4    5 1    
     8    4   85 1    
     9    5    6 1    
    10    5   80 1    
    11    5   86 1    
    12    6    7 1    
    13    6   87 1    
    14    6   88 1    
    15    7    8 1    
    16    8    9 1    
    17    8   89 1    
    18    8   90 1    
    19    9   10 ar   
    20    9   14 ar   
    21   10   11 ar   
    22   10   91 1    
    23   11   12 ar   
    24   11   58 1    
    25   12   13 ar   
    26   12   92 1    
    27   13   14 ar   
    28   13   15 1    
    29   14   93 1    
    30   15   16 1    
    31   15   94 1    
    32   15   95 1    
    33   16   17 1    
    34   17   18 1    
    35   17   96 1    
    36   17   97 1    
    37   18   19 1    
    38   18   22 1    
    39   18   98 1    
    40   19   20 am   BACKBONE|DICT|INTERRES
    41   19   21 2    
    42   20   99 1    
    43   20  100 1    
    44   22   23 am   BACKBONE|DICT|INTERRES
    45   22  101 1    
    46   23   24 2    
    47   23   25 1    
    48   25   26 1    
    49   25   27 1    
    50   25  102 1    
    51   26  103 1    
    52   26  104 1    
    53   26  105 1    
    54   27   28 am   BACKBONE|DICT|INTERRES
    55   27  106 1    
    56   28   29 2    
    57   28   30 1    
    58   30   31 1    
    59   30   32 1    
    60   30  107 1    
    61   31  108 1    
    62   31  109 1    
    63   31  110 1    
    64   32   33 am   BACKBONE|DICT|INTERRES
    65   32  111 1    
    66   33   34 2    
    67   33   35 1    
    68   35   36 1    
    69   35   37 1    
    70   35  112 1    
    71   36  113 1    
    72   36  114 1    
    73   36  115 1    
    74   37   38 am   BACKBONE|DICT|INTERRES
    75   37  116 1    
    76   38   39 2    
    77   38   40 1    
    78   40   41 1    
    79   40   42 1    
    80   40  117 1    
    81   41  118 1    
    82   41  119 1    
    83   41  120 1    
    84   42   43 am   BACKBONE|DICT|INTERRES
    85   42  121 1    
    86   43   44 2    
    87   43   45 1    
    88   45   46 1    
    89   45   47 1    
    90   45  122 1    
    91   46  123 1    
    92   46  124 1    
    93   46  125 1    
    94   47   48 am   BACKBONE|DICT|INTERRES
    95   47  126 1    
    96   48   49 2    
    97   48   50 1    
    98   50   51 1    
    99   50   52 1    
   100   50  127 1    
   101   51  128 1    
   102   51  129 1    
   103   51  130 1    
   104   52   53 am   BACKBONE|DICT|INTERRES
   105   52  131 1    
   106   53   54 2    
   107   53   55 1    
   108   55   56 1    
   109   55   59 1    
   110   55  132 1    
   111   56   57 1    
   112   56  133 1    
   113   56  134 1    
   114   57   58 1    
   115   58  135 1    
   116   58  136 1    
   117   59   60 am   BACKBONE|DICT|INTERRES
   118   59  137 1    
   119   60   61 2    
   120   60   62 1    
   121   62   63 1    
   122   62   64 1    
   123   62  138 1    
   124   63  139 1    
   125   63  140 1    
   126   63  141 1    
   127   64   65 am   BACKBONE|DICT|INTERRES
   128   64  142 1    
   129   65   66 2    
   130   65   67 1    
   131   67   68 1    
   132   67   69 1    
   133   67  143 1    
   134   68  144 1    
   135   68  145 1    
   136   68  146 1    
   137   69   70 am   BACKBONE|DICT|INTERRES
   138   69  147 1    
   139   70   71 2    
   140   70   72 1    
   141   72   73 1    
   142   72   74 1    
   143   72  148 1    
   144   73  149 1    
   145   73  150 1    
   146   73  151 1    
   147   74   75 am   BACKBONE|DICT|INTERRES
   148   74  152 1    
   149   75   76 2    
   150   75   77 1    
   151   77   78 1    
   152   77   79 1    
   153   77  153 1    
   154   78  154 1    
   155   78  155 1    
   156   78  156 1    
   157   79   80 am   BACKBONE|DICT|INTERRES
   158   79  157 1    
   159   80   81 2    
@<TRIPOS>SUBSTRUCTURE
     1 UNK         1 GROUP             0       ****    0 ROOT    
