@<TRIPOS>MOLECULE
3R207
157   159    1
SMALL
USER_CHARGES


@<TRIPOS>ATOM
      1 CA        -47.3836  -27.5932    4.0289 C.3       0 UNK        -0.1975 
      2 C         -47.9001  -26.3800    4.7867 C.2       0 UNK         0.4852 
      3 O         -47.6309  -25.2464    4.3855 O.2       0 UNK        -0.5216 
      4 N         -48.6299  -26.6052    5.8876 N.am      1 UNK        -0.4461 
      5 CA        -49.1742  -25.5661    6.7694 C.3       1 UNK         0.0864 
      6 C6        -50.0873  -26.1563    7.8690 C.3       14 UNK        -0.0898 
      7 S7        -51.5585  -26.9819    7.1719 S.3       14 UNK        -0.2598 
      8 C8        -51.3187  -28.7144    7.6894 C.3       14 UNK         0.0286 
      9 C9        -51.4822  -28.8758    9.1935 C.ar      14 UNK        -0.0844 
     10 C10       -50.3682  -29.0844   10.0114 C.ar      14 UNK        -0.0881 
     11 C11       -50.5118  -29.1618   11.4002 C.ar      14 UNK        -0.0643 
     12 C12       -51.7860  -29.0640   11.9676 C.ar      14 UNK        -0.0930 
     13 C13       -52.9089  -28.8815   11.1560 C.ar      14 UNK        -0.0827 
     14 C14       -52.7519  -28.7925    9.7704 C.ar      14 UNK        -0.1249 
     15 C15       -54.2845  -28.7136   11.7757 C.3       14 UNK         0.0141 
     16 S16       -54.9931  -30.2936   12.3251 S.3       14 UNK        -0.2313 
     17 C17       -56.7592  -29.8410   12.3675 C.3       14 UNK        -0.0915 
     18 CA        -57.1424  -28.9272   13.5611 C.3       13 UNK         0.0968 
     19 C         -58.6149  -28.4556   13.4140 C.2       13 UNK         0.5732 
     20 N         -58.8327  -27.3363   12.7380 N.am      13 UNK        -0.7310 
     21 O         -59.5522  -29.1181   13.8563 O.2       13 UNK        -0.5035 
     22 N         -56.8292  -29.5711   14.8440 N.am      13 UNK        -0.4233 
     23 C         -57.0646  -29.0715   16.0645 C.2       13 UNK         0.4989 
     24 O         -57.6180  -27.9954   16.2902 O.2       13 UNK        -0.4996 
     25 CA        -56.5069  -29.8877   17.2326 C.3       12 UNK         0.0216 
     26 CB        -56.9689  -31.3587   17.2186 C.3       12 UNK        -0.1964 
     27 N         -55.0549  -29.7906   17.1662 N.am      12 UNK        -0.4276 
     28 C         -54.1964  -29.9140   18.1789 C.2       12 UNK         0.5020 
     29 O         -54.5208  -30.2413   19.3212 O.2       12 UNK        -0.5489 
     30 CA        -52.7229  -29.5859   17.8710 C.3       11 UNK         0.0294 
     31 CB        -52.0610  -30.7008   17.0356 C.3       11 UNK        -0.2019 
     32 N         -52.5183  -28.2587   17.2644 N.am      11 UNK        -0.4493 
     33 C         -52.9246  -27.8109   16.0672 C.2       11 UNK         0.4932 
     34 O         -53.5379  -28.4949   15.2445 O.2       11 UNK        -0.5029 
     35 CA        -52.5678  -26.3544   15.7347 C.3       10 UNK         0.0280 
     36 CB        -51.1826  -26.2852   15.0794 C.3       10 UNK        -0.1976 
     37 N         -53.5591  -25.7550   14.8378 N.am      10 UNK        -0.4242 
     38 C         -54.7749  -25.3481   15.2368 C.2       10 UNK         0.5072 
     39 O         -55.1449  -25.3991   16.4111 O.2       10 UNK        -0.5224 
     40 CA        -55.7397  -24.7609   14.1869 C.3       9 UNK         0.0343 
     41 CB        -56.2535  -23.3762   14.6213 C.3       9 UNK        -0.2003 
     42 N         -55.1223  -24.6317   12.8657 N.am      9 UNK        -0.4272 
     43 C         -55.4808  -25.3141   11.7719 C.2       9 UNK         0.4988 
     44 O         -56.4389  -26.0873   11.7366 O.2       9 UNK        -0.5108 
     45 CA        -54.6442  -25.1125   10.4897 C.3       8 UNK         0.0248 
     46 CB        -55.4788  -24.3981    9.4138 C.3       8 UNK        -0.2001 
     47 N         -53.3704  -24.3978   10.6545 N.am      8 UNK        -0.4140 
     48 C         -52.3369  -24.8079   11.4009 C.2       8 UNK         0.5028 
     49 O         -52.3742  -25.7837   12.1496 O.2       8 UNK        -0.5428 
     50 CA        -51.0778  -23.9409   11.3633 C.3       7 UNK         0.0264 
     51 CB        -51.1793  -22.7921   12.3839 C.3       7 UNK        -0.1988 
     52 N         -49.9145  -24.7735   11.6639 N.am      7 UNK        -0.4454 
     53 C         -48.6672  -24.5094   11.2592 C.2       7 UNK         0.5027 
     54 O         -48.3775  -23.5072   10.5994 O.2       7 UNK        -0.5083 
     55 CA        -47.5612  -25.5057   11.6702 C.3       6 UNK         0.0844 
     56 C56       -47.9429  -26.9944   11.4567 C.3       14 UNK        -0.0967 
     57 S57       -48.6977  -27.7394   12.9375 S.3       14 UNK        -0.2604 
     58 C58       -49.2905  -29.3343   12.2900 C.3       14 UNK         0.0134 
     59 N         -46.3348  -25.1844   10.9447 N.am      6 UNK        -0.4116 
     60 C         -45.1195  -25.0456   11.4861 C.2       5 UNK         0.5034 
     61 O         -44.8882  -25.1513   12.6925 O.2       5 UNK        -0.5045 
     62 CA        -43.9674  -24.7425   10.5071 C.3       5 UNK         0.0224 
     63 CB        -42.5700  -24.9700   11.1231 C.3       5 UNK        -0.1978 
     64 N         -44.1001  -25.4579    9.2316 N.am      5 UNK        -0.4737 
     65 C         -44.1302  -26.7871    9.0323 C.2       4 UNK         0.5027 
     66 O         -43.9815  -27.6162    9.9302 O.2       4 UNK        -0.5211 
     67 CA        -44.3889  -27.2861    7.5958 C.3       4 UNK         0.0297 
     68 CB        -45.5732  -28.2700    7.5572 C.3       4 UNK        -0.1993 
     69 N         -44.6635  -26.1804    6.6760 N.am      4 UNK        -0.4486 
     70 C         -43.7480  -25.5626    5.9158 C.2       3 UNK         0.4961 
     71 O         -42.5796  -25.9360    5.8138 O.2       3 UNK        -0.5105 
     72 CA        -44.1954  -24.2946    5.1633 C.3       3 UNK         0.0299 
     73 CB        -44.3901  -24.5892    3.6673 C.3       3 UNK        -0.1972 
     74 N         -45.4168  -23.6965    5.7161 N.am      3 UNK        -0.4305 
     75 C         -45.4643  -23.0276    6.8802 C.2       2 UNK         0.5006 
     76 O         -44.4758  -22.8236    7.5847 O.2       2 UNK        -0.5106 
     77 CA        -46.8434  -22.5600    7.3817 C.3       2 UNK         0.0296 
     78 CB        -47.1486  -21.1415    6.8757 C.3       2 UNK        -0.2002 
     79 N         -47.9380  -23.4599    7.0087 N.am      2 UNK        -0.4032 
     80 C         -48.0273  -24.7426    7.3858 C.2       1 UNK         0.5000 
     81 O         -47.2134  -25.2962    8.1304 O.2       1 UNK        -0.5238 
     82 H82       -47.7579  -28.5263    4.4494 H         1 UNK         0.0889 
     83 H83       -46.2948  -27.6186    4.0608 H         1 UNK         0.0889 
     84 H84       -47.6938  -27.5430    2.9856 H         1 UNK         0.0889 
     85 H85       -48.8211  -27.5547    6.1692 H         1 UNK         0.3028 
     86 H86       -49.7816  -24.9012    6.1513 H         1 UNK         0.0864 
     87 H87       -50.4403  -25.3705    8.5392 H         1 UNK         0.0720 
     88 H88       -49.5274  -26.8553    8.4891 H         1 UNK         0.0720 
     89 H89       -50.3394  -29.0649    7.3606 H         1 UNK         0.0814 
     90 H90       -52.0532  -29.3396    7.1797 H         1 UNK         0.0814 
     91 H91       -49.3838  -29.1587    9.5703 H         1 UNK         0.1469 
     92 H92       -51.9058  -29.1079   13.0418 H         1 UNK         0.1381 
     93 H93       -53.6140  -28.6265    9.1389 H         1 UNK         0.1206 
     94 H94       -54.2218  -28.0290   12.6229 H         1 UNK         0.0813 
     95 H95       -54.9577  -28.2527   11.0534 H         1 UNK         0.0813 
     96 H96       -57.0088  -29.3624   11.4183 H         1 UNK         0.0638 
     97 H97       -57.3410  -30.7641   12.3980 H         1 UNK         0.0638 
     98 H98       -56.5145  -28.0362   13.5260 H         1 UNK         0.0568 
     99 H99       -58.0519  -26.8179   12.3415 H         1 UNK         0.3450 
    100 H100      -59.7765  -27.0107   12.6053 H         1 UNK         0.3450 
    101 H101      -56.3573  -30.4594   14.7707 H         1 UNK         0.2987 
    102 H102      -56.8523  -29.4211   18.1578 H         1 UNK         0.0766 
    103 H103      -56.5643  -31.9114   16.3703 H         1 UNK         0.0798 
    104 H104      -58.0565  -31.4255   17.1683 H         1 UNK         0.0798 
    105 H105      -56.6561  -31.8754   18.1261 H         1 UNK         0.0798 
    106 H106      -54.6677  -29.4372   16.2897 H         1 UNK         0.3198 
    107 H107      -52.2054  -29.5532   18.8314 H         1 UNK         0.0843 
    108 H108      -52.5217  -30.8114   16.0535 H         1 UNK         0.0831 
    109 H109      -52.1444  -31.6642   17.5404 H         1 UNK         0.0831 
    110 H110      -50.9995  -30.5048   16.8852 H         1 UNK         0.0831 
    111 H111      -52.0406  -27.5976   17.8622 H         1 UNK         0.3133 
    112 H112      -52.5399  -25.7743   16.6596 H         1 UNK         0.0566 
    113 H113      -50.9129  -25.2632   14.8143 H         1 UNK         0.0814 
    114 H114      -50.4084  -26.6651   15.7471 H         1 UNK         0.0814 
    115 H115      -51.1520  -26.8877   14.1722 H         1 UNK         0.0814 
    116 H116      -53.3224  -25.7603   13.8490 H         1 UNK         0.3091 
    117 H117      -56.5945  -25.4391   14.1448 H         1 UNK         0.0702 
    118 H118      -55.4389  -22.6591   14.7290 H         1 UNK         0.0785 
    119 H119      -56.9623  -22.9733   13.8976 H         1 UNK         0.0785 
    120 H120      -56.7707  -23.4306   15.5802 H         1 UNK         0.0785 
    121 H121      -54.3234  -24.0180   12.8001 H         1 UNK         0.2998 
    122 H122      -54.4000  -26.1085   10.1165 H         1 UNK         0.0697 
    123 H123      -55.7320  -23.3795    9.7102 H         1 UNK         0.0825 
    124 H124      -56.4160  -24.9257    9.2296 H         1 UNK         0.0825 
    125 H125      -54.9470  -24.3519    8.4632 H         1 UNK         0.0825 
    126 H126      -53.2629  -23.5568   10.1055 H         1 UNK         0.3029 
    127 H127      -50.9758  -23.5285   10.3568 H         1 UNK         0.0897 
    128 H128      -50.2966  -22.1532   12.3516 H         1 UNK         0.0792 
    129 H129      -51.2822  -23.1671   13.4030 H         1 UNK         0.0792 
    130 H130      -52.0421  -22.1570   12.1795 H         1 UNK         0.0792 
    131 H131      -50.1243  -25.6347   12.1581 H         1 UNK         0.3086 
    132 H132      -47.3930  -25.3281   12.7344 H         1 UNK         0.0583 
    133 H133      -48.5933  -27.1110   10.5917 H         1 UNK         0.1020 
    134 H134      -47.0534  -27.5872   11.2333 H         1 UNK         0.1020 
    135 H135      -48.4845  -29.8337   11.7500 H         1 UNK         0.0694 
    136 H136      -49.5418  -29.9823   13.1311 H         1 UNK         0.0694 
    137 H137      -46.4570  -25.0560    9.9438 H         1 UNK         0.2989 
    138 H138      -44.0514  -23.6804   10.2705 H         1 UNK         0.1055 
    139 H139      -42.4197  -24.3345   11.9967 H         1 UNK         0.0806 
    140 H140      -41.7795  -24.7317   10.4116 H         1 UNK         0.0806 
    141 H141      -42.4318  -26.0023   11.4459 H         1 UNK         0.0806 
    142 H142      -44.2299  -24.8601    8.4246 H         1 UNK         0.3061 
    143 H143      -43.4941  -27.8229    7.2741 H         1 UNK         0.0734 
    144 H144      -45.7590  -28.6285    6.5450 H         1 UNK         0.0832 
    145 H145      -45.3729  -29.1458    8.1757 H         1 UNK         0.0832 
    146 H146      -46.4921  -27.8166    7.9291 H         1 UNK         0.0832 
    147 H147      -45.5900  -25.7777    6.7458 H         1 UNK         0.3156 
    148 H148      -43.3904  -23.5621    5.2551 H         1 UNK         0.0589 
    149 H149      -43.4616  -24.9446    3.2184 H         1 UNK         0.0808 
    150 H150      -45.1439  -25.3571    3.4967 H         1 UNK         0.0808 
    151 H151      -44.6910  -23.6952    3.1210 H         1 UNK         0.0808 
    152 H152      -46.2786  -23.8808    5.2114 H         1 UNK         0.3098 
    153 H153      -46.8007  -22.5310    8.4728 H         1 UNK         0.0720 
    154 H154      -46.3574  -20.4470    7.1621 H         1 UNK         0.0791 
    155 H155      -48.0786  -20.7611    7.2988 H         1 UNK         0.0791 
    156 H156      -47.2338  -21.1085    5.7887 H         1 UNK         0.0791 
    157 H157      -48.6273  -23.0906    6.3695 H         1 UNK         0.3028 
@<TRIPOS>BOND
     1    1    2 1    
     2    1   82 1    
     3    1   83 1    
     4    1   84 1    
     5    2    3 2    
     6    2    4 am   BACKBONE|DICT|INTERRES
     7    4    5 1    
     8    4   85 1    
     9    5    6 1    
    10    5   80 1    
    11    5   86 1    
    12    6    7 1    
    13    6   87 1    
    14    6   88 1    
    15    7    8 1    
    16    8    9 1    
    17    8   89 1    
    18    8   90 1    
    19    9   10 ar   
    20    9   14 ar   
    21   10   11 ar   
    22   10   91 1    
    23   11   12 ar   
    24   11   58 1    
    25   12   13 ar   
    26   12   92 1    
    27   13   14 ar   
    28   13   15 1    
    29   14   93 1    
    30   15   16 1    
    31   15   94 1    
    32   15   95 1    
    33   16   17 1    
    34   17   18 1    
    35   17   96 1    
    36   17   97 1    
    37   18   19 1    
    38   18   22 1    
    39   18   98 1    
    40   19   20 am   BACKBONE|DICT|INTERRES
    41   19   21 2    
    42   20   99 1    
    43   20  100 1    
    44   22   23 am   BACKBONE|DICT|INTERRES
    45   22  101 1    
    46   23   24 2    
    47   23   25 1    
    48   25   26 1    
    49   25   27 1    
    50   25  102 1    
    51   26  103 1    
    52   26  104 1    
    53   26  105 1    
    54   27   28 am   BACKBONE|DICT|INTERRES
    55   27  106 1    
    56   28   29 2    
    57   28   30 1    
    58   30   31 1    
    59   30   32 1    
    60   30  107 1    
    61   31  108 1    
    62   31  109 1    
    63   31  110 1    
    64   32   33 am   BACKBONE|DICT|INTERRES
    65   32  111 1    
    66   33   34 2    
    67   33   35 1    
    68   35   36 1    
    69   35   37 1    
    70   35  112 1    
    71   36  113 1    
    72   36  114 1    
    73   36  115 1    
    74   37   38 am   BACKBONE|DICT|INTERRES
    75   37  116 1    
    76   38   39 2    
    77   38   40 1    
    78   40   41 1    
    79   40   42 1    
    80   40  117 1    
    81   41  118 1    
    82   41  119 1    
    83   41  120 1    
    84   42   43 am   BACKBONE|DICT|INTERRES
    85   42  121 1    
    86   43   44 2    
    87   43   45 1    
    88   45   46 1    
    89   45   47 1    
    90   45  122 1    
    91   46  123 1    
    92   46  124 1    
    93   46  125 1    
    94   47   48 am   BACKBONE|DICT|INTERRES
    95   47  126 1    
    96   48   49 2    
    97   48   50 1    
    98   50   51 1    
    99   50   52 1    
   100   50  127 1    
   101   51  128 1    
   102   51  129 1    
   103   51  130 1    
   104   52   53 am   BACKBONE|DICT|INTERRES
   105   52  131 1    
   106   53   54 2    
   107   53   55 1    
   108   55   56 1    
   109   55   59 1    
   110   55  132 1    
   111   56   57 1    
   112   56  133 1    
   113   56  134 1    
   114   57   58 1    
   115   58  135 1    
   116   58  136 1    
   117   59   60 am   BACKBONE|DICT|INTERRES
   118   59  137 1    
   119   60   61 2    
   120   60   62 1    
   121   62   63 1    
   122   62   64 1    
   123   62  138 1    
   124   63  139 1    
   125   63  140 1    
   126   63  141 1    
   127   64   65 am   BACKBONE|DICT|INTERRES
   128   64  142 1    
   129   65   66 2    
   130   65   67 1    
   131   67   68 1    
   132   67   69 1    
   133   67  143 1    
   134   68  144 1    
   135   68  145 1    
   136   68  146 1    
   137   69   70 am   BACKBONE|DICT|INTERRES
   138   69  147 1    
   139   70   71 2    
   140   70   72 1    
   141   72   73 1    
   142   72   74 1    
   143   72  148 1    
   144   73  149 1    
   145   73  150 1    
   146   73  151 1    
   147   74   75 am   BACKBONE|DICT|INTERRES
   148   74  152 1    
   149   75   76 2    
   150   75   77 1    
   151   77   78 1    
   152   77   79 1    
   153   77  153 1    
   154   78  154 1    
   155   78  155 1    
   156   78  156 1    
   157   79   80 am   BACKBONE|DICT|INTERRES
   158   79  157 1    
   159   80   81 2    
@<TRIPOS>SUBSTRUCTURE
     1 UNK         1 GROUP             0       ****    0 ROOT    
