@<TRIPOS>MOLECULE
3R207
157   159    1
SMALL
USER_CHARGES


@<TRIPOS>ATOM
      1 CA        -52.7918  -24.8576    9.3315 C.3       0 UNK        -0.1975 
      2 C         -52.8789  -24.4445    7.8636 C.2       0 UNK         0.4852 
      3 O         -53.7438  -23.6442    7.5137 O.2       0 UNK        -0.5216 
      4 N         -52.0166  -24.9508    6.9691 N.am      1 UNK        -0.4461 
      5 CA        -50.9270  -25.9023    7.2301 C.3       1 UNK         0.0864 
      6 C6        -50.4985  -26.6783    5.9566 C.3       14 UNK        -0.0898 
      7 S7        -51.8863  -27.4388    5.0485 S.3       14 UNK        -0.2598 
      8 C8        -51.9839  -29.0918    5.8086 C.3       14 UNK         0.0286 
      9 C9        -52.5299  -29.0345    7.2286 C.ar      14 UNK        -0.0844 
     10 C10       -51.7394  -29.4345    8.3100 C.ar      14 UNK        -0.0881 
     11 C11       -52.2445  -29.3785    9.6120 C.ar      14 UNK        -0.0643 
     12 C12       -53.5399  -28.9007    9.8272 C.ar      14 UNK        -0.0930 
     13 C13       -54.3566  -28.5279    8.7539 C.ar      14 UNK        -0.0827 
     14 C14       -53.8375  -28.5951    7.4580 C.ar      14 UNK        -0.1249 
     15 C15       -55.7968  -28.0471    8.9451 C.3       14 UNK         0.0141 
     16 S16       -56.6350  -28.6156   10.4688 S.3       14 UNK        -0.2313 
     17 C17       -56.5421  -30.4360   10.3238 C.3       14 UNK        -0.0915 
     18 CA        -56.4104  -31.1538   11.6969 C.3       13 UNK         0.0968 
     19 C         -56.3213  -32.6962   11.5052 C.2       13 UNK         0.5732 
     20 N         -55.2249  -33.3521   11.8669 N.am      13 UNK        -0.7310 
     21 O         -57.2704  -33.3097   11.0227 O.2       13 UNK        -0.5035 
     22 N         -55.3532  -30.5628   12.5367 N.am      13 UNK        -0.4233 
     23 C         -55.2420  -30.7163   13.8625 C.2       13 UNK         0.4989 
     24 O         -55.9684  -31.4516   14.5321 O.2       13 UNK        -0.4996 
     25 CA        -54.1452  -29.8990   14.5737 C.3       12 UNK         0.0216 
     26 CB        -52.8566  -30.7271   14.7064 C.3       12 UNK        -0.1964 
     27 N         -53.8293  -28.6114   13.9417 N.am      12 UNK        -0.4276 
     28 C         -54.6881  -27.5935   13.7875 C.2       12 UNK         0.5020 
     29 O         -55.8714  -27.6371   14.1289 O.2       12 UNK        -0.5489 
     30 CA        -54.1016  -26.3107   13.1689 C.3       11 UNK         0.0294 
     31 CB        -55.1667  -25.4419   12.4669 C.3       11 UNK        -0.2019 
     32 N         -53.3529  -25.5277   14.1599 N.am      11 UNK        -0.4493 
     33 C         -53.8207  -24.9535   15.2816 C.2       11 UNK         0.4932 
     34 O         -54.9988  -24.9843   15.6403 O.2       11 UNK        -0.5029 
     35 CA        -52.7921  -24.1848   16.1351 C.3       10 UNK         0.0280 
     36 CB        -53.3162  -23.8135   17.5393 C.3       10 UNK        -0.1976 
     37 N         -51.4964  -24.8633   16.2218 N.am      10 UNK        -0.4242 
     38 C         -51.2256  -26.0645   16.7574 C.2       10 UNK         0.5072 
     39 O         -52.0645  -26.7748   17.3127 O.2       10 UNK        -0.5224 
     40 CA        -49.7744  -26.5776   16.6473 C.3       9 UNK         0.0343 
     41 CB        -49.7193  -27.8711   15.8156 C.3       9 UNK        -0.2003 
     42 N         -48.8619  -25.5944   16.0554 N.am      9 UNK        -0.4272 
     43 C         -48.2826  -24.5817   16.7165 C.2       9 UNK         0.4988 
     44 O         -48.3750  -24.4150   17.9325 O.2       9 UNK        -0.5108 
     45 CA        -47.4964  -23.5622   15.8721 C.3       8 UNK         0.0248 
     46 CB        -46.0085  -23.9433   15.8110 C.3       8 UNK        -0.2001 
     47 N         -48.0301  -23.4266   14.5114 N.am      8 UNK        -0.4140 
     48 C         -49.1865  -22.8095   14.2148 C.2       8 UNK         0.5028 
     49 O         -49.8928  -22.2512   15.0534 O.2       8 UNK        -0.5428 
     50 CA        -49.6770  -22.8787   12.7550 C.3       7 UNK         0.0264 
     51 CB        -49.1206  -21.7050   11.9341 C.3       7 UNK        -0.1988 
     52 N         -49.3310  -24.1412   12.0992 N.am      7 UNK        -0.4454 
     53 C         -49.7671  -25.3460   12.4949 C.2       7 UNK         0.5027 
     54 O         -50.6232  -25.4935   13.3667 O.2       7 UNK        -0.5083 
     55 CA        -49.1012  -26.5905   11.8687 C.3       6 UNK         0.0844 
     56 C56       -50.0890  -27.3999   10.9976 C.3       14 UNK        -0.0967 
     57 S57       -51.0967  -28.5433   11.9949 S.3       14 UNK        -0.2604 
     58 C58       -51.4070  -29.8640   10.7863 C.3       14 UNK         0.0134 
     59 N         -47.8636  -26.2825   11.1448 N.am      6 UNK        -0.4116 
     60 C         -46.7118  -25.9075   11.7215 C.2       5 UNK         0.5034 
     61 O         -46.6106  -25.6884   12.9296 O.2       5 UNK        -0.5045 
     62 CA        -45.4911  -25.6814   10.8082 C.3       5 UNK         0.0224 
     63 CB        -44.1741  -26.1454   11.4652 C.3       5 UNK        -0.1978 
     64 N         -45.6454  -26.2385    9.4569 N.am      5 UNK        -0.4737 
     65 C         -45.7382  -27.5300    9.0962 C.2       4 UNK         0.5027 
     66 O         -45.6388  -28.4673    9.8876 O.2       4 UNK        -0.5211 
     67 CA        -46.0323  -27.8334    7.6130 C.3       4 UNK         0.0297 
     68 CB        -47.2023  -28.8261    7.4748 C.3       4 UNK        -0.1993 
     69 N         -46.3612  -26.6180    6.8643 N.am      4 UNK        -0.4486 
     70 C         -45.5057  -25.9155    6.1083 C.2       3 UNK         0.4961 
     71 O         -44.3463  -26.2628    5.8843 O.2       3 UNK        -0.5105 
     72 CA        -46.0168  -24.5868    5.5142 C.3       3 UNK         0.0299 
     73 CB        -46.4313  -24.7842    4.0471 C.3       3 UNK        -0.1972 
     74 N         -47.1376  -23.9941    6.2529 N.am      3 UNK        -0.4305 
     75 C         -47.0807  -23.5402    7.5143 C.2       2 UNK         0.5006 
     76 O         -46.0530  -23.5253    8.1904 O.2       2 UNK        -0.5106 
     77 CA        -48.4107  -23.1079    8.1589 C.3       2 UNK         0.0296 
     78 CB        -48.6766  -21.6157    7.9070 C.3       2 UNK        -0.2002 
     79 N         -49.5625  -23.8977    7.7060 N.am      2 UNK        -0.4032 
     80 C         -49.6878  -25.2266    7.8505 C.2       1 UNK         0.5000 
     81 O         -48.8475  -25.9234    8.4222 O.2       1 UNK        -0.5238 
     82 H82       -51.8359  -24.5710    9.7678 H         1 UNK         0.0889 
     83 H83       -53.5745  -24.3644    9.9068 H         1 UNK         0.0889 
     84 H84       -52.9319  -25.9322    9.4440 H         1 UNK         0.0889 
     85 H85       -52.1350  -24.6967    5.9983 H         1 UNK         0.3028 
     86 H86       -51.2780  -26.6363    7.9550 H         1 UNK         0.0864 
     87 H87       -49.7761  -27.4579    6.2066 H         1 UNK         0.0720 
     88 H88       -49.9896  -26.0128    5.2562 H         1 UNK         0.0720 
     89 H89       -51.0016  -29.5659    5.7792 H         1 UNK         0.0814 
     90 H90       -52.6424  -29.7172    5.2042 H         1 UNK         0.0814 
     91 H91       -50.7346  -29.7957    8.1380 H         1 UNK         0.1469 
     92 H92       -53.9097  -28.8328   10.8371 H         1 UNK         0.1381 
     93 H93       -54.4510  -28.2977    6.6182 H         1 UNK         0.1206 
     94 H94       -55.7980  -26.9564    8.9383 H         1 UNK         0.0813 
     95 H95       -56.4035  -28.3611    8.0943 H         1 UNK         0.0813 
     96 H96       -55.7069  -30.7102    9.6780 H         1 UNK         0.0638 
     97 H97       -57.4425  -30.7712    9.8060 H         1 UNK         0.0638 
     98 H98       -57.3485  -30.9849   12.2291 H         1 UNK         0.0568 
     99 H99       -55.1839  -34.3509   11.7404 H         1 UNK         0.3450 
    100 H100      -54.4453  -32.8607   12.2714 H         1 UNK         0.3450 
    101 H101      -54.7221  -29.9329   12.0717 H         1 UNK         0.2987 
    102 H102      -54.5114  -29.6805   15.5790 H         1 UNK         0.0766 
    103 H103      -52.4175  -30.9545   13.7348 H         1 UNK         0.0798 
    104 H104      -53.0524  -31.6770   15.2061 H         1 UNK         0.0798 
    105 H105      -52.1069  -30.2018   15.2983 H         1 UNK         0.0798 
    106 H106      -52.8722  -28.4827   13.6380 H         1 UNK         0.3198 
    107 H107      -53.3818  -26.6102   12.4057 H         1 UNK         0.0843 
    108 H108      -55.9632  -25.1388   13.1471 H         1 UNK         0.0831 
    109 H109      -55.6338  -25.9892   11.6481 H         1 UNK         0.0831 
    110 H110      -54.7277  -24.5377   12.0470 H         1 UNK         0.0831 
    111 H111      -52.3516  -25.4586   13.9789 H         1 UNK         0.3133 
    112 H112      -52.6022  -23.2516   15.6030 H         1 UNK         0.0566 
    113 H113      -52.5702  -23.2568   18.1064 H         1 UNK         0.0814 
    114 H114      -54.2047  -23.1847   17.4709 H         1 UNK         0.0814 
    115 H115      -53.5883  -24.6969   18.1177 H         1 UNK         0.0814 
    116 H116      -50.7324  -24.3755   15.7743 H         1 UNK         0.3091 
    117 H117      -49.4338  -26.8100   17.6584 H         1 UNK         0.0702 
    118 H118      -48.6991  -28.2435   15.7223 H         1 UNK         0.0785 
    119 H119      -50.1183  -27.7246   14.8121 H         1 UNK         0.0785 
    120 H120      -50.3087  -28.6599   16.2847 H         1 UNK         0.0785 
    121 H121      -48.7308  -25.6509   15.0560 H         1 UNK         0.2998 
    122 H122      -47.5759  -22.5916   16.3667 H         1 UNK         0.0697 
    123 H123      -45.8577  -24.9251   15.3611 H         1 UNK         0.0825 
    124 H124      -45.5755  -23.9767   16.8117 H         1 UNK         0.0825 
    125 H125      -45.4345  -23.2176   15.2346 H         1 UNK         0.0825 
    126 H126      -47.5193  -23.9051   13.7788 H         1 UNK         0.3029 
    127 H127      -50.7665  -22.7986   12.7724 H         1 UNK         0.0897 
    128 H128      -48.0354  -21.7542   11.8356 H         1 UNK         0.0792 
    129 H129      -49.3620  -20.7512   12.4057 H         1 UNK         0.0792 
    130 H130      -49.5506  -21.6843   10.9329 H         1 UNK         0.0792 
    131 H131      -48.6305  -24.1050   11.3750 H         1 UNK         0.3086 
    132 H132      -48.7983  -27.2231   12.7061 H         1 UNK         0.0583 
    133 H133      -50.7446  -26.7536   10.4145 H         1 UNK         0.1020 
    134 H134      -49.5372  -27.9959   10.2685 H         1 UNK         0.1020 
    135 H135      -50.4541  -30.2752   10.4495 H         1 UNK         0.0694 
    136 H136      -51.9340  -30.6804   11.2814 H         1 UNK         0.0694 
    137 H137      -47.9021  -26.3697   10.1343 H         1 UNK         0.2989 
    138 H138      -45.4224  -24.6003   10.6769 H         1 UNK         0.1055 
    139 H139      -43.9868  -25.6019   12.3922 H         1 UNK         0.0806 
    140 H140      -43.3204  -25.9691   10.8109 H         1 UNK         0.0806 
    141 H141      -44.1943  -27.2067   11.7140 H         1 UNK         0.0806 
    142 H142      -45.7373  -25.5398    8.7275 H         1 UNK         0.3061 
    143 H143      -45.1387  -28.3013    7.1948 H         1 UNK         0.0734 
    144 H144      -47.4294  -29.0298    6.4284 H         1 UNK         0.0832 
    145 H145      -46.9619  -29.7816    7.9428 H         1 UNK         0.0832 
    146 H146      -48.1103  -28.4535    7.9497 H         1 UNK         0.0832 
    147 H147      -47.2825  -26.2374    7.0425 H         1 UNK         0.3156 
    148 H148      -45.1876  -23.8767    5.5432 H         1 UNK         0.0589 
    149 H149      -47.2724  -25.4725    3.9530 H         1 UNK         0.0808 
    150 H150      -46.7146  -23.8395    3.5827 H         1 UNK         0.0808 
    151 H151      -45.6080  -25.1954    3.4611 H         1 UNK         0.0808 
    152 H152      -48.0228  -23.9499    5.7699 H         1 UNK         0.3098 
    153 H153      -48.3126  -23.2591    9.2352 H         1 UNK         0.0720 
    154 H154      -49.5787  -21.2796    8.4185 H         1 UNK         0.0791 
    155 H155      -48.7933  -21.3981    6.8446 H         1 UNK         0.0791 
    156 H156      -47.8511  -21.0052    8.2760 H         1 UNK         0.0791 
    157 H157      -50.2977  -23.3989    7.2247 H         1 UNK         0.3028 
@<TRIPOS>BOND
     1    1    2 1    
     2    1   82 1    
     3    1   83 1    
     4    1   84 1    
     5    2    3 2    
     6    2    4 am   BACKBONE|DICT|INTERRES
     7    4    5 1    
     8    4   85 1    
     9    5    6 1    
    10    5   80 1    
    11    5   86 1    
    12    6    7 1    
    13    6   87 1    
    14    6   88 1    
    15    7    8 1    
    16    8    9 1    
    17    8   89 1    
    18    8   90 1    
    19    9   10 ar   
    20    9   14 ar   
    21   10   11 ar   
    22   10   91 1    
    23   11   12 ar   
    24   11   58 1    
    25   12   13 ar   
    26   12   92 1    
    27   13   14 ar   
    28   13   15 1    
    29   14   93 1    
    30   15   16 1    
    31   15   94 1    
    32   15   95 1    
    33   16   17 1    
    34   17   18 1    
    35   17   96 1    
    36   17   97 1    
    37   18   19 1    
    38   18   22 1    
    39   18   98 1    
    40   19   20 am   BACKBONE|DICT|INTERRES
    41   19   21 2    
    42   20   99 1    
    43   20  100 1    
    44   22   23 am   BACKBONE|DICT|INTERRES
    45   22  101 1    
    46   23   24 2    
    47   23   25 1    
    48   25   26 1    
    49   25   27 1    
    50   25  102 1    
    51   26  103 1    
    52   26  104 1    
    53   26  105 1    
    54   27   28 am   BACKBONE|DICT|INTERRES
    55   27  106 1    
    56   28   29 2    
    57   28   30 1    
    58   30   31 1    
    59   30   32 1    
    60   30  107 1    
    61   31  108 1    
    62   31  109 1    
    63   31  110 1    
    64   32   33 am   BACKBONE|DICT|INTERRES
    65   32  111 1    
    66   33   34 2    
    67   33   35 1    
    68   35   36 1    
    69   35   37 1    
    70   35  112 1    
    71   36  113 1    
    72   36  114 1    
    73   36  115 1    
    74   37   38 am   BACKBONE|DICT|INTERRES
    75   37  116 1    
    76   38   39 2    
    77   38   40 1    
    78   40   41 1    
    79   40   42 1    
    80   40  117 1    
    81   41  118 1    
    82   41  119 1    
    83   41  120 1    
    84   42   43 am   BACKBONE|DICT|INTERRES
    85   42  121 1    
    86   43   44 2    
    87   43   45 1    
    88   45   46 1    
    89   45   47 1    
    90   45  122 1    
    91   46  123 1    
    92   46  124 1    
    93   46  125 1    
    94   47   48 am   BACKBONE|DICT|INTERRES
    95   47  126 1    
    96   48   49 2    
    97   48   50 1    
    98   50   51 1    
    99   50   52 1    
   100   50  127 1    
   101   51  128 1    
   102   51  129 1    
   103   51  130 1    
   104   52   53 am   BACKBONE|DICT|INTERRES
   105   52  131 1    
   106   53   54 2    
   107   53   55 1    
   108   55   56 1    
   109   55   59 1    
   110   55  132 1    
   111   56   57 1    
   112   56  133 1    
   113   56  134 1    
   114   57   58 1    
   115   58  135 1    
   116   58  136 1    
   117   59   60 am   BACKBONE|DICT|INTERRES
   118   59  137 1    
   119   60   61 2    
   120   60   62 1    
   121   62   63 1    
   122   62   64 1    
   123   62  138 1    
   124   63  139 1    
   125   63  140 1    
   126   63  141 1    
   127   64   65 am   BACKBONE|DICT|INTERRES
   128   64  142 1    
   129   65   66 2    
   130   65   67 1    
   131   67   68 1    
   132   67   69 1    
   133   67  143 1    
   134   68  144 1    
   135   68  145 1    
   136   68  146 1    
   137   69   70 am   BACKBONE|DICT|INTERRES
   138   69  147 1    
   139   70   71 2    
   140   70   72 1    
   141   72   73 1    
   142   72   74 1    
   143   72  148 1    
   144   73  149 1    
   145   73  150 1    
   146   73  151 1    
   147   74   75 am   BACKBONE|DICT|INTERRES
   148   74  152 1    
   149   75   76 2    
   150   75   77 1    
   151   77   78 1    
   152   77   79 1    
   153   77  153 1    
   154   78  154 1    
   155   78  155 1    
   156   78  156 1    
   157   79   80 am   BACKBONE|DICT|INTERRES
   158   79  157 1    
   159   80   81 2    
@<TRIPOS>SUBSTRUCTURE
     1 UNK         1 GROUP             0       ****    0 ROOT    
