@<TRIPOS>MOLECULE
3R207
157   159    1
SMALL
USER_CHARGES


@<TRIPOS>ATOM
      1 CA        -51.0867  -30.5145    8.8703 C.3       0 UNK        -0.1975 
      2 C         -49.7066  -30.2866    9.4798 C.2       0 UNK         0.4852 
      3 O         -49.3828  -30.9014   10.4935 O.2       0 UNK        -0.5216 
      4 N         -48.8578  -29.4308    8.9015 N.am      1 UNK        -0.4461 
      5 CA        -49.0495  -28.6577    7.6771 C.3       1 UNK         0.0864 
      6 C6        -49.8466  -27.3541    7.9400 C.3       14 UNK        -0.0898 
      7 S7        -50.3824  -26.5070    6.4149 S.3       14 UNK        -0.2598 
      8 C8        -52.0694  -27.1504    6.1849 C.3       14 UNK         0.0286 
      9 C9        -53.0854  -26.4623    7.0862 C.ar      14 UNK        -0.0844 
     10 C10       -53.4040  -25.1151    6.8847 C.ar      14 UNK        -0.0881 
     11 C11       -54.3702  -24.4833    7.6749 C.ar      14 UNK        -0.0643 
     12 C12       -55.0214  -25.2159    8.6728 C.ar      14 UNK        -0.0930 
     13 C13       -54.7275  -26.5696    8.8703 C.ar      14 UNK        -0.0827 
     14 C14       -53.7525  -27.1846    8.0800 C.ar      14 UNK        -0.1249 
     15 C15       -55.5073  -27.3763    9.8991 C.3       14 UNK         0.0141 
     16 S16       -54.6866  -27.3847   11.5197 S.3       14 UNK        -0.2313 
     17 C17       -53.6568  -28.8897   11.4387 C.3       14 UNK        -0.0915 
     18 CA        -54.2083  -30.0311   12.3308 C.3       13 UNK         0.0968 
     19 C         -53.3888  -31.3343   12.1377 C.2       13 UNK         0.5732 
     20 N         -53.7737  -32.1713   11.1833 N.am      13 UNK        -0.7310 
     21 O         -52.3912  -31.5756   12.8135 O.2       13 UNK        -0.5035 
     22 N         -54.2920  -29.6401   13.7470 N.am      13 UNK        -0.4233 
     23 C         -55.0859  -30.2492   14.6384 C.2       13 UNK         0.4989 
     24 O         -55.8276  -31.1919   14.3526 O.2       13 UNK        -0.4996 
     25 CA        -55.0909  -29.6881   16.0746 C.3       12 UNK         0.0216 
     26 CB        -55.8083  -30.6080   17.0869 C.3       12 UNK        -0.1964 
     27 N         -53.7622  -29.3054   16.5617 N.am      12 UNK        -0.4276 
     28 C         -52.6987  -30.0992   16.7688 C.2       12 UNK         0.5020 
     29 O         -52.7137  -31.3194   16.6017 O.2       12 UNK        -0.5489 
     30 CA        -51.3944  -29.4282   17.2483 C.3       11 UNK         0.0294 
     31 CB        -50.1950  -29.8743   16.3920 C.3       11 UNK        -0.2019 
     32 N         -51.4848  -27.9669   17.2010 N.am      11 UNK        -0.4493 
     33 C         -51.6970  -27.1617   18.2520 C.2       11 UNK         0.4932 
     34 O         -51.7468  -27.5570   19.4166 O.2       11 UNK        -0.5029 
     35 CA        -51.9213  -25.6627   17.9604 C.3       10 UNK         0.0280 
     36 CB        -50.6196  -24.8760   18.1788 C.3       10 UNK        -0.1976 
     37 N         -52.4299  -25.3947   16.6099 N.am      10 UNK        -0.4242 
     38 C         -53.6226  -25.8095   16.1502 C.2       10 UNK         0.5072 
     39 O         -54.4562  -26.3804   16.8529 O.2       10 UNK        -0.5224 
     40 CA        -53.9086  -25.6559   14.6438 C.3       9 UNK         0.0343 
     41 CB        -54.7255  -24.3842   14.3745 C.3       9 UNK        -0.2003 
     42 N         -52.6995  -25.6463   13.8151 N.am      9 UNK        -0.4272 
     43 C         -51.7783  -26.6235   13.7855 C.2       9 UNK         0.4988 
     44 O         -51.9534  -27.7165   14.3246 O.2       9 UNK        -0.5108 
     45 CA        -50.4143  -26.3299   13.1239 C.3       8 UNK         0.0248 
     46 CB        -50.2456  -27.1542   11.8378 C.3       8 UNK        -0.2001 
     47 N         -50.1743  -24.9121   12.8300 N.am      8 UNK        -0.4140 
     48 C         -50.1760  -23.9134   13.7309 C.2       8 UNK         0.5028 
     49 O         -50.2583  -24.0994   14.9461 O.2       8 UNK        -0.5428 
     50 CA        -50.1920  -22.4653   13.1986 C.3       7 UNK         0.0264 
     51 CB        -48.8108  -21.8118   13.3544 C.3       7 UNK        -0.1988 
     52 N         -50.6325  -22.3577   11.8032 N.am      7 UNK        -0.4454 
     53 C         -51.8387  -22.7297   11.3421 C.2       7 UNK         0.5027 
     54 O         -52.7642  -23.0630   12.0826 O.2       7 UNK        -0.5083 
     55 CA        -52.0314  -22.8221    9.8100 C.3       6 UNK         0.0844 
     56 C56       -53.0657  -21.7841    9.3142 C.3       14 UNK        -0.0967 
     57 S57       -53.3522  -21.8776    7.5134 S.3       14 UNK        -0.2604 
     58 C58       -54.7590  -23.0323    7.4083 C.3       14 UNK         0.0134 
     59 N         -50.7765  -22.7820    9.0432 N.am      6 UNK        -0.4116 
     60 C         -49.8127  -23.7094    9.1117 C.2       5 UNK         0.5034 
     61 O         -49.8694  -24.6646    9.8884 O.2       5 UNK        -0.5045 
     62 CA        -48.5949  -23.5334    8.1766 C.3       5 UNK         0.0224 
     63 CB        -48.1636  -22.0580    8.0193 C.3       5 UNK        -0.1978 
     64 N         -47.4453  -24.3598    8.5714 N.am      5 UNK        -0.4737 
     65 C         -46.7937  -24.3370    9.7457 C.2       4 UNK         0.5027 
     66 O         -47.0211  -23.5321   10.6491 O.2       4 UNK        -0.5211 
     67 CA        -45.7026  -25.4007    9.9573 C.3       4 UNK         0.0297 
     68 CB        -46.2886  -26.6194   10.6884 C.3       4 UNK        -0.1993 
     69 N         -45.0668  -25.8290    8.7067 N.am      4 UNK        -0.4486 
     70 C         -44.2026  -25.0671    8.0167 C.2       3 UNK         0.4961 
     71 O         -43.8288  -23.9555    8.3931 O.2       3 UNK        -0.5105 
     72 CA        -43.6433  -25.6175    6.6903 C.3       3 UNK         0.0299 
     73 CB        -42.2052  -26.1254    6.8859 C.3       3 UNK        -0.1972 
     74 N         -44.4448  -26.6822    6.0835 N.am      3 UNK        -0.4305 
     75 C         -45.6870  -26.5426    5.6025 C.2       2 UNK         0.5006 
     76 O         -46.3165  -25.4836    5.6265 O.2       2 UNK        -0.5106 
     77 CA        -46.3650  -27.8022    5.0276 C.3       2 UNK         0.0296 
     78 CB        -45.4339  -29.0312    4.9016 C.3       2 UNK        -0.2002 
     79 N         -47.5693  -28.1489    5.7889 N.am      2 UNK        -0.4032 
     80 C         -47.6456  -28.3771    7.1083 C.2       1 UNK         0.5000 
     81 O         -46.6717  -28.3542    7.8702 O.2       1 UNK        -0.5238 
     82 H82       -51.6648  -29.5936    8.8536 H         1 UNK         0.0889 
     83 H83       -51.6438  -31.2438    9.4570 H         1 UNK         0.0889 
     84 H84       -51.0075  -30.9015    7.8551 H         1 UNK         0.0889 
     85 H85       -47.9224  -29.3271    9.2775 H         1 UNK         0.3028 
     86 H86       -49.5810  -29.2747    6.9506 H         1 UNK         0.0864 
     87 H87       -49.2329  -26.6661    8.5196 H         1 UNK         0.0720 
     88 H88       -50.7257  -27.5413    8.5557 H         1 UNK         0.0720 
     89 H89       -52.0715  -28.2304    6.3399 H         1 UNK         0.0814 
     90 H90       -52.3621  -26.9939    5.1457 H         1 UNK         0.0814 
     91 H91       -52.9051  -24.5587    6.1029 H         1 UNK         0.1469 
     92 H92       -55.7813  -24.7414    9.2785 H         1 UNK         0.1381 
     93 H93       -53.5346  -28.2334    8.2204 H         1 UNK         0.1206 
     94 H94       -56.5034  -26.9485   10.0216 H         1 UNK         0.0813 
     95 H95       -55.6650  -28.3974    9.5489 H         1 UNK         0.0813 
     96 H96       -53.5847  -29.2168   10.4011 H         1 UNK         0.0638 
     97 H97       -52.6439  -28.6320   11.7423 H         1 UNK         0.0638 
     98 H98       -55.2259  -30.2351   11.9907 H         1 UNK         0.0568 
     99 H99       -53.2493  -33.0196   11.0394 H         1 UNK         0.3450 
    100 H100      -54.5904  -31.9868   10.6224 H         1 UNK         0.3450 
    101 H101      -53.6409  -28.9257   14.0513 H         1 UNK         0.2987 
    102 H102      -55.6646  -28.7616   16.0225 H         1 UNK         0.0766 
    103 H103      -56.8471  -30.7726   16.7981 H         1 UNK         0.0798 
    104 H104      -55.3323  -31.5866   17.1548 H         1 UNK         0.0798 
    105 H105      -55.8176  -30.1689   18.0845 H         1 UNK         0.0798 
    106 H106      -53.6553  -28.3161   16.7551 H         1 UNK         0.3198 
    107 H107      -51.2216  -29.7612   18.2738 H         1 UNK         0.0843 
    108 H108      -50.0439  -30.9523   16.4610 H         1 UNK         0.0831 
    109 H109      -49.2718  -29.3978   16.7218 H         1 UNK         0.0831 
    110 H110      -50.3398  -29.6348   15.3377 H         1 UNK         0.0831 
    111 H111      -51.4926  -27.5715   16.2660 H         1 UNK         0.3133 
    112 H112      -52.6641  -25.2974   18.6725 H         1 UNK         0.0566 
    113 H113      -50.7724  -23.8063   18.0346 H         1 UNK         0.0814 
    114 H114      -50.2430  -25.0161   19.1930 H         1 UNK         0.0814 
    115 H115      -49.8352  -25.1967   17.4919 H         1 UNK         0.0814 
    116 H116      -51.7866  -24.9362   15.9692 H         1 UNK         0.3091 
    117 H117      -54.5081  -26.5167   14.3432 H         1 UNK         0.0702 
    118 H118      -55.0194  -24.3206   13.3263 H         1 UNK         0.0785 
    119 H119      -54.1613  -23.4833   14.6191 H         1 UNK         0.0785 
    120 H120      -55.6403  -24.3720   14.9686 H         1 UNK         0.0785 
    121 H121      -52.5189  -24.7905   13.3024 H         1 UNK         0.2998 
    122 H122      -49.6455  -26.6451   13.8317 H         1 UNK         0.0697 
    123 H123      -51.0062  -26.9030   11.0970 H         1 UNK         0.0825 
    124 H124      -50.3215  -28.2227   12.0438 H         1 UNK         0.0825 
    125 H125      -49.2707  -26.9856   11.3816 H         1 UNK         0.0825 
    126 H126      -50.0823  -24.6776   11.8446 H         1 UNK         0.3029 
    127 H127      -50.9042  -21.9084   13.8112 H         1 UNK         0.0897 
    128 H128      -48.8273  -20.7659   13.0475 H         1 UNK         0.0792 
    129 H129      -48.4835  -21.8380   14.3948 H         1 UNK         0.0792 
    130 H130      -48.0523  -22.3250   12.7632 H         1 UNK         0.0792 
    131 H131      -49.9211  -22.1208   11.1267 H         1 UNK         0.3086 
    132 H132      -52.4588  -23.8118    9.6362 H         1 UNK         0.0583 
    133 H133      -54.0177  -21.9125    9.8337 H         1 UNK         0.1020 
    134 H134      -52.7302  -20.7720    9.5487 H         1 UNK         0.1020 
    135 H135      -55.5462  -22.7034    8.0884 H         1 UNK         0.0694 
    136 H136      -55.1810  -22.9696    6.4044 H         1 UNK         0.0694 
    137 H137      -50.6895  -22.0282    8.3777 H         1 UNK         0.2989 
    138 H138      -48.9067  -23.9007    7.1975 H         1 UNK         0.1055 
    139 H139      -47.2604  -21.9768    7.4141 H         1 UNK         0.0806 
    140 H140      -47.9582  -21.5892    8.9825 H         1 UNK         0.0806 
    141 H141      -48.9299  -21.4650    7.5194 H         1 UNK         0.0806 
    142 H142      -47.1554  -25.0500    7.8912 H         1 UNK         0.3061 
    143 H143      -44.9339  -24.9630   10.5981 H         1 UNK         0.0734 
    144 H144      -46.6815  -26.3318   11.6647 H         1 UNK         0.0832 
    145 H145      -47.1116  -27.0663   10.1312 H         1 UNK         0.0832 
    146 H146      -45.5346  -27.3888   10.8545 H         1 UNK         0.0832 
    147 H147      -45.3455  -26.7308    8.3339 H         1 UNK         0.3156 
    148 H148      -43.6160  -24.7849    5.9841 H         1 UNK         0.0589 
    149 H149      -42.1666  -26.9756    7.5681 H         1 UNK         0.0808 
    150 H150      -41.7583  -26.4312    5.9397 H         1 UNK         0.0808 
    151 H151      -41.5681  -25.3443    7.3037 H         1 UNK         0.0808 
    152 H152      -44.0250  -27.6000    6.0480 H         1 UNK         0.3098 
    153 H153      -46.6969  -27.5347    4.0232 H         1 UNK         0.0720 
    154 H154      -45.9534  -29.8626    4.4249 H         1 UNK         0.0791 
    155 H155      -45.0768  -29.3848    5.8697 H         1 UNK         0.0791 
    156 H156      -44.5637  -28.8081    4.2825 H         1 UNK         0.0791 
    157 H157      -48.4331  -28.1207    5.2645 H         1 UNK         0.3028 
@<TRIPOS>BOND
     1    1    2 1    
     2    1   82 1    
     3    1   83 1    
     4    1   84 1    
     5    2    3 2    
     6    2    4 am   BACKBONE|DICT|INTERRES
     7    4    5 1    
     8    4   85 1    
     9    5    6 1    
    10    5   80 1    
    11    5   86 1    
    12    6    7 1    
    13    6   87 1    
    14    6   88 1    
    15    7    8 1    
    16    8    9 1    
    17    8   89 1    
    18    8   90 1    
    19    9   10 ar   
    20    9   14 ar   
    21   10   11 ar   
    22   10   91 1    
    23   11   12 ar   
    24   11   58 1    
    25   12   13 ar   
    26   12   92 1    
    27   13   14 ar   
    28   13   15 1    
    29   14   93 1    
    30   15   16 1    
    31   15   94 1    
    32   15   95 1    
    33   16   17 1    
    34   17   18 1    
    35   17   96 1    
    36   17   97 1    
    37   18   19 1    
    38   18   22 1    
    39   18   98 1    
    40   19   20 am   BACKBONE|DICT|INTERRES
    41   19   21 2    
    42   20   99 1    
    43   20  100 1    
    44   22   23 am   BACKBONE|DICT|INTERRES
    45   22  101 1    
    46   23   24 2    
    47   23   25 1    
    48   25   26 1    
    49   25   27 1    
    50   25  102 1    
    51   26  103 1    
    52   26  104 1    
    53   26  105 1    
    54   27   28 am   BACKBONE|DICT|INTERRES
    55   27  106 1    
    56   28   29 2    
    57   28   30 1    
    58   30   31 1    
    59   30   32 1    
    60   30  107 1    
    61   31  108 1    
    62   31  109 1    
    63   31  110 1    
    64   32   33 am   BACKBONE|DICT|INTERRES
    65   32  111 1    
    66   33   34 2    
    67   33   35 1    
    68   35   36 1    
    69   35   37 1    
    70   35  112 1    
    71   36  113 1    
    72   36  114 1    
    73   36  115 1    
    74   37   38 am   BACKBONE|DICT|INTERRES
    75   37  116 1    
    76   38   39 2    
    77   38   40 1    
    78   40   41 1    
    79   40   42 1    
    80   40  117 1    
    81   41  118 1    
    82   41  119 1    
    83   41  120 1    
    84   42   43 am   BACKBONE|DICT|INTERRES
    85   42  121 1    
    86   43   44 2    
    87   43   45 1    
    88   45   46 1    
    89   45   47 1    
    90   45  122 1    
    91   46  123 1    
    92   46  124 1    
    93   46  125 1    
    94   47   48 am   BACKBONE|DICT|INTERRES
    95   47  126 1    
    96   48   49 2    
    97   48   50 1    
    98   50   51 1    
    99   50   52 1    
   100   50  127 1    
   101   51  128 1    
   102   51  129 1    
   103   51  130 1    
   104   52   53 am   BACKBONE|DICT|INTERRES
   105   52  131 1    
   106   53   54 2    
   107   53   55 1    
   108   55   56 1    
   109   55   59 1    
   110   55  132 1    
   111   56   57 1    
   112   56  133 1    
   113   56  134 1    
   114   57   58 1    
   115   58  135 1    
   116   58  136 1    
   117   59   60 am   BACKBONE|DICT|INTERRES
   118   59  137 1    
   119   60   61 2    
   120   60   62 1    
   121   62   63 1    
   122   62   64 1    
   123   62  138 1    
   124   63  139 1    
   125   63  140 1    
   126   63  141 1    
   127   64   65 am   BACKBONE|DICT|INTERRES
   128   64  142 1    
   129   65   66 2    
   130   65   67 1    
   131   67   68 1    
   132   67   69 1    
   133   67  143 1    
   134   68  144 1    
   135   68  145 1    
   136   68  146 1    
   137   69   70 am   BACKBONE|DICT|INTERRES
   138   69  147 1    
   139   70   71 2    
   140   70   72 1    
   141   72   73 1    
   142   72   74 1    
   143   72  148 1    
   144   73  149 1    
   145   73  150 1    
   146   73  151 1    
   147   74   75 am   BACKBONE|DICT|INTERRES
   148   74  152 1    
   149   75   76 2    
   150   75   77 1    
   151   77   78 1    
   152   77   79 1    
   153   77  153 1    
   154   78  154 1    
   155   78  155 1    
   156   78  156 1    
   157   79   80 am   BACKBONE|DICT|INTERRES
   158   79  157 1    
   159   80   81 2    
@<TRIPOS>SUBSTRUCTURE
     1 UNK         1 GROUP             0       ****    0 ROOT    
