@<TRIPOS>MOLECULE
3R207
157   159    1
SMALL
USER_CHARGES


@<TRIPOS>ATOM
      1 CA        -45.5027  -31.1878    5.1529 C.3       0 UNK        -0.1975 
      2 C         -46.4306  -30.1088    5.6903 C.2       0 UNK         0.4852 
      3 O         -46.0641  -29.4069    6.6334 O.2       0 UNK        -0.5216 
      4 N         -47.6189  -29.9643    5.0853 N.am      1 UNK        -0.4461 
      5 CA        -48.7113  -29.0330    5.4178 C.3       1 UNK         0.0864 
      6 C6        -49.2883  -29.2132    6.8482 C.3       14 UNK        -0.0898 
      7 S7        -50.1311  -30.8153    7.0462 S.3       14 UNK        -0.2598 
      8 C8        -51.8072  -30.4034    6.4630 C.3       14 UNK         0.0286 
      9 C9        -52.6235  -29.6643    7.5145 C.ar      14 UNK        -0.0844 
     10 C10       -52.7091  -28.2672    7.5045 C.ar      14 UNK        -0.0881 
     11 C11       -53.4974  -27.5959    8.4451 C.ar      14 UNK        -0.0643 
     12 C12       -54.2069  -28.3355    9.3981 C.ar      14 UNK        -0.0930 
     13 C13       -54.1386  -29.7329    9.4087 C.ar      14 UNK        -0.0827 
     14 C14       -53.3385  -30.3897    8.4710 C.ar      14 UNK        -0.1249 
     15 C15       -54.9626  -30.5375   10.4010 C.3       14 UNK         0.0141 
     16 S16       -54.0404  -30.8522   11.9354 S.3       14 UNK        -0.2313 
     17 C17       -55.3641  -31.5339   13.0002 C.3       14 UNK        -0.0915 
     18 CA        -55.9573  -30.4982   13.9943 C.3       13 UNK         0.0968 
     19 C         -54.9446  -30.1349   15.1186 C.2       13 UNK         0.5732 
     20 N         -54.3451  -28.9527   15.0953 N.am      13 UNK        -0.7310 
     21 O         -54.7120  -30.9374   16.0198 O.2       13 UNK        -0.5035 
     22 N         -56.5018  -29.3378   13.2787 N.am      13 UNK        -0.4233 
     23 C         -57.3401  -28.4293   13.7854 C.2       13 UNK         0.4989 
     24 O         -57.8800  -28.5194   14.8897 O.2       13 UNK        -0.4996 
     25 CA        -57.5987  -27.1999   12.8944 C.3       12 UNK         0.0216 
     26 CB        -59.0589  -26.7232   12.9953 C.3       12 UNK        -0.1964 
     27 N         -56.7077  -26.0744   13.1959 N.am      12 UNK        -0.4276 
     28 C         -55.3667  -26.0809   13.1691 C.2       12 UNK         0.5020 
     29 O         -54.6906  -27.0786   12.9157 O.2       12 UNK        -0.5489 
     30 CA        -54.6445  -24.7449   13.4135 C.3       11 UNK         0.0294 
     31 CB        -55.5736  -23.5333   13.6655 C.3       11 UNK        -0.2019 
     32 N         -53.6166  -24.8613   14.4504 N.am      11 UNK        -0.4493 
     33 C         -53.7994  -25.0438   15.7660 C.2       11 UNK         0.4932 
     34 O         -54.9014  -25.1923   16.2972 O.2       11 UNK        -0.5029 
     35 CA        -52.5255  -24.9977   16.6300 C.3       10 UNK         0.0280 
     36 CB        -52.7813  -25.2505   18.1323 C.3       10 UNK        -0.1976 
     37 N         -51.4607  -25.8524   16.0975 N.am      10 UNK        -0.4242 
     38 C         -51.4070  -27.1931   16.0899 C.2       10 UNK         0.5072 
     39 O         -52.2397  -27.9168   16.6362 O.2       10 UNK        -0.5224 
     40 CA        -50.2279  -27.8617   15.3537 C.3       9 UNK         0.0343 
     41 CB        -50.7237  -28.5612   14.0760 C.3       9 UNK        -0.2003 
     42 N         -49.1445  -26.9383   15.0051 N.am      9 UNK        -0.4272 
     43 C         -48.2900  -26.3915   15.8814 C.2       9 UNK         0.4988 
     44 O         -48.2623  -26.6762   17.0791 O.2       9 UNK        -0.5108 
     45 CA        -47.3298  -25.3156   15.3422 C.3       8 UNK         0.0248 
     46 CB        -46.0393  -25.9604   14.8128 C.3       8 UNK        -0.2001 
     47 N         -47.9256  -24.4644   14.3043 N.am      8 UNK        -0.4140 
     48 C         -48.9901  -23.6682   14.4890 C.2       8 UNK         0.5028 
     49 O         -49.5712  -23.5454   15.5670 O.2       8 UNK        -0.5428 
     50 CA        -49.5404  -22.9240   13.2605 C.3       7 UNK         0.0264 
     51 CB        -48.6778  -21.6970   12.9272 C.3       7 UNK        -0.1988 
     52 N         -49.6721  -23.7869   12.0830 N.am      7 UNK        -0.4454 
     53 C         -50.4756  -24.8606   12.0188 C.2       7 UNK         0.5027 
     54 O         -51.2233  -25.1929   12.9397 O.2       7 UNK        -0.5083 
     55 CA        -50.3868  -25.7425   10.7490 C.3       6 UNK         0.0844 
     56 C56       -51.2114  -25.1770    9.5662 C.3       14 UNK        -0.0967 
     57 S57       -53.0126  -25.2298    9.8613 S.3       14 UNK        -0.2604 
     58 C58       -53.6486  -26.0805    8.3816 C.3       14 UNK         0.0134 
     59 N         -48.9943  -25.9811   10.3589 N.am      6 UNK        -0.4116 
     60 C         -48.0807  -26.6032   11.1176 C.2       5 UNK         0.5034 
     61 O         -48.3260  -27.1223   12.2055 O.2       5 UNK        -0.5045 
     62 CA        -46.6331  -26.5861   10.6051 C.3       5 UNK         0.0224 
     63 CB        -46.4044  -27.6736    9.5439 C.3       5 UNK        -0.1978 
     64 N         -46.2603  -25.2730   10.0719 N.am      5 UNK        -0.4737 
     65 C         -46.0826  -24.1799   10.8276 C.2       4 UNK         0.5027 
     66 O         -46.1748  -24.1784   12.0535 O.2       4 UNK        -0.5211 
     67 CA        -45.7849  -22.8603   10.0956 C.3       4 UNK         0.0297 
     68 CB        -44.2800  -22.7303    9.8136 C.3       4 UNK        -0.1993 
     69 N         -46.5328  -22.7194    8.8447 N.am      4 UNK        -0.4486 
     70 C         -47.8672  -22.6149    8.7606 C.2       3 UNK         0.4961 
     71 O         -48.6170  -22.5798    9.7346 O.2       3 UNK        -0.5105 
     72 CA        -48.4697  -22.6201    7.3450 C.3       3 UNK         0.0299 
     73 CB        -48.4584  -21.2057    6.7445 C.3       3 UNK        -0.1972 
     74 N         -47.7877  -23.5523    6.4397 N.am      3 UNK        -0.4305 
     75 C         -47.7029  -24.8733    6.6465 C.2       2 UNK         0.5006 
     76 O         -48.2102  -25.4459    7.6154 O.2       2 UNK        -0.5106 
     77 CA        -46.8456  -25.6687    5.6479 C.3       2 UNK         0.0296 
     78 CB        -45.3585  -25.5737    6.0286 C.3       2 UNK        -0.2002 
     79 N         -47.2317  -27.0778    5.6240 N.am      2 UNK        -0.4032 
     80 C         -48.3883  -27.5497    5.1479 C.2       1 UNK         0.5000 
     81 O         -49.1988  -26.8624    4.5226 O.2       1 UNK        -0.5238 
     82 H82       -45.9463  -31.7305    4.3183 H         1 UNK         0.0889 
     83 H83       -45.2704  -31.9057    5.9390 H         1 UNK         0.0889 
     84 H84       -44.5689  -30.7425    4.8109 H         1 UNK         0.0889 
     85 H85       -47.8227  -30.5683    4.3009 H         1 UNK         0.3028 
     86 H86       -49.5072  -29.2785    4.7129 H         1 UNK         0.0864 
     87 H87       -48.5005  -29.1482    7.5991 H         1 UNK         0.0720 
     88 H88       -49.9867  -28.4145    7.0981 H         1 UNK         0.0720 
     89 H89       -51.7498  -29.8195    5.5433 H         1 UNK         0.0814 
     90 H90       -52.3171  -31.3299    6.1944 H         1 UNK         0.0814 
     91 H91       -52.1808  -27.7023    6.7488 H         1 UNK         0.1469 
     92 H92       -54.8248  -27.8199   10.1210 H         1 UNK         0.1381 
     93 H93       -53.2855  -31.4702    8.4744 H         1 UNK         0.1206 
     94 H94       -55.2563  -31.4911    9.9592 H         1 UNK         0.0813 
     95 H95       -55.8899  -30.0082   10.6211 H         1 UNK         0.0813 
     96 H96       -54.9614  -32.3932   13.5394 H         1 UNK         0.0638 
     97 H97       -56.1593  -31.9354   12.3703 H         1 UNK         0.0638 
     98 H98       -56.7967  -30.9816   14.4975 H         1 UNK         0.0568 
     99 H99       -54.5068  -28.3152   14.3203 H         1 UNK         0.3450 
    100 H100      -53.6671  -28.7053   15.8109 H         1 UNK         0.3450 
    101 H101      -56.0186  -29.1053   12.4237 H         1 UNK         0.2987 
    102 H102      -57.4188  -27.4890   11.8567 H         1 UNK         0.0766 
    103 H103      -59.2682  -25.9267   12.2808 H         1 UNK         0.0798 
    104 H104      -59.2961  -26.3506   13.9928 H         1 UNK         0.0798 
    105 H105      -59.7509  -27.5386   12.7798 H         1 UNK         0.0798 
    106 H106      -57.1600  -25.2078   13.4471 H         1 UNK         0.3198 
    107 H107      -54.0993  -24.5378   12.4928 H         1 UNK         0.0843 
    108 H108      -54.9929  -22.6201   13.7964 H         1 UNK         0.0831 
    109 H109      -56.1913  -23.6581   14.5554 H         1 UNK         0.0831 
    110 H110      -56.2387  -23.3627   12.8179 H         1 UNK         0.0831 
    111 H111      -52.6643  -24.8785   14.0884 H         1 UNK         0.3133 
    112 H112      -52.1481  -23.9779   16.5436 H         1 UNK         0.0566 
    113 H113      -51.8549  -25.2107   18.7051 H         1 UNK         0.0814 
    114 H114      -53.4494  -24.4925   18.5426 H         1 UNK         0.0814 
    115 H115      -53.2483  -26.2189   18.3125 H         1 UNK         0.0814 
    116 H116      -50.7103  -25.3505   15.6358 H         1 UNK         0.3091 
    117 H117      -49.8203  -28.6239   16.0207 H         1 UNK         0.0702 
    118 H118      -51.4840  -29.3085   14.3073 H         1 UNK         0.0785 
    119 H119      -49.9114  -29.0748   13.5616 H         1 UNK         0.0785 
    120 H120      -51.1700  -27.8543   13.3758 H         1 UNK         0.0785 
    121 H121      -49.0434  -26.7105   14.0202 H         1 UNK         0.2998 
    122 H122      -47.0642  -24.6669   16.1795 H         1 UNK         0.0697 
    123 H123      -46.2329  -26.6024   13.9534 H         1 UNK         0.0825 
    124 H124      -45.5661  -26.5750   15.5797 H         1 UNK         0.0825 
    125 H125      -45.3137  -25.2053   14.5099 H         1 UNK         0.0825 
    126 H126      -47.4642  -24.4650   13.3968 H         1 UNK         0.3029 
    127 H127      -50.5414  -22.5692   13.5155 H         1 UNK         0.0897 
    128 H128      -49.1067  -21.1224   12.1061 H         1 UNK         0.0792 
    129 H129      -48.6027  -21.0287   13.7860 H         1 UNK         0.0792 
    130 H130      -47.6639  -21.9784   12.6442 H         1 UNK         0.0792 
    131 H131      -49.1336  -23.5217   11.2608 H         1 UNK         0.3086 
    132 H132      -50.8047  -26.7185   11.0064 H         1 UNK         0.0583 
    133 H133      -50.9201  -24.1489    9.3435 H         1 UNK         0.1020 
    134 H134      -50.9904  -25.7496    8.6637 H         1 UNK         0.1020 
    135 H135      -54.7092  -25.8452    8.2822 H         1 UNK         0.0694 
    136 H136      -53.1659  -25.6708    7.4929 H         1 UNK         0.0694 
    137 H137      -48.7026  -25.6230    9.4531 H         1 UNK         0.2989 
    138 H138      -45.9816  -26.8037   11.4544 H         1 UNK         0.1055 
    139 H139      -46.6533  -28.6602    9.9370 H         1 UNK         0.0806 
    140 H140      -45.3624  -27.7077    9.2257 H         1 UNK         0.0806 
    141 H141      -47.0176  -27.5172    8.6575 H         1 UNK         0.0806 
    142 H142      -46.2278  -25.1791    9.0678 H         1 UNK         0.3061 
    143 H143      -46.0797  -22.0415   10.7551 H         1 UNK         0.0734 
    144 H144      -44.0406  -21.7634    9.3706 H         1 UNK         0.0832 
    145 H145      -43.7036  -22.8127   10.7363 H         1 UNK         0.0832 
    146 H146      -43.9239  -23.5086    9.1374 H         1 UNK         0.0832 
    147 H147      -45.9998  -22.7340    7.9878 H         1 UNK         0.3156 
    148 H148      -49.5088  -22.9449    7.4310 H         1 UNK         0.0589 
    149 H149      -47.4438  -20.8316    6.6024 H         1 UNK         0.0808 
    150 H150      -48.9647  -21.1801    5.7794 H         1 UNK         0.0808 
    151 H151      -48.9764  -20.5019    7.3978 H         1 UNK         0.0808 
    152 H152      -47.3435  -23.1545    5.6240 H         1 UNK         0.3098 
    153 H153      -46.9886  -25.2525    4.6486 H         1 UNK         0.0720 
    154 H154      -44.7345  -26.1126    5.3153 H         1 UNK         0.0791 
    155 H155      -45.1664  -25.9910    7.0180 H         1 UNK         0.0791 
    156 H156      -45.0155  -24.5383    6.0361 H         1 UNK         0.0791 
    157 H157      -46.6445  -27.7358    6.1322 H         1 UNK         0.3028 
@<TRIPOS>BOND
     1    1    2 1    
     2    1   82 1    
     3    1   83 1    
     4    1   84 1    
     5    2    3 2    
     6    2    4 am   BACKBONE|DICT|INTERRES
     7    4    5 1    
     8    4   85 1    
     9    5    6 1    
    10    5   80 1    
    11    5   86 1    
    12    6    7 1    
    13    6   87 1    
    14    6   88 1    
    15    7    8 1    
    16    8    9 1    
    17    8   89 1    
    18    8   90 1    
    19    9   10 ar   
    20    9   14 ar   
    21   10   11 ar   
    22   10   91 1    
    23   11   12 ar   
    24   11   58 1    
    25   12   13 ar   
    26   12   92 1    
    27   13   14 ar   
    28   13   15 1    
    29   14   93 1    
    30   15   16 1    
    31   15   94 1    
    32   15   95 1    
    33   16   17 1    
    34   17   18 1    
    35   17   96 1    
    36   17   97 1    
    37   18   19 1    
    38   18   22 1    
    39   18   98 1    
    40   19   20 am   BACKBONE|DICT|INTERRES
    41   19   21 2    
    42   20   99 1    
    43   20  100 1    
    44   22   23 am   BACKBONE|DICT|INTERRES
    45   22  101 1    
    46   23   24 2    
    47   23   25 1    
    48   25   26 1    
    49   25   27 1    
    50   25  102 1    
    51   26  103 1    
    52   26  104 1    
    53   26  105 1    
    54   27   28 am   BACKBONE|DICT|INTERRES
    55   27  106 1    
    56   28   29 2    
    57   28   30 1    
    58   30   31 1    
    59   30   32 1    
    60   30  107 1    
    61   31  108 1    
    62   31  109 1    
    63   31  110 1    
    64   32   33 am   BACKBONE|DICT|INTERRES
    65   32  111 1    
    66   33   34 2    
    67   33   35 1    
    68   35   36 1    
    69   35   37 1    
    70   35  112 1    
    71   36  113 1    
    72   36  114 1    
    73   36  115 1    
    74   37   38 am   BACKBONE|DICT|INTERRES
    75   37  116 1    
    76   38   39 2    
    77   38   40 1    
    78   40   41 1    
    79   40   42 1    
    80   40  117 1    
    81   41  118 1    
    82   41  119 1    
    83   41  120 1    
    84   42   43 am   BACKBONE|DICT|INTERRES
    85   42  121 1    
    86   43   44 2    
    87   43   45 1    
    88   45   46 1    
    89   45   47 1    
    90   45  122 1    
    91   46  123 1    
    92   46  124 1    
    93   46  125 1    
    94   47   48 am   BACKBONE|DICT|INTERRES
    95   47  126 1    
    96   48   49 2    
    97   48   50 1    
    98   50   51 1    
    99   50   52 1    
   100   50  127 1    
   101   51  128 1    
   102   51  129 1    
   103   51  130 1    
   104   52   53 am   BACKBONE|DICT|INTERRES
   105   52  131 1    
   106   53   54 2    
   107   53   55 1    
   108   55   56 1    
   109   55   59 1    
   110   55  132 1    
   111   56   57 1    
   112   56  133 1    
   113   56  134 1    
   114   57   58 1    
   115   58  135 1    
   116   58  136 1    
   117   59   60 am   BACKBONE|DICT|INTERRES
   118   59  137 1    
   119   60   61 2    
   120   60   62 1    
   121   62   63 1    
   122   62   64 1    
   123   62  138 1    
   124   63  139 1    
   125   63  140 1    
   126   63  141 1    
   127   64   65 am   BACKBONE|DICT|INTERRES
   128   64  142 1    
   129   65   66 2    
   130   65   67 1    
   131   67   68 1    
   132   67   69 1    
   133   67  143 1    
   134   68  144 1    
   135   68  145 1    
   136   68  146 1    
   137   69   70 am   BACKBONE|DICT|INTERRES
   138   69  147 1    
   139   70   71 2    
   140   70   72 1    
   141   72   73 1    
   142   72   74 1    
   143   72  148 1    
   144   73  149 1    
   145   73  150 1    
   146   73  151 1    
   147   74   75 am   BACKBONE|DICT|INTERRES
   148   74  152 1    
   149   75   76 2    
   150   75   77 1    
   151   77   78 1    
   152   77   79 1    
   153   77  153 1    
   154   78  154 1    
   155   78  155 1    
   156   78  156 1    
   157   79   80 am   BACKBONE|DICT|INTERRES
   158   79  157 1    
   159   80   81 2    
@<TRIPOS>SUBSTRUCTURE
     1 UNK         1 GROUP             0       ****    0 ROOT    
