@<TRIPOS>MOLECULE
3R207
157   159    1
SMALL
USER_CHARGES


@<TRIPOS>ATOM
      1 CA        -51.0049  -23.2186    1.4423 C.3       0 UNK        -0.1975 
      2 C         -50.9376  -23.7254    2.8757 C.2       0 UNK         0.4852 
      3 O         -51.8911  -23.5420    3.6334 O.2       0 UNK        -0.5216 
      4 N         -49.8199  -24.3578    3.2508 N.am      1 UNK        -0.4461 
      5 CA        -49.5640  -24.8819    4.5921 C.3       1 UNK         0.0864 
      6 C6        -50.3081  -26.2152    4.8722 C.3       14 UNK        -0.0898 
      7 S7        -50.1570  -26.7462    6.6090 S.3       14 UNK        -0.2598 
      8 C8        -51.7868  -27.5108    6.8881 C.3       14 UNK         0.0286 
      9 C9        -51.9267  -28.0403    8.3092 C.ar      14 UNK        -0.0844 
     10 C10       -51.0165  -28.9792    8.8007 C.ar      14 UNK        -0.0881 
     11 C11       -51.1252  -29.4657   10.1052 C.ar      14 UNK        -0.0643 
     12 C12       -52.1736  -29.0252   10.9197 C.ar      14 UNK        -0.0930 
     13 C13       -53.1043  -28.1001   10.4333 C.ar      14 UNK        -0.0827 
     14 C14       -52.9718  -27.6065    9.1309 C.ar      14 UNK        -0.1249 
     15 C15       -54.2607  -27.6385   11.3071 C.3       14 UNK         0.0141 
     16 S16       -55.6351  -28.8236   11.2133 S.3       14 UNK        -0.2313 
     17 C17       -57.0605  -27.8240   11.7645 C.3       14 UNK        -0.0915 
     18 CA        -57.0611  -27.4154   13.2697 C.3       13 UNK         0.0968 
     19 C         -58.3460  -26.6335   13.6731 C.2       13 UNK         0.5732 
     20 N         -58.8677  -26.7949   14.8834 N.am      13 UNK        -0.7310 
     21 O         -58.8644  -25.8410   12.8900 O.2       13 UNK        -0.5035 
     22 N         -56.6929  -28.4938   14.2017 N.am      13 UNK        -0.4233 
     23 C         -57.2363  -29.7144   14.3051 C.2       13 UNK         0.4989 
     24 O         -58.1956  -30.0987   13.6345 O.2       13 UNK        -0.4996 
     25 CA        -56.6200  -30.6647   15.3579 C.3       12 UNK         0.0216 
     26 CB        -56.5384  -32.1228   14.8572 C.3       12 UNK        -0.1964 
     27 N         -55.3259  -30.2031   15.8887 N.am      12 UNK        -0.4276 
     28 C         -54.1632  -30.0778   15.2294 C.2       12 UNK         0.5020 
     29 O         -53.9653  -30.4625   14.0765 O.2       12 UNK        -0.5489 
     30 CA        -53.0541  -29.3100   15.9696 C.3       11 UNK         0.0294 
     31 CB        -51.6786  -29.9663   15.7719 C.3       11 UNK        -0.2019 
     32 N         -52.9919  -27.9166   15.5184 N.am      11 UNK        -0.4493 
     33 C         -53.9474  -26.9967   15.7125 C.2       11 UNK         0.4932 
     34 O         -55.0178  -27.2356   16.2745 O.2       11 UNK        -0.5029 
     35 CA        -53.6576  -25.5804   15.1833 C.3       10 UNK         0.0280 
     36 CB        -54.7016  -24.5382   15.6349 C.3       10 UNK        -0.1976 
     37 N         -52.2988  -25.1326   15.5014 N.am      10 UNK        -0.4242 
     38 C         -51.7287  -25.0047   16.7101 C.2       10 UNK         0.5072 
     39 O         -52.3171  -25.1909   17.7759 O.2       10 UNK        -0.5224 
     40 CA        -50.2343  -24.6268   16.7444 C.3       9 UNK         0.0343 
     41 CB        -49.3852  -25.8674   17.0655 C.3       9 UNK        -0.2003 
     42 N         -49.7516  -24.0290   15.4958 N.am      9 UNK        -0.4272 
     43 C         -50.0666  -22.7966   15.0714 C.2       9 UNK         0.4988 
     44 O         -50.7212  -21.9895   15.7320 O.2       9 UNK        -0.5108 
     45 CA        -49.6082  -22.4152   13.6537 C.3       8 UNK         0.0248 
     46 CB        -48.1461  -21.9409   13.6622 C.3       8 UNK        -0.2001 
     47 N         -49.7672  -23.5094   12.6909 N.am      8 UNK        -0.4140 
     48 C         -50.9390  -24.0576   12.3350 C.2       8 UNK         0.5028 
     49 O         -52.0313  -23.6721   12.7493 O.2       8 UNK        -0.5428 
     50 CA        -50.8831  -25.2748   11.4021 C.3       7 UNK         0.0264 
     51 CB        -50.6283  -24.8493    9.9486 C.3       7 UNK        -0.1988 
     52 N         -49.8670  -26.2360   11.8301 N.am      7 UNK        -0.4454 
     53 C         -49.9809  -27.0302   12.9056 C.2       7 UNK         0.5027 
     54 O         -50.9902  -27.0895   13.6099 O.2       7 UNK        -0.5083 
     55 CA        -48.7480  -27.8664   13.3054 C.3       6 UNK         0.0844 
     56 C56       -48.8653  -29.3505   12.8856 C.3       14 UNK        -0.0967 
     57 S57       -48.5574  -29.6785   11.1175 S.3       14 UNK        -0.2604 
     58 C58       -50.1111  -30.4805   10.6066 C.3       14 UNK         0.0134 
     59 N         -47.4838  -27.2567   12.8846 N.am      6 UNK        -0.4116 
     60 C         -46.9785  -26.1371   13.4169 C.2       5 UNK         0.5034 
     61 O         -47.5219  -25.5007   14.3202 O.2       5 UNK        -0.5045 
     62 CA        -45.6696  -25.6191   12.8062 C.3       5 UNK         0.0224 
     63 CB        -44.4794  -26.4979   13.2232 C.3       5 UNK        -0.1978 
     64 N         -45.7114  -25.5050   11.3451 N.am      5 UNK        -0.4737 
     65 C         -46.5341  -24.7071   10.6552 C.2       4 UNK         0.5027 
     66 O         -47.4498  -24.0708   11.1728 O.2       4 UNK        -0.5211 
     67 CA        -46.2847  -24.5623    9.1440 C.3       4 UNK         0.0297 
     68 CB        -44.9486  -23.8459    8.8685 C.3       4 UNK        -0.1993 
     69 N         -46.3884  -25.7983    8.3602 N.am      4 UNK        -0.4486 
     70 C         -45.6564  -26.9204    8.4377 C.2       3 UNK         0.4961 
     71 O         -44.7825  -27.1279    9.2804 O.2       3 UNK        -0.5105 
     72 CA        -45.9274  -27.9860    7.3598 C.3       3 UNK         0.0299 
     73 CB        -47.0499  -28.9329    7.8090 C.3       3 UNK        -0.1972 
     74 N         -46.2669  -27.4041    6.0565 N.am      3 UNK        -0.4305 
     75 C         -45.4098  -26.7127    5.2879 C.2       2 UNK         0.5006 
     76 O         -44.2214  -26.5498    5.5674 O.2       2 UNK        -0.5106 
     77 CA        -45.9550  -26.0942    3.9855 C.3       2 UNK         0.0296 
     78 CB        -45.5871  -26.9750    2.7798 C.3       2 UNK        -0.2002 
     79 N         -47.4025  -25.8539    3.9806 N.am      2 UNK        -0.4032 
     80 C         -48.0434  -24.9905    4.7843 C.2       1 UNK         0.5000 
     81 O         -47.4832  -24.2969    5.6344 O.2       1 UNK        -0.5238 
     82 H82       -51.8501  -23.6710    0.9243 H         1 UNK         0.0889 
     83 H83       -50.0998  -23.4533    0.8825 H         1 UNK         0.0889 
     84 H84       -51.1386  -22.1372    1.4328 H         1 UNK         0.0889 
     85 H85       -49.0510  -24.4350    2.5985 H         1 UNK         0.3028 
     86 H86       -49.9181  -24.1391    5.3114 H         1 UNK         0.0864 
     87 H87       -49.9548  -27.0177    4.2229 H         1 UNK         0.0720 
     88 H88       -51.3675  -26.0934    4.6424 H         1 UNK         0.0720 
     89 H89       -51.9269  -28.3327    6.1848 H         1 UNK         0.0814 
     90 H90       -52.5652  -26.7769    6.6738 H         1 UNK         0.0814 
     91 H91       -50.2112  -29.3246    8.1674 H         1 UNK         0.1469 
     92 H92       -52.2745  -29.4054   11.9279 H         1 UNK         0.1381 
     93 H93       -53.6891  -26.8896    8.7554 H         1 UNK         0.1206 
     94 H94       -54.5987  -26.6495   10.9942 H         1 UNK         0.0813 
     95 H95       -53.9333  -27.5456   12.3439 H         1 UNK         0.0813 
     96 H96       -57.9601  -28.3973   11.5353 H         1 UNK         0.0638 
     97 H97       -57.1091  -26.9354   11.1327 H         1 UNK         0.0638 
     98 H98       -56.2634  -26.6819   13.3865 H         1 UNK         0.0568 
     99 H99       -59.6930  -26.2755   15.1377 H         1 UNK         0.3450 
    100 H100      -58.4427  -27.4245   15.5444 H         1 UNK         0.3450 
    101 H101      -55.9694  -28.2492   14.8683 H         1 UNK         0.2987 
    102 H102      -57.3083  -30.6506   16.2042 H         1 UNK         0.0766 
    103 H103      -56.0987  -32.7779   15.6091 H         1 UNK         0.0798 
    104 H104      -55.9431  -32.2068   13.9475 H         1 UNK         0.0798 
    105 H105      -57.5306  -32.5138   14.6290 H         1 UNK         0.0798 
    106 H106      -55.3700  -29.8039   16.8177 H         1 UNK         0.3198 
    107 H107      -53.2732  -29.3097   17.0396 H         1 UNK         0.0843 
    108 H108      -51.4126  -30.0158   14.7176 H         1 UNK         0.0831 
    109 H109      -51.6764  -30.9873   16.1553 H         1 UNK         0.0831 
    110 H110      -50.8938  -29.4186   16.2939 H         1 UNK         0.0831 
    111 H111      -52.1838  -27.6493   14.9596 H         1 UNK         0.3133 
    112 H112      -53.7067  -25.6455   14.0955 H         1 UNK         0.0566 
    113 H113      -54.4817  -23.5549   15.2189 H         1 UNK         0.0814 
    114 H114      -55.7023  -24.8148   15.3009 H         1 UNK         0.0814 
    115 H115      -54.7361  -24.4437   16.7207 H         1 UNK         0.0814 
    116 H116      -51.7152  -24.9579   14.6939 H         1 UNK         0.3091 
    117 H117      -50.0962  -23.8993   17.5470 H         1 UNK         0.0702 
    118 H118      -48.3254  -25.6196   17.1280 H         1 UNK         0.0785 
    119 H119      -49.5052  -26.6419   16.3078 H         1 UNK         0.0785 
    120 H120      -49.6743  -26.3018   18.0235 H         1 UNK         0.0785 
    121 H121      -49.1275  -24.5962   14.9275 H         1 UNK         0.2998 
    122 H122      -50.2333  -21.5863   13.3155 H         1 UNK         0.0697 
    123 H123      -47.4640  -22.7382   13.9598 H         1 UNK         0.0825 
    124 H124      -48.0069  -21.1132   14.3589 H         1 UNK         0.0825 
    125 H125      -47.8381  -21.5913   12.6766 H         1 UNK         0.0825 
    126 H126      -48.9146  -23.8512   12.2495 H         1 UNK         0.3029 
    127 H127      -51.8551  -25.7694   11.4429 H         1 UNK         0.0897 
    128 H128      -50.5805  -25.7169    9.2938 H         1 UNK         0.0792 
    129 H129      -49.6977  -24.2944    9.8343 H         1 UNK         0.0792 
    130 H130      -51.4348  -24.2123    9.5838 H         1 UNK         0.0792 
    131 H131      -48.9968  -26.2385   11.3196 H         1 UNK         0.3086 
    132 H132      -48.7420  -27.8657   14.3973 H         1 UNK         0.0583 
    133 H133      -48.1401  -29.9373   13.4516 H         1 UNK         0.1020 
    134 H134      -49.8371  -29.7497   13.1719 H         1 UNK         0.1020 
    135 H135      -49.8860  -31.1863    9.8057 H         1 UNK         0.0694 
    136 H136      -50.5242  -31.0779   11.4206 H         1 UNK         0.0694 
    137 H137      -46.9909  -27.7130   12.1303 H         1 UNK         0.2989 
    138 H138      -45.5059  -24.6161   13.2066 H         1 UNK         0.1055 
    139 H139      -44.4291  -26.5998   14.3083 H         1 UNK         0.0806 
    140 H140      -43.5345  -26.0630   12.8968 H         1 UNK         0.0806 
    141 H141      -44.5470  -27.5020   12.8025 H         1 UNK         0.0806 
    142 H142      -45.0487  -26.0579   10.8057 H         1 UNK         0.3061 
    143 H143      -47.0774  -23.9155    8.7636 H         1 UNK         0.0734 
    144 H144      -44.8332  -23.6261    7.8069 H         1 UNK         0.0832 
    145 H145      -44.8971  -22.8967    9.4035 H         1 UNK         0.0832 
    146 H146      -44.0903  -24.4418    9.1801 H         1 UNK         0.0832 
    147 H147      -47.0676  -25.7544    7.6120 H         1 UNK         0.3156 
    148 H148      -45.0162  -28.5751    7.2356 H         1 UNK         0.0589 
    149 H149      -47.9740  -28.3946    8.0211 H         1 UNK         0.0808 
    150 H150      -47.2639  -29.6901    7.0547 H         1 UNK         0.0808 
    151 H151      -46.7643  -29.4592    8.7203 H         1 UNK         0.0808 
    152 H152      -47.2210  -27.5070    5.7431 H         1 UNK         0.3098 
    153 H153      -45.4625  -25.1272    3.8620 H         1 UNK         0.0720 
    154 H154      -45.8753  -26.5039    1.8398 H         1 UNK         0.0791 
    155 H155      -46.0700  -27.9517    2.8301 H         1 UNK         0.0791 
    156 H156      -44.5104  -27.1465    2.7354 H         1 UNK         0.0791 
    157 H157      -47.9426  -26.3959    3.3214 H         1 UNK         0.3028 
@<TRIPOS>BOND
     1    1    2 1    
     2    1   82 1    
     3    1   83 1    
     4    1   84 1    
     5    2    3 2    
     6    2    4 am   BACKBONE|DICT|INTERRES
     7    4    5 1    
     8    4   85 1    
     9    5    6 1    
    10    5   80 1    
    11    5   86 1    
    12    6    7 1    
    13    6   87 1    
    14    6   88 1    
    15    7    8 1    
    16    8    9 1    
    17    8   89 1    
    18    8   90 1    
    19    9   10 ar   
    20    9   14 ar   
    21   10   11 ar   
    22   10   91 1    
    23   11   12 ar   
    24   11   58 1    
    25   12   13 ar   
    26   12   92 1    
    27   13   14 ar   
    28   13   15 1    
    29   14   93 1    
    30   15   16 1    
    31   15   94 1    
    32   15   95 1    
    33   16   17 1    
    34   17   18 1    
    35   17   96 1    
    36   17   97 1    
    37   18   19 1    
    38   18   22 1    
    39   18   98 1    
    40   19   20 am   BACKBONE|DICT|INTERRES
    41   19   21 2    
    42   20   99 1    
    43   20  100 1    
    44   22   23 am   BACKBONE|DICT|INTERRES
    45   22  101 1    
    46   23   24 2    
    47   23   25 1    
    48   25   26 1    
    49   25   27 1    
    50   25  102 1    
    51   26  103 1    
    52   26  104 1    
    53   26  105 1    
    54   27   28 am   BACKBONE|DICT|INTERRES
    55   27  106 1    
    56   28   29 2    
    57   28   30 1    
    58   30   31 1    
    59   30   32 1    
    60   30  107 1    
    61   31  108 1    
    62   31  109 1    
    63   31  110 1    
    64   32   33 am   BACKBONE|DICT|INTERRES
    65   32  111 1    
    66   33   34 2    
    67   33   35 1    
    68   35   36 1    
    69   35   37 1    
    70   35  112 1    
    71   36  113 1    
    72   36  114 1    
    73   36  115 1    
    74   37   38 am   BACKBONE|DICT|INTERRES
    75   37  116 1    
    76   38   39 2    
    77   38   40 1    
    78   40   41 1    
    79   40   42 1    
    80   40  117 1    
    81   41  118 1    
    82   41  119 1    
    83   41  120 1    
    84   42   43 am   BACKBONE|DICT|INTERRES
    85   42  121 1    
    86   43   44 2    
    87   43   45 1    
    88   45   46 1    
    89   45   47 1    
    90   45  122 1    
    91   46  123 1    
    92   46  124 1    
    93   46  125 1    
    94   47   48 am   BACKBONE|DICT|INTERRES
    95   47  126 1    
    96   48   49 2    
    97   48   50 1    
    98   50   51 1    
    99   50   52 1    
   100   50  127 1    
   101   51  128 1    
   102   51  129 1    
   103   51  130 1    
   104   52   53 am   BACKBONE|DICT|INTERRES
   105   52  131 1    
   106   53   54 2    
   107   53   55 1    
   108   55   56 1    
   109   55   59 1    
   110   55  132 1    
   111   56   57 1    
   112   56  133 1    
   113   56  134 1    
   114   57   58 1    
   115   58  135 1    
   116   58  136 1    
   117   59   60 am   BACKBONE|DICT|INTERRES
   118   59  137 1    
   119   60   61 2    
   120   60   62 1    
   121   62   63 1    
   122   62   64 1    
   123   62  138 1    
   124   63  139 1    
   125   63  140 1    
   126   63  141 1    
   127   64   65 am   BACKBONE|DICT|INTERRES
   128   64  142 1    
   129   65   66 2    
   130   65   67 1    
   131   67   68 1    
   132   67   69 1    
   133   67  143 1    
   134   68  144 1    
   135   68  145 1    
   136   68  146 1    
   137   69   70 am   BACKBONE|DICT|INTERRES
   138   69  147 1    
   139   70   71 2    
   140   70   72 1    
   141   72   73 1    
   142   72   74 1    
   143   72  148 1    
   144   73  149 1    
   145   73  150 1    
   146   73  151 1    
   147   74   75 am   BACKBONE|DICT|INTERRES
   148   74  152 1    
   149   75   76 2    
   150   75   77 1    
   151   77   78 1    
   152   77   79 1    
   153   77  153 1    
   154   78  154 1    
   155   78  155 1    
   156   78  156 1    
   157   79   80 am   BACKBONE|DICT|INTERRES
   158   79  157 1    
   159   80   81 2    
@<TRIPOS>SUBSTRUCTURE
     1 UNK         1 GROUP             0       ****    0 ROOT    
