@<TRIPOS>MOLECULE
3R207
157   159    1
SMALL
USER_CHARGES


@<TRIPOS>ATOM
      1 CA        -51.0739  -27.7161    0.9239 C.3       0 UNK        -0.1975 
      2 C         -50.3236  -27.2159    2.1498 C.2       0 UNK         0.4852 
      3 O         -49.5028  -26.3041    2.0349 O.2       0 UNK        -0.5216 
      4 N         -50.6057  -27.7989    3.3214 N.am      1 UNK        -0.4461 
      5 CA        -49.9316  -27.5045    4.5894 C.3       1 UNK         0.0864 
      6 C6        -50.8144  -27.8895    5.8056 C.3       14 UNK        -0.0898 
      7 S7        -51.2803  -29.6556    5.8769 S.3       14 UNK        -0.2598 
      8 C8        -52.8862  -29.5742    6.7338 C.3       14 UNK         0.0286 
      9 C9        -52.7633  -28.9673    8.1250 C.ar      14 UNK        -0.0844 
     10 C10       -53.3174  -27.7140    8.4011 C.ar      14 UNK        -0.0881 
     11 C11       -53.2037  -27.1508    9.6754 C.ar      14 UNK        -0.0643 
     12 C12       -52.5277  -27.8536   10.6787 C.ar      14 UNK        -0.0930 
     13 C13       -51.9737  -29.1096   10.4167 C.ar      14 UNK        -0.0827 
     14 C14       -52.0968  -29.6613    9.1383 C.ar      14 UNK        -0.1249 
     15 C15       -51.2196  -29.8645   11.5037 C.3       14 UNK         0.0141 
     16 S16       -52.2958  -30.4482   12.8541 S.3       14 UNK        -0.2313 
     17 C17       -53.5148  -31.5015   11.9913 C.3       14 UNK        -0.0915 
     18 CA        -54.9895  -31.1360   12.3156 C.3       13 UNK         0.0968 
     19 C         -55.4255  -31.6458   13.7199 C.2       13 UNK         0.5732 
     20 N         -55.6514  -32.9454   13.8604 N.am      13 UNK        -0.7310 
     21 O         -55.5406  -30.8898   14.6834 O.2       13 UNK        -0.5035 
     22 N         -55.2520  -29.7047   12.1129 N.am      13 UNK        -0.4233 
     23 C         -56.4673  -29.1559   12.0283 C.2       13 UNK         0.4989 
     24 O         -57.5168  -29.8022   12.0031 O.2       13 UNK        -0.4996 
     25 CA        -56.5124  -27.6213   12.0068 C.3       12 UNK         0.0216 
     26 CB        -57.7923  -27.0761   11.3468 C.3       12 UNK        -0.1964 
     27 N         -56.4205  -27.1123   13.3748 N.am      12 UNK        -0.4276 
     28 C         -55.2761  -26.8685   14.0233 C.2       12 UNK         0.5020 
     29 O         -54.1577  -26.9670   13.5121 O.2       12 UNK        -0.5489 
     30 CA        -55.4023  -26.4713   15.4982 C.3       11 UNK         0.0294 
     31 CB        -55.6310  -27.7192   16.3735 C.3       11 UNK        -0.2019 
     32 N         -54.1735  -25.7947   15.8996 N.am      11 UNK        -0.4493 
     33 C         -53.9934  -25.0566   17.0020 C.2       11 UNK         0.4932 
     34 O         -54.8896  -24.8188   17.8139 O.2       11 UNK        -0.5029 
     35 CA        -52.5771  -24.4859   17.2318 C.3       10 UNK         0.0280 
     36 CB        -52.2919  -24.1403   18.7090 C.3       10 UNK        -0.1976 
     37 N         -51.5224  -25.3391   16.6686 N.am      10 UNK        -0.4242 
     38 C         -51.2132  -26.5944   17.0313 C.2       10 UNK         0.5072 
     39 O         -51.7189  -27.1852   17.9864 O.2       10 UNK        -0.5224 
     40 CA        -50.1905  -27.3389   16.1591 C.3       9 UNK         0.0343 
     41 CB        -50.9164  -28.1087   15.0470 C.3       9 UNK        -0.2003 
     42 N         -49.1840  -26.4608   15.5595 N.am      9 UNK        -0.4272 
     43 C         -48.1439  -25.9437   16.2284 C.2       9 UNK         0.4988 
     44 O         -47.9161  -26.1619   17.4191 O.2       9 UNK        -0.5108 
     45 CA        -47.1966  -25.0249   15.4379 C.3       8 UNK         0.0248 
     46 CB        -46.2739  -25.8443   14.5208 C.3       8 UNK        -0.2001 
     47 N         -47.9095  -24.0198   14.6481 N.am      8 UNK        -0.4140 
     48 C         -48.6524  -23.0301   15.1658 C.2       8 UNK         0.5028 
     49 O         -48.7854  -22.8245   16.3724 O.2       8 UNK        -0.5428 
     50 CA        -49.3888  -22.1246   14.1673 C.3       7 UNK         0.0264 
     51 CB        -48.4612  -21.0131   13.6522 C.3       7 UNK        -0.1988 
     52 N         -49.9316  -22.8809   13.0377 N.am      7 UNK        -0.4454 
     53 C         -50.9906  -23.6995   13.1232 C.2       7 UNK         0.5027 
     54 O         -51.6366  -23.8757   14.1550 O.2       7 UNK        -0.5083 
     55 CA        -51.3776  -24.4763   11.8529 C.3       6 UNK         0.0844 
     56 C56       -52.3105  -23.6274   10.9555 C.3       14 UNK        -0.0967 
     57 S57       -52.7501  -24.4406    9.3816 S.3       14 UNK        -0.2604 
     58 C58       -53.8252  -25.7902    9.9558 C.3       14 UNK         0.0134 
     59 N         -50.2055  -24.9775   11.1347 N.am      6 UNK        -0.4116 
     60 C         -49.3501  -25.8934   11.6054 C.2       5 UNK         0.5034 
     61 O         -49.4393  -26.4195   12.7136 O.2       5 UNK        -0.5045 
     62 CA        -48.1641  -26.2436   10.6967 C.3       5 UNK         0.0224 
     63 CB        -48.5819  -27.2973    9.6578 C.3       5 UNK        -0.1978 
     64 N         -47.5938  -25.0791   10.0110 N.am      5 UNK        -0.4737 
     65 C         -47.0910  -23.9843   10.5972 C.2       4 UNK         0.5027 
     66 O         -47.0999  -23.8088   11.8174 O.2       4 UNK        -0.5211 
     67 CA        -46.4958  -22.9051    9.6645 C.3       4 UNK         0.0297 
     68 CB        -45.6849  -21.8464   10.4344 C.3       4 UNK        -0.1993 
     69 N         -45.6524  -23.4586    8.5973 N.am      4 UNK        -0.4486 
     70 C         -46.0906  -24.0688    7.4888 C.2       3 UNK         0.4961 
     71 O         -47.2874  -24.2480    7.2472 O.2       3 UNK        -0.5105 
     72 CA        -45.0403  -24.5884    6.4851 C.3       3 UNK         0.0299 
     73 CB        -43.5950  -24.6372    7.0340 C.3       3 UNK        -0.1972 
     74 N         -45.4523  -25.8864    5.9363 N.am      3 UNK        -0.4305 
     75 C         -45.6252  -27.0267    6.6219 C.2       2 UNK         0.5006 
     76 O         -45.3157  -27.1808    7.8043 O.2       2 UNK        -0.5106 
     77 CA        -46.3528  -28.1446    5.8674 C.3       2 UNK         0.0296 
     78 CB        -46.3737  -29.4846    6.6335 C.3       2 UNK        -0.2002 
     79 N         -47.7150  -27.6819    5.6092 N.am      2 UNK        -0.4032 
     80 C         -48.5270  -28.1481    4.6542 C.2       1 UNK         0.5000 
     81 O         -48.2106  -29.0457    3.8665 O.2       1 UNK        -0.5238 
     82 H82       -51.7772  -28.5107    1.1726 H         1 UNK         0.0889 
     83 H83       -50.3710  -28.1041    0.1871 H         1 UNK         0.0889 
     84 H84       -51.6324  -26.8999    0.4664 H         1 UNK         0.0889 
     85 H85       -51.2571  -28.5702    3.3538 H         1 UNK         0.3028 
     86 H86       -49.7797  -26.4234    4.6343 H         1 UNK         0.0864 
     87 H87       -50.3232  -27.6273    6.7441 H         1 UNK         0.0720 
     88 H88       -51.7261  -27.2906    5.7805 H         1 UNK         0.0720 
     89 H89       -53.2934  -30.5827    6.8180 H         1 UNK         0.0814 
     90 H90       -53.5920  -29.0105    6.1217 H         1 UNK         0.0814 
     91 H91       -53.8346  -27.1695    7.6230 H         1 UNK         0.1469 
     92 H92       -52.4325  -27.4342   11.6694 H         1 UNK         0.1381 
     93 H93       -51.6657  -30.6297    8.9241 H         1 UNK         0.1206 
     94 H94       -50.6865  -30.7187   11.0839 H         1 UNK         0.0813 
     95 H95       -50.4578  -29.2081   11.9269 H         1 UNK         0.0813 
     96 H96       -53.3053  -32.5438   12.2378 H         1 UNK         0.0638 
     97 H97       -53.3608  -31.4290   10.9152 H         1 UNK         0.0638 
     98 H98       -55.6139  -31.6676   11.5947 H         1 UNK         0.0568 
     99 H99       -55.9258  -33.2974   14.7640 H         1 UNK         0.3450 
    100 H100      -55.5553  -33.5804   13.0835 H         1 UNK         0.3450 
    101 H101      -54.4469  -29.0989   12.2041 H         1 UNK         0.2987 
    102 H102      -55.6637  -27.2720   11.4200 H         1 UNK         0.0766 
    103 H103      -57.7720  -25.9879   11.2860 H         1 UNK         0.0798 
    104 H104      -58.6903  -27.3640   11.8951 H         1 UNK         0.0798 
    105 H105      -57.8959  -27.4548   10.3290 H         1 UNK         0.0798 
    106 H106      -57.2901  -27.0472   13.8850 H         1 UNK         0.3198 
    107 H107      -56.2400  -25.7792   15.6067 H         1 UNK         0.0843 
    108 H108      -56.5298  -28.2572   16.0698 H         1 UNK         0.0831 
    109 H109      -55.7529  -27.4573   17.4244 H         1 UNK         0.0831 
    110 H110      -54.7958  -28.4173   16.2977 H         1 UNK         0.0831 
    111 H111      -53.4129  -25.9082   15.2389 H         1 UNK         0.3133 
    112 H112      -52.5373  -23.5518   16.6704 H         1 UNK         0.0566 
    113 H113      -51.2842  -23.7438   18.8346 H         1 UNK         0.0814 
    114 H114      -52.9855  -23.3815   19.0729 H         1 UNK         0.0814 
    115 H115      -52.3952  -25.0101   19.3582 H         1 UNK         0.0814 
    116 H116      -51.0852  -24.9626   15.8346 H         1 UNK         0.3091 
    117 H117      -49.6799  -28.0661   16.7942 H         1 UNK         0.0702 
    118 H118      -50.2185  -28.7084   14.4630 H         1 UNK         0.0785 
    119 H119      -51.4365  -27.4395   14.3599 H         1 UNK         0.0785 
    120 H120      -51.6613  -28.7890   15.4623 H         1 UNK         0.0785 
    121 H121      -49.2704  -26.2847   14.5602 H         1 UNK         0.2998 
    122 H122      -46.5707  -24.4943   16.1585 H         1 UNK         0.0697 
    123 H123      -46.8367  -26.3930   13.7654 H         1 UNK         0.0825 
    124 H124      -45.7010  -26.5736   15.0949 H         1 UNK         0.0825 
    125 H125      -45.5593  -25.2039   14.0031 H         1 UNK         0.0825 
    126 H126      -47.8025  -24.0695   13.6384 H         1 UNK         0.3029 
    127 H127      -50.2217  -21.6544   14.6954 H         1 UNK         0.0897 
    128 H128      -48.9785  -20.3508   12.9578 H         1 UNK         0.0792 
    129 H129      -48.0985  -20.3983   14.4771 H         1 UNK         0.0792 
    130 H130      -47.5873  -21.4205   13.1442 H         1 UNK         0.0792 
    131 H131      -49.4185  -22.8349   12.1690 H         1 UNK         0.3086 
    132 H132      -51.9413  -25.3449   12.1933 H         1 UNK         0.0583 
    133 H133      -53.2308  -23.3788   11.4886 H         1 UNK         0.1020 
    134 H134      -51.8414  -22.6727   10.7086 H         1 UNK         0.1020 
    135 H135      -54.0357  -25.6777   11.0198 H         1 UNK         0.0694 
    136 H136      -54.7880  -25.7142    9.4482 H         1 UNK         0.0694 
    137 H137      -50.0610  -24.6173   10.2031 H         1 UNK         0.2989 
    138 H138      -47.3808  -26.6697   11.3266 H         1 UNK         0.1055 
    139 H139      -48.9708  -28.1927   10.1437 H         1 UNK         0.0806 
    140 H140      -47.7355  -27.6071    9.0462 H         1 UNK         0.0806 
    141 H141      -49.3624  -26.9258    8.9926 H         1 UNK         0.0806 
    142 H142      -47.5611  -25.1077    8.9967 H         1 UNK         0.3061 
    143 H143      -47.3421  -22.3953    9.1991 H         1 UNK         0.0734 
    144 H144      -46.3085  -21.3282   11.1627 H         1 UNK         0.0832 
    145 H145      -44.8512  -22.2932   10.9777 H         1 UNK         0.0832 
    146 H146      -45.2826  -21.0865    9.7643 H         1 UNK         0.0832 
    147 H147      -44.6545  -23.3983    8.7401 H         1 UNK         0.3156 
    148 H148      -45.0505  -23.8883    5.6486 H         1 UNK         0.0589 
    149 H149      -43.5155  -25.2407    7.9391 H         1 UNK         0.0808 
    150 H150      -42.9122  -25.0605    6.2972 H         1 UNK         0.0808 
    151 H151      -43.2252  -23.6380    7.2669 H         1 UNK         0.0808 
    152 H152      -45.7771  -25.8626    4.9793 H         1 UNK         0.3098 
    153 H153      -45.8325  -28.2932    4.9186 H         1 UNK         0.0720 
    154 H154      -46.9252  -29.4065    7.5708 H         1 UNK         0.0791 
    155 H155      -45.3616  -29.8121    6.8743 H         1 UNK         0.0791 
    156 H156      -46.8357  -30.2745    6.0413 H         1 UNK         0.0791 
    157 H157      -48.0322  -26.9244    6.2001 H         1 UNK         0.3028 
@<TRIPOS>BOND
     1    1    2 1    
     2    1   82 1    
     3    1   83 1    
     4    1   84 1    
     5    2    3 2    
     6    2    4 am   BACKBONE|DICT|INTERRES
     7    4    5 1    
     8    4   85 1    
     9    5    6 1    
    10    5   80 1    
    11    5   86 1    
    12    6    7 1    
    13    6   87 1    
    14    6   88 1    
    15    7    8 1    
    16    8    9 1    
    17    8   89 1    
    18    8   90 1    
    19    9   10 ar   
    20    9   14 ar   
    21   10   11 ar   
    22   10   91 1    
    23   11   12 ar   
    24   11   58 1    
    25   12   13 ar   
    26   12   92 1    
    27   13   14 ar   
    28   13   15 1    
    29   14   93 1    
    30   15   16 1    
    31   15   94 1    
    32   15   95 1    
    33   16   17 1    
    34   17   18 1    
    35   17   96 1    
    36   17   97 1    
    37   18   19 1    
    38   18   22 1    
    39   18   98 1    
    40   19   20 am   BACKBONE|DICT|INTERRES
    41   19   21 2    
    42   20   99 1    
    43   20  100 1    
    44   22   23 am   BACKBONE|DICT|INTERRES
    45   22  101 1    
    46   23   24 2    
    47   23   25 1    
    48   25   26 1    
    49   25   27 1    
    50   25  102 1    
    51   26  103 1    
    52   26  104 1    
    53   26  105 1    
    54   27   28 am   BACKBONE|DICT|INTERRES
    55   27  106 1    
    56   28   29 2    
    57   28   30 1    
    58   30   31 1    
    59   30   32 1    
    60   30  107 1    
    61   31  108 1    
    62   31  109 1    
    63   31  110 1    
    64   32   33 am   BACKBONE|DICT|INTERRES
    65   32  111 1    
    66   33   34 2    
    67   33   35 1    
    68   35   36 1    
    69   35   37 1    
    70   35  112 1    
    71   36  113 1    
    72   36  114 1    
    73   36  115 1    
    74   37   38 am   BACKBONE|DICT|INTERRES
    75   37  116 1    
    76   38   39 2    
    77   38   40 1    
    78   40   41 1    
    79   40   42 1    
    80   40  117 1    
    81   41  118 1    
    82   41  119 1    
    83   41  120 1    
    84   42   43 am   BACKBONE|DICT|INTERRES
    85   42  121 1    
    86   43   44 2    
    87   43   45 1    
    88   45   46 1    
    89   45   47 1    
    90   45  122 1    
    91   46  123 1    
    92   46  124 1    
    93   46  125 1    
    94   47   48 am   BACKBONE|DICT|INTERRES
    95   47  126 1    
    96   48   49 2    
    97   48   50 1    
    98   50   51 1    
    99   50   52 1    
   100   50  127 1    
   101   51  128 1    
   102   51  129 1    
   103   51  130 1    
   104   52   53 am   BACKBONE|DICT|INTERRES
   105   52  131 1    
   106   53   54 2    
   107   53   55 1    
   108   55   56 1    
   109   55   59 1    
   110   55  132 1    
   111   56   57 1    
   112   56  133 1    
   113   56  134 1    
   114   57   58 1    
   115   58  135 1    
   116   58  136 1    
   117   59   60 am   BACKBONE|DICT|INTERRES
   118   59  137 1    
   119   60   61 2    
   120   60   62 1    
   121   62   63 1    
   122   62   64 1    
   123   62  138 1    
   124   63  139 1    
   125   63  140 1    
   126   63  141 1    
   127   64   65 am   BACKBONE|DICT|INTERRES
   128   64  142 1    
   129   65   66 2    
   130   65   67 1    
   131   67   68 1    
   132   67   69 1    
   133   67  143 1    
   134   68  144 1    
   135   68  145 1    
   136   68  146 1    
   137   69   70 am   BACKBONE|DICT|INTERRES
   138   69  147 1    
   139   70   71 2    
   140   70   72 1    
   141   72   73 1    
   142   72   74 1    
   143   72  148 1    
   144   73  149 1    
   145   73  150 1    
   146   73  151 1    
   147   74   75 am   BACKBONE|DICT|INTERRES
   148   74  152 1    
   149   75   76 2    
   150   75   77 1    
   151   77   78 1    
   152   77   79 1    
   153   77  153 1    
   154   78  154 1    
   155   78  155 1    
   156   78  156 1    
   157   79   80 am   BACKBONE|DICT|INTERRES
   158   79  157 1    
   159   80   81 2    
@<TRIPOS>SUBSTRUCTURE
     1 UNK         1 GROUP             0       ****    0 ROOT    
