@<TRIPOS>MOLECULE
3R207
157   159    1
SMALL
USER_CHARGES


@<TRIPOS>ATOM
      1 CA        -53.7431  -26.4524    2.2683 C.3       0 UNK        -0.1975 
      2 C         -53.4549  -27.2548    3.5286 C.2       0 UNK         0.4852 
      3 O         -54.3517  -27.4489    4.3501 O.2       0 UNK        -0.5216 
      4 N         -52.2119  -27.7193    3.6898 N.am      1 UNK        -0.4461 
      5 CA        -51.7312  -28.4760    4.8423 C.3       1 UNK         0.0864 
      6 C6        -52.1413  -29.9698    4.7620 C.3       14 UNK        -0.0898 
      7 S7        -51.8525  -30.9392    6.2814 S.3       14 UNK        -0.2598 
      8 C8        -52.9345  -30.1230    7.5010 C.3       14 UNK         0.0286 
      9 C9        -52.1201  -29.3743    8.5480 C.ar      14 UNK        -0.0844 
     10 C10       -52.1157  -27.9749    8.5991 C.ar      14 UNK        -0.0881 
     11 C11       -51.3901  -27.3064    9.5910 C.ar      14 UNK        -0.0643 
     12 C12       -50.6868  -28.0466   10.5446 C.ar      14 UNK        -0.0930 
     13 C13       -50.6890  -29.4424   10.5101 C.ar      14 UNK        -0.0827 
     14 C14       -51.3947  -30.0991    9.4993 C.ar      14 UNK        -0.1249 
     15 C15       -49.9446  -30.2339   11.5790 C.3       14 UNK         0.0141 
     16 S16       -51.0586  -31.2143   12.6430 S.3       14 UNK        -0.2313 
     17 C17       -52.3037  -29.9782   13.1448 C.3       14 UNK        -0.0915 
     18 CA        -53.6372  -30.1570   12.3616 C.3       13 UNK         0.0968 
     19 C         -54.6887  -30.9646   13.1713 C.2       13 UNK         0.5732 
     20 N         -54.4889  -32.2686   13.3065 N.am      13 UNK        -0.7310 
     21 O         -55.6561  -30.4275   13.7072 O.2       13 UNK        -0.5035 
     22 N         -54.1418  -28.8728   11.8596 N.am      13 UNK        -0.4233 
     23 C         -55.0363  -28.7453   10.8693 C.2       13 UNK         0.4989 
     24 O         -55.5338  -29.7039   10.2745 O.2       13 UNK        -0.4996 
     25 CA        -55.4059  -27.3133   10.4283 C.3       12 UNK         0.0216 
     26 CB        -56.7946  -27.2229    9.7590 C.3       12 UNK        -0.1964 
     27 N         -55.2518  -26.3122   11.4890 N.am      12 UNK        -0.4276 
     28 C         -55.9554  -26.2064   12.6235 C.2       12 UNK         0.5020 
     29 O         -56.9253  -26.9072   12.9200 O.2       12 UNK        -0.5489 
     30 CA        -55.4626  -25.1386   13.6161 C.3       11 UNK         0.0294 
     31 CB        -56.5753  -24.1286   13.9442 C.3       11 UNK        -0.2019 
     32 N         -54.9686  -25.7421   14.8558 N.am      11 UNK        -0.4493 
     33 C         -53.9454  -26.6032   14.9310 C.2       11 UNK         0.4932 
     34 O         -53.2993  -26.9900   13.9550 O.2       11 UNK        -0.5029 
     35 CA        -53.6116  -27.1427   16.3338 C.3       10 UNK         0.0280 
     36 CB        -54.4942  -28.3591   16.6586 C.3       10 UNK        -0.1976 
     37 N         -52.2047  -27.5332   16.4546 N.am      10 UNK        -0.4242 
     38 C         -51.1647  -26.6954   16.3500 C.2       10 UNK         0.5072 
     39 O         -51.2772  -25.4706   16.2537 O.2       10 UNK        -0.5224 
     40 CA        -49.7757  -27.3591   16.3298 C.3       9 UNK         0.0343 
     41 CB        -49.6131  -28.2472   15.0812 C.3       9 UNK        -0.2003 
     42 N         -48.6993  -26.3691   16.3321 N.am      9 UNK        -0.4272 
     43 C         -48.2546  -25.7052   17.4064 C.2       9 UNK         0.4988 
     44 O         -48.6754  -25.8927   18.5491 O.2       9 UNK        -0.5108 
     45 CA        -47.1433  -24.6686   17.1785 C.3       8 UNK         0.0248 
     46 CB        -45.7755  -25.3628   17.0626 C.3       8 UNK        -0.2001 
     47 N         -47.3790  -23.8627   15.9765 N.am      8 UNK        -0.4140 
     48 C         -47.4652  -22.5236   15.9518 C.2       8 UNK         0.5028 
     49 O         -47.3575  -21.8123   16.9521 O.2       8 UNK        -0.5428 
     50 CA        -47.6933  -21.8418   14.5859 C.3       7 UNK         0.0264 
     51 CB        -46.3674  -21.2924   14.0356 C.3       7 UNK        -0.1988 
     52 N         -48.2966  -22.7290   13.5886 N.am      7 UNK        -0.4454 
     53 C         -49.5715  -23.1492   13.6330 C.2       7 UNK         0.5027 
     54 O         -50.3969  -22.6822   14.4183 O.2       7 UNK        -0.5083 
     55 CA        -50.0086  -24.2917   12.6825 C.3       6 UNK         0.0844 
     56 C56       -51.1103  -23.8166   11.6957 C.3       14 UNK        -0.0967 
     57 S57       -52.1873  -25.1850   11.1563 S.3       14 UNK        -0.2604 
     58 C58       -51.3595  -25.7869    9.6544 C.3       14 UNK         0.0134 
     59 N         -48.8870  -24.9396   11.9839 N.am      6 UNK        -0.4116 
     60 C         -47.9015  -25.6376   12.5695 C.2       5 UNK         0.5034 
     61 O         -47.8266  -25.8195   13.7831 O.2       5 UNK        -0.5045 
     62 CA        -46.7649  -26.1620   11.6764 C.3       5 UNK         0.0224 
     63 CB        -46.9969  -27.6334   11.3059 C.3       5 UNK        -0.1978 
     64 N         -46.5489  -25.3738   10.4596 N.am      5 UNK        -0.4737 
     65 C         -46.1670  -24.0885   10.4436 C.2       4 UNK         0.5027 
     66 O         -45.9863  -23.4185   11.4601 O.2       4 UNK        -0.5211 
     67 CA        -45.9928  -23.4354    9.0636 C.3       4 UNK         0.0297 
     68 CB        -44.5495  -23.6069    8.5655 C.3       4 UNK        -0.1993 
     69 N         -46.9209  -23.9575    8.0566 N.am      4 UNK        -0.4486 
     70 C         -48.2492  -23.7981    8.0809 C.2       3 UNK         0.4961 
     71 O         -48.8508  -23.2239    8.9874 O.2       3 UNK        -0.5105 
     72 CA        -49.0470  -24.3907    6.9085 C.3       3 UNK         0.0299 
     73 CB        -48.6526  -23.7481    5.5633 C.3       3 UNK        -0.1972 
     74 N         -49.0083  -25.8567    6.8376 N.am      3 UNK        -0.4305 
     75 C         -47.9646  -26.6667    6.5968 C.2       2 UNK         0.5006 
     76 O         -46.8056  -26.2757    6.4515 O.2       2 UNK        -0.5106 
     77 CA        -48.2648  -28.1751    6.4948 C.3       2 UNK         0.0296 
     78 CB        -47.9180  -28.8859    7.8115 C.3       2 UNK        -0.2002 
     79 N         -49.6603  -28.4660    6.1511 N.am      2 UNK        -0.4032 
     80 C         -50.2127  -28.2494    4.9493 C.2       1 UNK         0.5000 
     81 O         -49.5816  -27.8548    3.9634 O.2       1 UNK        -0.5238 
     82 H82       -54.5297  -26.9348    1.6886 H         1 UNK         0.0889 
     83 H83       -52.8618  -26.3606    1.6335 H         1 UNK         0.0889 
     84 H84       -54.0785  -25.4494    2.5306 H         1 UNK         0.0889 
     85 H85       -51.4822  -27.5003    3.0209 H         1 UNK         0.3028 
     86 H86       -52.1816  -28.0262    5.7262 H         1 UNK         0.0864 
     87 H87       -53.2042  -30.0525    4.5297 H         1 UNK         0.0720 
     88 H88       -51.6218  -30.4612    3.9372 H         1 UNK         0.0720 
     89 H89       -53.5348  -30.8846    8.0014 H         1 UNK         0.0814 
     90 H90       -53.6473  -29.4620    7.0054 H         1 UNK         0.0814 
     91 H91       -52.6906  -27.4046    7.8829 H         1 UNK         0.1469 
     92 H92       -50.1566  -27.5282   11.3309 H         1 UNK         0.1381 
     93 H93       -51.4040  -31.1803    9.4717 H         1 UNK         0.1206 
     94 H94       -49.3576  -29.5688   12.2136 H         1 UNK         0.0813 
     95 H95       -49.2321  -30.9045   11.0971 H         1 UNK         0.0813 
     96 H96       -51.8803  -28.9866   12.9834 H         1 UNK         0.0638 
     97 H97       -52.4536  -30.0453   14.2238 H         1 UNK         0.0638 
     98 H98       -53.4346  -30.7472   11.4657 H         1 UNK         0.0568 
     99 H99       -53.6797  -32.7111   12.8988 H         1 UNK         0.3450 
    100 H100      -55.1481  -32.8149   13.8379 H         1 UNK         0.3450 
    101 H101      -53.8163  -28.0487   12.3548 H         1 UNK         0.2987 
    102 H102      -54.6689  -27.0455    9.6705 H         1 UNK         0.0766 
    103 H103      -56.8376  -27.8445    8.8637 H         1 UNK         0.0798 
    104 H104      -57.0230  -26.2020    9.4534 H         1 UNK         0.0798 
    105 H105      -57.5887  -27.5611   10.4251 H         1 UNK         0.0798 
    106 H106      -54.4352  -25.7193   11.3907 H         1 UNK         0.3198 
    107 H107      -54.6324  -24.5892   13.1662 H         1 UNK         0.0843 
    108 H108      -57.4226  -24.6062   14.4382 H         1 UNK         0.0831 
    109 H109      -56.9525  -23.6579   13.0354 H         1 UNK         0.0831 
    110 H110      -56.2118  -23.3319   14.5934 H         1 UNK         0.0831 
    111 H111      -55.4691  -25.5086   15.7009 H         1 UNK         0.3133 
    112 H112      -53.8071  -26.3572   17.0667 H         1 UNK         0.0566 
    113 H113      -54.3258  -29.1774   15.9572 H         1 UNK         0.0814 
    114 H114      -55.5530  -28.1021   16.6045 H         1 UNK         0.0814 
    115 H115      -54.3046  -28.7329   17.6650 H         1 UNK         0.0814 
    116 H116      -52.0192  -28.5232   16.5104 H         1 UNK         0.3091 
    117 H117      -49.6779  -27.9829   17.2208 H         1 UNK         0.0702 
    118 H118      -48.5952  -28.6266   14.9895 H         1 UNK         0.0785 
    119 H119      -49.8501  -27.7025   14.1659 H         1 UNK         0.0785 
    120 H120      -50.2718  -29.1143   15.1237 H         1 UNK         0.0785 
    121 H121      -48.3138  -26.1485   15.4162 H         1 UNK         0.2998 
    122 H122      -47.1206  -24.0302   18.0641 H         1 UNK         0.0697 
    123 H123      -44.9685  -24.6339   16.9877 H         1 UNK         0.0825 
    124 H124      -45.7231  -26.0108   16.1864 H         1 UNK         0.0825 
    125 H125      -45.5743  -25.9800   17.9393 H         1 UNK         0.0825 
    126 H126      -47.5039  -24.3731   15.1090 H         1 UNK         0.3029 
    127 H127      -48.3689  -20.9992   14.7491 H         1 UNK         0.0897 
    128 H128      -45.6391  -22.0876   13.8704 H         1 UNK         0.0792 
    129 H129      -45.9207  -20.5810   14.7316 H         1 UNK         0.0792 
    130 H130      -46.5144  -20.7714   13.0892 H         1 UNK         0.0792 
    131 H131      -47.6704  -23.1165   12.8919 H         1 UNK         0.3086 
    132 H132      -50.4484  -25.0468   13.3389 H         1 UNK         0.0583 
    133 H133      -51.7745  -23.0921   12.1716 H         1 UNK         0.1020 
    134 H134      -50.6859  -23.2980   10.8354 H         1 UNK         0.1020 
    135 H135      -51.8388  -25.3423    8.7812 H         1 UNK         0.0694 
    136 H136      -50.3207  -25.4613    9.6388 H         1 UNK         0.0694 
    137 H137      -48.8263  -24.7720   10.9899 H         1 UNK         0.2989 
    138 H138      -45.8493  -26.1043   12.2697 H         1 UNK         0.1055 
    139 H139      -46.1384  -28.0508   10.7794 H         1 UNK         0.0806 
    140 H140      -47.8707  -27.7543   10.6695 H         1 UNK         0.0806 
    141 H141      -47.1533  -28.2417   12.1982 H         1 UNK         0.0806 
    142 H142      -46.6668  -25.8449    9.5744 H         1 UNK         0.3061 
    143 H143      -46.1909  -22.3676    9.1796 H         1 UNK         0.0734 
    144 H144      -44.2999  -24.6561    8.4017 H         1 UNK         0.0832 
    145 H145      -44.3867  -23.0728    7.6292 H         1 UNK         0.0832 
    146 H146      -43.8369  -23.2111    9.2907 H         1 UNK         0.0832 
    147 H147      -46.5369  -24.5362    7.3145 H         1 UNK         0.3156 
    148 H148      -50.0926  -24.1343    7.0868 H         1 UNK         0.0589 
    149 H149      -49.3018  -24.0924    4.7581 H         1 UNK         0.0808 
    150 H150      -47.6248  -23.9748    5.2792 H         1 UNK         0.0808 
    151 H151      -48.7434  -22.6620    5.6096 H         1 UNK         0.0808 
    152 H152      -49.9003  -26.3081    6.9718 H         1 UNK         0.3098 
    153 H153      -47.6257  -28.5811    5.7078 H         1 UNK         0.0720 
    154 H154      -46.8909  -28.6782    8.1151 H         1 UNK         0.0791 
    155 H155      -48.0143  -29.9675    7.7144 H         1 UNK         0.0791 
    156 H156      -48.5734  -28.5671    8.6204 H         1 UNK         0.0791 
    157 H157      -50.2359  -28.8547    6.8872 H         1 UNK         0.3028 
@<TRIPOS>BOND
     1    1    2 1    
     2    1   82 1    
     3    1   83 1    
     4    1   84 1    
     5    2    3 2    
     6    2    4 am   BACKBONE|DICT|INTERRES
     7    4    5 1    
     8    4   85 1    
     9    5    6 1    
    10    5   80 1    
    11    5   86 1    
    12    6    7 1    
    13    6   87 1    
    14    6   88 1    
    15    7    8 1    
    16    8    9 1    
    17    8   89 1    
    18    8   90 1    
    19    9   10 ar   
    20    9   14 ar   
    21   10   11 ar   
    22   10   91 1    
    23   11   12 ar   
    24   11   58 1    
    25   12   13 ar   
    26   12   92 1    
    27   13   14 ar   
    28   13   15 1    
    29   14   93 1    
    30   15   16 1    
    31   15   94 1    
    32   15   95 1    
    33   16   17 1    
    34   17   18 1    
    35   17   96 1    
    36   17   97 1    
    37   18   19 1    
    38   18   22 1    
    39   18   98 1    
    40   19   20 am   BACKBONE|DICT|INTERRES
    41   19   21 2    
    42   20   99 1    
    43   20  100 1    
    44   22   23 am   BACKBONE|DICT|INTERRES
    45   22  101 1    
    46   23   24 2    
    47   23   25 1    
    48   25   26 1    
    49   25   27 1    
    50   25  102 1    
    51   26  103 1    
    52   26  104 1    
    53   26  105 1    
    54   27   28 am   BACKBONE|DICT|INTERRES
    55   27  106 1    
    56   28   29 2    
    57   28   30 1    
    58   30   31 1    
    59   30   32 1    
    60   30  107 1    
    61   31  108 1    
    62   31  109 1    
    63   31  110 1    
    64   32   33 am   BACKBONE|DICT|INTERRES
    65   32  111 1    
    66   33   34 2    
    67   33   35 1    
    68   35   36 1    
    69   35   37 1    
    70   35  112 1    
    71   36  113 1    
    72   36  114 1    
    73   36  115 1    
    74   37   38 am   BACKBONE|DICT|INTERRES
    75   37  116 1    
    76   38   39 2    
    77   38   40 1    
    78   40   41 1    
    79   40   42 1    
    80   40  117 1    
    81   41  118 1    
    82   41  119 1    
    83   41  120 1    
    84   42   43 am   BACKBONE|DICT|INTERRES
    85   42  121 1    
    86   43   44 2    
    87   43   45 1    
    88   45   46 1    
    89   45   47 1    
    90   45  122 1    
    91   46  123 1    
    92   46  124 1    
    93   46  125 1    
    94   47   48 am   BACKBONE|DICT|INTERRES
    95   47  126 1    
    96   48   49 2    
    97   48   50 1    
    98   50   51 1    
    99   50   52 1    
   100   50  127 1    
   101   51  128 1    
   102   51  129 1    
   103   51  130 1    
   104   52   53 am   BACKBONE|DICT|INTERRES
   105   52  131 1    
   106   53   54 2    
   107   53   55 1    
   108   55   56 1    
   109   55   59 1    
   110   55  132 1    
   111   56   57 1    
   112   56  133 1    
   113   56  134 1    
   114   57   58 1    
   115   58  135 1    
   116   58  136 1    
   117   59   60 am   BACKBONE|DICT|INTERRES
   118   59  137 1    
   119   60   61 2    
   120   60   62 1    
   121   62   63 1    
   122   62   64 1    
   123   62  138 1    
   124   63  139 1    
   125   63  140 1    
   126   63  141 1    
   127   64   65 am   BACKBONE|DICT|INTERRES
   128   64  142 1    
   129   65   66 2    
   130   65   67 1    
   131   67   68 1    
   132   67   69 1    
   133   67  143 1    
   134   68  144 1    
   135   68  145 1    
   136   68  146 1    
   137   69   70 am   BACKBONE|DICT|INTERRES
   138   69  147 1    
   139   70   71 2    
   140   70   72 1    
   141   72   73 1    
   142   72   74 1    
   143   72  148 1    
   144   73  149 1    
   145   73  150 1    
   146   73  151 1    
   147   74   75 am   BACKBONE|DICT|INTERRES
   148   74  152 1    
   149   75   76 2    
   150   75   77 1    
   151   77   78 1    
   152   77   79 1    
   153   77  153 1    
   154   78  154 1    
   155   78  155 1    
   156   78  156 1    
   157   79   80 am   BACKBONE|DICT|INTERRES
   158   79  157 1    
   159   80   81 2    
@<TRIPOS>SUBSTRUCTURE
     1 UNK         1 GROUP             0       ****    0 ROOT    
