@<TRIPOS>MOLECULE
3R207
157   159    1
SMALL
USER_CHARGES


@<TRIPOS>ATOM
      1 CA        -50.3369  -31.4639    9.9134 C.3       0 UNK        -0.1975 
      2 C         -50.2850  -30.5227    8.7197 C.2       0 UNK         0.4852 
      3 O         -51.1788  -30.5578    7.8739 O.2       0 UNK        -0.5216 
      4 N         -49.2455  -29.6815    8.6509 N.am      1 UNK        -0.4461 
      5 CA        -49.0480  -28.6862    7.5908 C.3       1 UNK         0.0864 
      6 C6        -49.7706  -27.3477    7.9156 C.3       14 UNK        -0.0898 
      7 S7        -50.3824  -26.5063    6.4195 S.3       14 UNK        -0.2598 
      8 C8        -52.1164  -27.0631    6.3896 C.3       14 UNK         0.0286 
      9 C9        -52.9739  -26.2865    7.3776 C.ar      14 UNK        -0.0844 
     10 C10       -53.3234  -24.9632    7.0970 C.ar      14 UNK        -0.0881 
     11 C11       -54.1041  -24.2295    7.9927 C.ar      14 UNK        -0.0643 
     12 C12       -54.5615  -24.8396    9.1642 C.ar      14 UNK        -0.0930 
     13 C13       -54.2340  -26.1687    9.4523 C.ar      14 UNK        -0.0827 
     14 C14       -53.4269  -26.8836    8.5591 C.ar      14 UNK        -0.1249 
     15 C15       -54.7344  -26.8004   10.7466 C.3       14 UNK         0.0141 
     16 S16       -55.5933  -28.3867   10.4984 S.3       14 UNK        -0.2313 
     17 C17       -54.2957  -29.6006   10.9277 C.3       14 UNK        -0.0915 
     18 CA        -54.7041  -30.4892   12.1352 C.3       13 UNK         0.0968 
     19 C         -53.7592  -31.7139   12.3145 C.2       13 UNK         0.5732 
     20 N         -53.2801  -32.0333   13.5113 N.am      13 UNK        -0.7310 
     21 O         -53.4696  -32.4121   11.3464 O.2       13 UNK        -0.5035 
     22 N         -54.8846  -29.7051   13.3705 N.am      13 UNK        -0.4233 
     23 C         -55.8773  -29.9083   14.2476 C.2       13 UNK         0.4989 
     24 O         -56.7946  -30.7118   14.0655 O.2       13 UNK        -0.4996 
     25 CA        -55.8352  -29.0864   15.5536 C.3       12 UNK         0.0216 
     26 CB        -56.8066  -29.6190   16.6284 C.3       12 UNK        -0.1964 
     27 N         -54.4890  -28.9397   16.1207 N.am      12 UNK        -0.4276 
     28 C         -53.6196  -29.9142   16.4371 C.2       12 UNK         0.5020 
     29 O         -53.8564  -31.1123   16.2782 O.2       12 UNK        -0.5489 
     30 CA        -52.2396  -29.4974   16.9840 C.3       11 UNK         0.0294 
     31 CB        -51.1087  -30.2023   16.2120 C.3       11 UNK        -0.2019 
     32 N         -52.0323  -28.0518   16.8916 N.am      11 UNK        -0.4493 
     33 C         -52.1456  -27.1774   17.9008 C.2       11 UNK         0.4932 
     34 O         -52.3537  -27.5020   19.0696 O.2       11 UNK        -0.5029 
     35 CA        -52.0366  -25.6810   17.5432 C.3       10 UNK         0.0280 
     36 CB        -50.6186  -25.1636   17.8308 C.3       10 UNK        -0.1976 
     37 N         -52.3852  -25.3912   16.1474 N.am      10 UNK        -0.4242 
     38 C         -53.6108  -25.5533   15.6208 C.2       10 UNK         0.5072 
     39 O         -54.5945  -25.8881   16.2800 O.2       10 UNK        -0.5224 
     40 CA        -53.7520  -25.4180   14.0940 C.3       9 UNK         0.0343 
     41 CB        -54.1943  -23.9989   13.7097 C.3       9 UNK        -0.2003 
     42 N         -52.5212  -25.7678   13.3790 N.am      9 UNK        -0.4272 
     43 C         -51.9614  -26.9893   13.3945 C.2       9 UNK         0.4988 
     44 O         -52.5142  -27.9683   13.8963 O.2       9 UNK        -0.5108 
     45 CA        -50.5600  -27.1695   12.7811 C.3       8 UNK         0.0248 
     46 CB        -50.6335  -28.0690   11.5409 C.3       8 UNK        -0.2001 
     47 N         -49.8854  -25.9181   12.4296 N.am      8 UNK        -0.4140 
     48 C         -49.5083  -24.9656   13.2946 C.2       8 UNK         0.5028 
     49 O         -49.6416  -25.0597   14.5156 O.2       8 UNK        -0.5428 
     50 CA        -48.9668  -23.6599   12.6871 C.3       7 UNK         0.0264 
     51 CB        -47.4309  -23.6658   12.6717 C.3       7 UNK        -0.1988 
     52 N         -49.4731  -23.3762   11.3356 N.am      7 UNK        -0.4454 
     53 C         -50.7671  -23.1600   11.0344 C.2       7 UNK         0.5027 
     54 O         -51.6638  -23.2593   11.8731 O.2       7 UNK        -0.5083 
     55 CA        -51.1367  -22.8147    9.5697 C.3       6 UNK         0.0844 
     56 C56       -52.4132  -21.9288    9.4783 C.3       14 UNK        -0.0967 
     57 S57       -52.9788  -21.6961    7.7573 S.3       14 UNK        -0.2604 
     58 C58       -54.4466  -22.7761    7.6952 C.3       14 UNK         0.0134 
     59 N         -49.9980  -22.2892    8.8047 N.am      6 UNK        -0.4116 
     60 C         -49.3370  -21.1451    9.0340 C.2       5 UNK         0.5034 
     61 O         -49.6764  -20.3191    9.8832 O.2       5 UNK        -0.5045 
     62 CA        -48.0651  -20.8888    8.1948 C.3       5 UNK         0.0224 
     63 CB        -47.0094  -20.0896    8.9888 C.3       5 UNK        -0.1978 
     64 N         -47.4348  -22.0861    7.6087 N.am      5 UNK        -0.4737 
     65 C         -47.0100  -23.1864    8.2499 C.2       4 UNK         0.5027 
     66 O         -47.2560  -23.4176    9.4357 O.2       4 UNK        -0.5211 
     67 CA        -46.2320  -24.2077    7.3947 C.3       4 UNK         0.0297 
     68 CB        -45.0864  -23.5529    6.5910 C.3       4 UNK        -0.1993 
     69 N         -45.7363  -25.3547    8.1664 N.am      4 UNK        -0.4486 
     70 C         -44.8205  -25.3625    9.1505 C.2       3 UNK         0.4961 
     71 O         -44.1858  -24.3705    9.5122 O.2       3 UNK        -0.5105 
     72 CA        -44.5566  -26.7029    9.8698 C.3       3 UNK         0.0299 
     73 CB        -45.1938  -26.6923   11.2699 C.3       3 UNK        -0.1972 
     74 N         -45.0465  -27.8762    9.1425 N.am      3 UNK        -0.4305 
     75 C         -44.4969  -28.3844    8.0303 C.2       2 UNK         0.5006 
     76 O         -43.4438  -27.9770    7.5388 O.2       2 UNK        -0.5106 
     77 CA        -45.2654  -29.5249    7.3297 C.3       2 UNK         0.0296 
     78 CB        -44.6914  -30.8899    7.7438 C.3       2 UNK        -0.2002 
     79 N         -46.7196  -29.5222    7.5569 N.am      2 UNK        -0.4032 
     80 C         -47.5509  -28.5091    7.2575 C.2       1 UNK         0.5000 
     81 O         -47.1574  -27.4494    6.7697 O.2       1 UNK        -0.5238 
     82 H82       -51.1914  -31.2182   10.5417 H         1 UNK         0.0889 
     83 H83       -49.4370  -31.4031   10.5252 H         1 UNK         0.0889 
     84 H84       -50.4492  -32.4941    9.5765 H         1 UNK         0.0889 
     85 H85       -48.5558  -29.6851    9.3891 H         1 UNK         0.3028 
     86 H86       -49.4793  -29.0970    6.6750 H         1 UNK         0.0864 
     87 H87       -50.6271  -27.5273    8.5634 H         1 UNK         0.0720 
     88 H88       -49.1271  -26.6651    8.4740 H         1 UNK         0.0720 
     89 H89       -52.1624  -28.1355    6.5882 H         1 UNK         0.0814 
     90 H90       -52.5137  -26.9232    5.3833 H         1 UNK         0.0814 
     91 H91       -52.9684  -24.4948    6.1889 H         1 UNK         0.1469 
     92 H92       -55.1690  -24.2738    9.8572 H         1 UNK         0.1381 
     93 H93       -53.1595  -27.9082    8.7786 H         1 UNK         0.1206 
     94 H94       -53.8924  -26.9373   11.4159 H         1 UNK         0.0813 
     95 H95       -55.4218  -26.1266   11.2599 H         1 UNK         0.0813 
     96 H96       -54.1298  -30.2096   10.0373 H         1 UNK         0.0638 
     97 H97       -53.3490  -29.1004   11.1271 H         1 UNK         0.0638 
     98 H98       -55.6619  -30.9369   11.8647 H         1 UNK         0.0568 
     99 H99       -53.5590  -31.5334   14.3482 H         1 UNK         0.3450 
    100 H100      -52.6813  -32.8387   13.5925 H         1 UNK         0.3450 
    101 H101      -54.1312  -29.0666   13.6079 H         1 UNK         0.2987 
    102 H102      -56.1623  -28.0812   15.2837 H         1 UNK         0.0766 
    103 H103      -57.8345  -29.6225   16.2635 H         1 UNK         0.0798 
    104 H104      -56.7856  -28.9978   17.5238 H         1 UNK         0.0798 
    105 H105      -56.5608  -30.6401   16.9227 H         1 UNK         0.0798 
    106 H106      -54.2036  -27.9818   16.2863 H         1 UNK         0.3198 
    107 H107      -52.1953  -29.8195   18.0264 H         1 UNK         0.0843 
    108 H108      -51.1421  -29.9739   15.1459 H         1 UNK         0.0831 
    109 H109      -51.1803  -31.2860   16.3136 H         1 UNK         0.0831 
    110 H110      -50.1286  -29.9089   16.5880 H         1 UNK         0.0831 
    111 H111      -51.8940  -27.6967   15.9536 H         1 UNK         0.3133 
    112 H112      -52.7353  -25.1373   18.1825 H         1 UNK         0.0566 
    113 H113      -50.5377  -24.0942   17.6351 H         1 UNK         0.0814 
    114 H114      -49.8716  -25.6730   17.2204 H         1 UNK         0.0814 
    115 H115      -50.3492  -25.3228   18.8759 H         1 UNK         0.0814 
    116 H116      -51.6182  -25.1369   15.5340 H         1 UNK         0.3091 
    117 H117      -54.5313  -26.1142   13.7769 H         1 UNK         0.0702 
    118 H118      -54.3527  -23.9106   12.6346 H         1 UNK         0.0785 
    119 H119      -53.4533  -23.2531   14.0004 H         1 UNK         0.0785 
    120 H120      -55.1331  -23.7360   14.1990 H         1 UNK         0.0785 
    121 H121      -52.0381  -25.0035   12.9174 H         1 UNK         0.2998 
    122 H122      -49.9468  -27.6722   13.5318 H         1 UNK         0.0697 
    123 H123      -51.2937  -27.6503   10.7812 H         1 UNK         0.0825 
    124 H124      -51.0175  -29.0555   11.8028 H         1 UNK         0.0825 
    125 H125      -49.6488  -28.2140   11.0982 H         1 UNK         0.0825 
    126 H126      -49.7475  -25.7348   11.4470 H         1 UNK         0.3029 
    127 H127      -49.2964  -22.8459   13.3363 H         1 UNK         0.0897 
    128 H128      -47.0390  -24.4338   12.0053 H         1 UNK         0.0792 
    129 H129      -47.0277  -23.8569   13.6672 H         1 UNK         0.0792 
    130 H130      -47.0348  -22.7060   12.3391 H         1 UNK         0.0792 
    131 H131      -48.7718  -23.3032   10.6001 H         1 UNK         0.3086 
    132 H132      -51.3748  -23.7757    9.1112 H         1 UNK         0.0583 
    133 H133      -53.2300  -22.3621   10.0578 H         1 UNK         0.1020 
    134 H134      -52.2342  -20.9473    9.9194 H         1 UNK         0.1020 
    135 H135      -55.1963  -22.4004    8.3934 H         1 UNK         0.0694 
    136 H136      -54.8926  -22.7092    6.7020 H         1 UNK         0.0694 
    137 H137      -49.6373  -22.8977    8.0848 H         1 UNK         0.2989 
    138 H138      -48.3879  -20.2691    7.3565 H         1 UNK         0.1055 
    139 H139      -46.6823  -20.6307    9.8778 H         1 UNK         0.0806 
    140 H140      -47.4044  -19.1280    9.3190 H         1 UNK         0.0806 
    141 H141      -46.1288  -19.8813    8.3812 H         1 UNK         0.0806 
    142 H142      -47.2362  -22.0201    6.6194 H         1 UNK         0.3061 
    143 H143      -46.9477  -24.6223    6.6829 H         1 UNK         0.0734 
    144 H144      -44.4059  -22.9949    7.2352 H         1 UNK         0.0832 
    145 H145      -44.5008  -24.3016    6.0572 H         1 UNK         0.0832 
    146 H146      -45.4674  -22.8577    5.8428 H         1 UNK         0.0832 
    147 H147      -46.1821  -26.2335    7.9199 H         1 UNK         0.3156 
    148 H148      -43.4754  -26.8012    9.9881 H         1 UNK         0.0589 
    149 H149      -46.2812  -26.6264   11.2178 H         1 UNK         0.0808 
    150 H150      -44.9371  -27.5913   11.8306 H         1 UNK         0.0808 
    151 H151      -44.8428  -25.8393   11.8526 H         1 UNK         0.0808 
    152 H152      -45.8961  -28.2968    9.4863 H         1 UNK         0.3098 
    153 H153      -45.1074  -29.4011    6.2563 H         1 UNK         0.0720 
    154 H154      -45.1451  -31.7019    7.1751 H         1 UNK         0.0791 
    155 H155      -44.8502  -31.0906    8.8042 H         1 UNK         0.0791 
    156 H156      -43.6164  -30.9331    7.5620 H         1 UNK         0.0791 
    157 H157      -47.1187  -30.3797    7.9108 H         1 UNK         0.3028 
@<TRIPOS>BOND
     1    1    2 1    
     2    1   82 1    
     3    1   83 1    
     4    1   84 1    
     5    2    3 2    
     6    2    4 am   BACKBONE|DICT|INTERRES
     7    4    5 1    
     8    4   85 1    
     9    5    6 1    
    10    5   80 1    
    11    5   86 1    
    12    6    7 1    
    13    6   87 1    
    14    6   88 1    
    15    7    8 1    
    16    8    9 1    
    17    8   89 1    
    18    8   90 1    
    19    9   10 ar   
    20    9   14 ar   
    21   10   11 ar   
    22   10   91 1    
    23   11   12 ar   
    24   11   58 1    
    25   12   13 ar   
    26   12   92 1    
    27   13   14 ar   
    28   13   15 1    
    29   14   93 1    
    30   15   16 1    
    31   15   94 1    
    32   15   95 1    
    33   16   17 1    
    34   17   18 1    
    35   17   96 1    
    36   17   97 1    
    37   18   19 1    
    38   18   22 1    
    39   18   98 1    
    40   19   20 am   BACKBONE|DICT|INTERRES
    41   19   21 2    
    42   20   99 1    
    43   20  100 1    
    44   22   23 am   BACKBONE|DICT|INTERRES
    45   22  101 1    
    46   23   24 2    
    47   23   25 1    
    48   25   26 1    
    49   25   27 1    
    50   25  102 1    
    51   26  103 1    
    52   26  104 1    
    53   26  105 1    
    54   27   28 am   BACKBONE|DICT|INTERRES
    55   27  106 1    
    56   28   29 2    
    57   28   30 1    
    58   30   31 1    
    59   30   32 1    
    60   30  107 1    
    61   31  108 1    
    62   31  109 1    
    63   31  110 1    
    64   32   33 am   BACKBONE|DICT|INTERRES
    65   32  111 1    
    66   33   34 2    
    67   33   35 1    
    68   35   36 1    
    69   35   37 1    
    70   35  112 1    
    71   36  113 1    
    72   36  114 1    
    73   36  115 1    
    74   37   38 am   BACKBONE|DICT|INTERRES
    75   37  116 1    
    76   38   39 2    
    77   38   40 1    
    78   40   41 1    
    79   40   42 1    
    80   40  117 1    
    81   41  118 1    
    82   41  119 1    
    83   41  120 1    
    84   42   43 am   BACKBONE|DICT|INTERRES
    85   42  121 1    
    86   43   44 2    
    87   43   45 1    
    88   45   46 1    
    89   45   47 1    
    90   45  122 1    
    91   46  123 1    
    92   46  124 1    
    93   46  125 1    
    94   47   48 am   BACKBONE|DICT|INTERRES
    95   47  126 1    
    96   48   49 2    
    97   48   50 1    
    98   50   51 1    
    99   50   52 1    
   100   50  127 1    
   101   51  128 1    
   102   51  129 1    
   103   51  130 1    
   104   52   53 am   BACKBONE|DICT|INTERRES
   105   52  131 1    
   106   53   54 2    
   107   53   55 1    
   108   55   56 1    
   109   55   59 1    
   110   55  132 1    
   111   56   57 1    
   112   56  133 1    
   113   56  134 1    
   114   57   58 1    
   115   58  135 1    
   116   58  136 1    
   117   59   60 am   BACKBONE|DICT|INTERRES
   118   59  137 1    
   119   60   61 2    
   120   60   62 1    
   121   62   63 1    
   122   62   64 1    
   123   62  138 1    
   124   63  139 1    
   125   63  140 1    
   126   63  141 1    
   127   64   65 am   BACKBONE|DICT|INTERRES
   128   64  142 1    
   129   65   66 2    
   130   65   67 1    
   131   67   68 1    
   132   67   69 1    
   133   67  143 1    
   134   68  144 1    
   135   68  145 1    
   136   68  146 1    
   137   69   70 am   BACKBONE|DICT|INTERRES
   138   69  147 1    
   139   70   71 2    
   140   70   72 1    
   141   72   73 1    
   142   72   74 1    
   143   72  148 1    
   144   73  149 1    
   145   73  150 1    
   146   73  151 1    
   147   74   75 am   BACKBONE|DICT|INTERRES
   148   74  152 1    
   149   75   76 2    
   150   75   77 1    
   151   77   78 1    
   152   77   79 1    
   153   77  153 1    
   154   78  154 1    
   155   78  155 1    
   156   78  156 1    
   157   79   80 am   BACKBONE|DICT|INTERRES
   158   79  157 1    
   159   80   81 2    
@<TRIPOS>SUBSTRUCTURE
     1 UNK         1 GROUP             0       ****    0 ROOT    
