@<TRIPOS>MOLECULE
3R207
157   159    1
SMALL
USER_CHARGES


@<TRIPOS>ATOM
      1 CA        -46.9352  -30.9459    8.9173 C.3       0 UNK        -0.1975 
      2 C         -47.5249  -30.5296    7.5779 C.2       0 UNK         0.4852 
      3 O         -46.9243  -30.7989    6.5373 O.2       0 UNK        -0.5216 
      4 N         -48.6998  -29.8840    7.6000 N.am      1 UNK        -0.4461 
      5 CA        -49.4479  -29.4280    6.4178 C.3       1 UNK         0.0864 
      6 C6        -50.8559  -28.8786    6.7757 C.3       14 UNK        -0.0898 
      7 S7        -51.7759  -29.8925    7.9827 S.3       14 UNK        -0.2598 
      8 C8        -51.7042  -28.8360    9.4679 C.3       14 UNK         0.0286 
      9 C9        -52.7523  -27.7322    9.4333 C.ar      14 UNK        -0.0844 
     10 C10       -52.4440  -26.4611    8.9373 C.ar      14 UNK        -0.0881 
     11 C11       -53.4172  -25.4569    8.9057 C.ar      14 UNK        -0.0643 
     12 C12       -54.7039  -25.7272    9.3813 C.ar      14 UNK        -0.0930 
     13 C13       -55.0197  -26.9879    9.8934 C.ar      14 UNK        -0.0827 
     14 C14       -54.0376  -27.9825    9.9193 C.ar      14 UNK        -0.1249 
     15 C15       -56.3953  -27.2596   10.4830 C.3       14 UNK         0.0141 
     16 S16       -57.2153  -28.6772    9.6805 S.3       14 UNK        -0.2313 
     17 C17       -58.5389  -29.1354   10.8604 C.3       14 UNK        -0.0915 
     18 CA        -58.1169  -29.2573   12.3584 C.3       13 UNK         0.0968 
     19 C         -59.2756  -29.7486   13.2790 C.2       13 UNK         0.5732 
     20 N         -58.9947  -30.4449   14.3751 N.am      13 UNK        -0.7310 
     21 O         -60.4437  -29.4682   13.0193 O.2       13 UNK        -0.5035 
     22 N         -56.8407  -29.9677   12.5535 N.am      13 UNK        -0.4233 
     23 C         -56.5903  -31.2541   12.2763 C.2       13 UNK         0.4989 
     24 O         -57.4150  -32.0276   11.7875 O.2       13 UNK        -0.4996 
     25 CA        -55.1793  -31.7808   12.6046 C.3       12 UNK         0.0216 
     26 CB        -54.3950  -32.0837   11.3164 C.3       12 UNK        -0.1964 
     27 N         -54.3766  -30.8937   13.4558 N.am      12 UNK        -0.4276 
     28 C         -54.6093  -30.6245   14.7455 C.2       12 UNK         0.5020 
     29 O         -55.5903  -31.0480   15.3583 O.2       12 UNK        -0.5489 
     30 CA        -53.5903  -29.7348   15.4827 C.3       11 UNK         0.0294 
     31 CB        -52.3559  -30.5556   15.9032 C.3       11 UNK        -0.2019 
     32 N         -53.1840  -28.4999   14.7926 N.am      11 UNK        -0.4493 
     33 C         -52.5295  -28.3364   13.6343 C.2       11 UNK         0.4932 
     34 O         -52.2363  -29.2593   12.8756 O.2       11 UNK        -0.5029 
     35 CA        -52.0854  -26.9031   13.2849 C.3       10 UNK         0.0280 
     36 CB        -53.2799  -25.9481   13.0846 C.3       10 UNK        -0.1976 
     37 N         -51.1031  -26.3751   14.2430 N.am      10 UNK        -0.4242 
     38 C         -51.2944  -26.0885   15.5403 C.2       10 UNK         0.5072 
     39 O         -52.3984  -26.1004   16.0886 O.2       10 UNK        -0.5224 
     40 CA        -50.0602  -25.8120   16.4068 C.3       9 UNK         0.0343 
     41 CB        -49.5644  -27.1334   17.0307 C.3       9 UNK        -0.2003 
     42 N         -48.9660  -25.1351   15.7023 N.am      9 UNK        -0.4272 
     43 C         -47.9783  -24.4882   16.3383 C.2       9 UNK         0.4988 
     44 O         -47.9134  -24.3673   17.5630 O.2       9 UNK        -0.5108 
     45 CA        -46.8577  -23.8828   15.4798 C.3       8 UNK         0.0248 
     46 CB        -45.8603  -24.9736   15.0575 C.3       8 UNK        -0.2001 
     47 N         -47.3411  -23.1560   14.3042 N.am      8 UNK        -0.4140 
     48 C         -48.0602  -22.0246   14.3555 C.2       8 UNK         0.5028 
     49 O         -48.4030  -21.4746   15.4032 O.2       8 UNK        -0.5428 
     50 CA        -48.4572  -21.3836   13.0153 C.3       7 UNK         0.0264 
     51 CB        -47.3038  -20.5328   12.4595 C.3       7 UNK        -0.1988 
     52 N         -48.8712  -22.3601   12.0079 N.am      7 UNK        -0.4454 
     53 C         -49.9796  -23.1122   12.0837 C.2       7 UNK         0.5027 
     54 O         -50.7905  -23.0480   13.0083 O.2       7 UNK        -0.5083 
     55 CA        -50.1905  -24.1376   10.9487 C.3       6 UNK         0.0844 
     56 C56       -50.6466  -23.4489    9.6369 C.3       14 UNK        -0.0967 
     57 S57       -52.4101  -22.9843    9.6400 S.3       14 UNK        -0.2604 
     58 C58       -53.0903  -24.0783    8.3540 C.3       14 UNK         0.0134 
     59 N         -48.9953  -24.9569   10.7300 N.am      6 UNK        -0.4116 
     60 C         -48.3625  -25.6992   11.6511 C.2       5 UNK         0.5034 
     61 O         -48.7493  -25.8597   12.8105 O.2       5 UNK        -0.5045 
     62 CA        -47.0352  -26.3306   11.2073 C.3       5 UNK         0.0224 
     63 CB        -47.2830  -27.6396   10.4412 C.3       5 UNK        -0.1978 
     64 N         -46.2364  -25.4117   10.3891 N.am      5 UNK        -0.4737 
     65 C         -45.6686  -24.2896   10.8558 C.2       4 UNK         0.5027 
     66 O         -45.7353  -23.9283   12.0287 O.2       4 UNK        -0.5211 
     67 CA        -44.9494  -23.3951    9.8334 C.3       4 UNK         0.0297 
     68 CB        -43.5603  -23.9602    9.4974 C.3       4 UNK        -0.1993 
     69 N         -45.7225  -23.2148    8.6030 N.am      4 UNK        -0.4486 
     70 C         -46.9179  -22.6109    8.5392 C.2       3 UNK         0.4961 
     71 O         -47.4764  -22.0924    9.5051 O.2       3 UNK        -0.5105 
     72 CA        -47.6380  -22.6339    7.1791 C.3       3 UNK         0.0299 
     73 CB        -47.2369  -21.4113    6.3392 C.3       3 UNK        -0.1972 
     74 N         -47.4106  -23.8607    6.4054 N.am      3 UNK        -0.4305 
     75 C         -47.7040  -25.0981    6.8269 C.2       2 UNK         0.5006 
     76 O         -48.1816  -25.3516    7.9387 O.2       2 UNK        -0.5106 
     77 CA        -47.3677  -26.2437    5.8647 C.3       2 UNK         0.0296 
     78 CB        -45.8511  -26.5011    5.8212 C.3       2 UNK        -0.2002 
     79 N         -48.0407  -27.4406    6.3491 N.am      2 UNK        -0.4032 
     80 C         -48.6817  -28.3557    5.6148 C.2       1 UNK         0.5000 
     81 O         -48.7058  -28.3679    4.3825 O.2       1 UNK        -0.5238 
     82 H82       -45.9732  -30.4579    9.0714 H         1 UNK         0.0889 
     83 H83       -46.7765  -32.0238    8.9372 H         1 UNK         0.0889 
     84 H84       -47.5873  -30.6859    9.7507 H         1 UNK         0.0889 
     85 H85       -49.1713  -29.7513    8.4820 H         1 UNK         0.3028 
     86 H86       -49.5769  -30.2959    5.7674 H         1 UNK         0.0864 
     87 H87       -51.4643  -28.8082    5.8721 H         1 UNK         0.0720 
     88 H88       -50.7857  -27.8605    7.1573 H         1 UNK         0.0720 
     89 H89       -50.7059  -28.4132    9.5894 H         1 UNK         0.0814 
     90 H90       -51.8693  -29.4696   10.3391 H         1 UNK         0.0814 
     91 H91       -51.4478  -26.2488    8.5777 H         1 UNK         0.1469 
     92 H92       -55.4532  -24.9475    9.3685 H         1 UNK         0.1381 
     93 H93       -54.2766  -28.9546   10.3247 H         1 UNK         0.1206 
     94 H94       -56.2506  -27.4407   11.5455 H         1 UNK         0.0813 
     95 H95       -57.0420  -26.3847   10.4012 H         1 UNK         0.0813 
     96 H96       -59.3390  -28.4004   10.7581 H         1 UNK         0.0638 
     97 H97       -58.9587  -30.0820   10.5160 H         1 UNK         0.0638 
     98 H98       -57.9387  -28.2463   12.7221 H         1 UNK         0.0568 
     99 H99       -59.7473  -30.7495   14.9717 H         1 UNK         0.3450 
    100 H100      -58.0393  -30.6708   14.6104 H         1 UNK         0.3450 
    101 H101      -56.1009  -29.4330   12.9814 H         1 UNK         0.2987 
    102 H102      -55.3138  -32.7199   13.1454 H         1 UNK         0.0766 
    103 H103      -53.4313  -32.5431   11.5372 H         1 UNK         0.0798 
    104 H104      -54.2093  -31.1834   10.7318 H         1 UNK         0.0798 
    105 H105      -54.9433  -32.7776   10.6776 H         1 UNK         0.0798 
    106 H106      -53.5485  -30.4648   13.0428 H         1 UNK         0.3198 
    107 H107      -54.0825  -29.4023   16.3983 H         1 UNK         0.0843 
    108 H108      -51.7912  -30.9146   15.0421 H         1 UNK         0.0831 
    109 H109      -52.6488  -31.4300   16.4861 H         1 UNK         0.0831 
    110 H110      -51.6808  -29.9653   16.5229 H         1 UNK         0.0831 
    111 H111      -53.3075  -27.6491   15.3368 H         1 UNK         0.3133 
    112 H112      -51.5613  -26.9647   12.3298 H         1 UNK         0.0566 
    113 H113      -52.9475  -24.9640   12.7546 H         1 UNK         0.0814 
    114 H114      -53.9547  -26.3307   12.3219 H         1 UNK         0.0814 
    115 H115      -53.8702  -25.8123   13.9902 H         1 UNK         0.0814 
    116 H116      -50.1570  -26.3310   13.8718 H         1 UNK         0.3091 
    117 H117      -50.3984  -25.1572   17.2132 H         1 UNK         0.0702 
    118 H118      -50.3786  -27.6637   17.5271 H         1 UNK         0.0785 
    119 H119      -49.1519  -27.8028   16.2749 H         1 UNK         0.0785 
    120 H120      -48.7936  -26.9616   17.7818 H         1 UNK         0.0785 
    121 H121      -48.9523  -25.1786   14.6883 H         1 UNK         0.2998 
    122 H122      -46.3195  -23.1667   16.1046 H         1 UNK         0.0697 
    123 H123      -46.3164  -25.6976   14.3822 H         1 UNK         0.0825 
    124 H124      -45.4911  -25.5234   15.9243 H         1 UNK         0.0825 
    125 H125      -44.9929  -24.5451   14.5555 H         1 UNK         0.0825 
    126 H126      -47.0264  -23.4966   13.3993 H         1 UNK         0.3029 
    127 H127      -49.3059  -20.7229   13.2055 H         1 UNK         0.0897 
    128 H128      -46.4343  -21.1437   12.2129 H         1 UNK         0.0792 
    129 H129      -46.9838  -19.7843   13.1857 H         1 UNK         0.0792 
    130 H130      -47.6037  -20.0013   11.5561 H         1 UNK         0.0792 
    131 H131      -48.2792  -22.4379   11.1832 H         1 UNK         0.3086 
    132 H132      -50.9747  -24.8276   11.2645 H         1 UNK         0.0583 
    133 H133      -50.0621  -22.5505    9.4345 H         1 UNK         0.1020 
    134 H134      -50.4593  -24.1036    8.7857 H         1 UNK         0.1020 
    135 H135      -53.9956  -23.6183    7.9548 H         1 UNK         0.0694 
    136 H136      -52.4006  -24.1540    7.5119 H         1 UNK         0.0694 
    137 H137      -48.5964  -24.9305    9.7963 H         1 UNK         0.2989 
    138 H138      -46.4627  -26.5660   12.1069 H         1 UNK         0.1055 
    139 H139      -47.8265  -28.3534   11.0619 H         1 UNK         0.0806 
    140 H140      -46.3437  -28.1112   10.1525 H         1 UNK         0.0806 
    141 H141      -47.8719  -27.4796    9.5388 H         1 UNK         0.0806 
    142 H142      -46.1861  -25.6031    9.3992 H         1 UNK         0.3061 
    143 H143      -44.8164  -22.4121   10.2908 H         1 UNK         0.0734 
    144 H144      -43.0061  -23.2878    8.8423 H         1 UNK         0.0832 
    145 H145      -42.9648  -24.0903   10.4023 H         1 UNK         0.0832 
    146 H146      -43.6227  -24.9323    9.0067 H         1 UNK         0.0832 
    147 H147      -45.3388  -23.6061    7.7555 H         1 UNK         0.3156 
    148 H148      -48.7097  -22.5701    7.3758 H         1 UNK         0.0589 
    149 H149      -46.1792  -21.4309    6.0733 H         1 UNK         0.0808 
    150 H150      -47.8152  -21.3554    5.4167 H         1 UNK         0.0808 
    151 H151      -47.4176  -20.4856    6.8878 H         1 UNK         0.0808 
    152 H152      -47.0168  -23.7447    5.4822 H         1 UNK         0.3098 
    153 H153      -47.7329  -25.9810    4.8696 H         1 UNK         0.0720 
    154 H154      -45.6145  -27.3394    5.1654 H         1 UNK         0.0791 
    155 H155      -45.4511  -26.7314    6.8097 H         1 UNK         0.0791 
    156 H156      -45.3107  -25.6335    5.4409 H         1 UNK         0.0791 
    157 H157      -48.1459  -27.4710    7.3537 H         1 UNK         0.3028 
@<TRIPOS>BOND
     1    1    2 1    
     2    1   82 1    
     3    1   83 1    
     4    1   84 1    
     5    2    3 2    
     6    2    4 am   BACKBONE|DICT|INTERRES
     7    4    5 1    
     8    4   85 1    
     9    5    6 1    
    10    5   80 1    
    11    5   86 1    
    12    6    7 1    
    13    6   87 1    
    14    6   88 1    
    15    7    8 1    
    16    8    9 1    
    17    8   89 1    
    18    8   90 1    
    19    9   10 ar   
    20    9   14 ar   
    21   10   11 ar   
    22   10   91 1    
    23   11   12 ar   
    24   11   58 1    
    25   12   13 ar   
    26   12   92 1    
    27   13   14 ar   
    28   13   15 1    
    29   14   93 1    
    30   15   16 1    
    31   15   94 1    
    32   15   95 1    
    33   16   17 1    
    34   17   18 1    
    35   17   96 1    
    36   17   97 1    
    37   18   19 1    
    38   18   22 1    
    39   18   98 1    
    40   19   20 am   BACKBONE|DICT|INTERRES
    41   19   21 2    
    42   20   99 1    
    43   20  100 1    
    44   22   23 am   BACKBONE|DICT|INTERRES
    45   22  101 1    
    46   23   24 2    
    47   23   25 1    
    48   25   26 1    
    49   25   27 1    
    50   25  102 1    
    51   26  103 1    
    52   26  104 1    
    53   26  105 1    
    54   27   28 am   BACKBONE|DICT|INTERRES
    55   27  106 1    
    56   28   29 2    
    57   28   30 1    
    58   30   31 1    
    59   30   32 1    
    60   30  107 1    
    61   31  108 1    
    62   31  109 1    
    63   31  110 1    
    64   32   33 am   BACKBONE|DICT|INTERRES
    65   32  111 1    
    66   33   34 2    
    67   33   35 1    
    68   35   36 1    
    69   35   37 1    
    70   35  112 1    
    71   36  113 1    
    72   36  114 1    
    73   36  115 1    
    74   37   38 am   BACKBONE|DICT|INTERRES
    75   37  116 1    
    76   38   39 2    
    77   38   40 1    
    78   40   41 1    
    79   40   42 1    
    80   40  117 1    
    81   41  118 1    
    82   41  119 1    
    83   41  120 1    
    84   42   43 am   BACKBONE|DICT|INTERRES
    85   42  121 1    
    86   43   44 2    
    87   43   45 1    
    88   45   46 1    
    89   45   47 1    
    90   45  122 1    
    91   46  123 1    
    92   46  124 1    
    93   46  125 1    
    94   47   48 am   BACKBONE|DICT|INTERRES
    95   47  126 1    
    96   48   49 2    
    97   48   50 1    
    98   50   51 1    
    99   50   52 1    
   100   50  127 1    
   101   51  128 1    
   102   51  129 1    
   103   51  130 1    
   104   52   53 am   BACKBONE|DICT|INTERRES
   105   52  131 1    
   106   53   54 2    
   107   53   55 1    
   108   55   56 1    
   109   55   59 1    
   110   55  132 1    
   111   56   57 1    
   112   56  133 1    
   113   56  134 1    
   114   57   58 1    
   115   58  135 1    
   116   58  136 1    
   117   59   60 am   BACKBONE|DICT|INTERRES
   118   59  137 1    
   119   60   61 2    
   120   60   62 1    
   121   62   63 1    
   122   62   64 1    
   123   62  138 1    
   124   63  139 1    
   125   63  140 1    
   126   63  141 1    
   127   64   65 am   BACKBONE|DICT|INTERRES
   128   64  142 1    
   129   65   66 2    
   130   65   67 1    
   131   67   68 1    
   132   67   69 1    
   133   67  143 1    
   134   68  144 1    
   135   68  145 1    
   136   68  146 1    
   137   69   70 am   BACKBONE|DICT|INTERRES
   138   69  147 1    
   139   70   71 2    
   140   70   72 1    
   141   72   73 1    
   142   72   74 1    
   143   72  148 1    
   144   73  149 1    
   145   73  150 1    
   146   73  151 1    
   147   74   75 am   BACKBONE|DICT|INTERRES
   148   74  152 1    
   149   75   76 2    
   150   75   77 1    
   151   77   78 1    
   152   77   79 1    
   153   77  153 1    
   154   78  154 1    
   155   78  155 1    
   156   78  156 1    
   157   79   80 am   BACKBONE|DICT|INTERRES
   158   79  157 1    
   159   80   81 2    
@<TRIPOS>SUBSTRUCTURE
     1 UNK         1 GROUP             0       ****    0 ROOT    
