@<TRIPOS>MOLECULE
3R207
157   159    1
SMALL
USER_CHARGES


@<TRIPOS>ATOM
      1 CA        -44.3741  -31.8279    5.7667 C.3       0 UNK        -0.1975 
      2 C         -45.7297  -31.1577    5.5984 C.2       0 UNK         0.4852 
      3 O         -46.1284  -30.8619    4.4714 O.2       0 UNK        -0.5216 
      4 N         -46.4396  -30.9192    6.7107 N.am      1 UNK        -0.4461 
      5 CA        -47.7550  -30.2649    6.7490 C.3       1 UNK         0.0864 
      6 C6        -48.4380  -30.4943    8.1208 C.3       14 UNK        -0.0898 
      7 S7        -50.2478  -30.3028    8.0418 S.3       14 UNK        -0.2598 
      8 C8        -50.5290  -29.0426    9.3202 C.3       14 UNK         0.0286 
      9 C9        -51.8312  -28.3057    9.0678 C.ar      14 UNK        -0.0844 
     10 C10       -51.8121  -27.0922    8.3778 C.ar      14 UNK        -0.0881 
     11 C11       -52.9953  -26.3843    8.1546 C.ar      14 UNK        -0.0643 
     12 C12       -54.2089  -26.9184    8.5971 C.ar      14 UNK        -0.0930 
     13 C13       -54.2435  -28.1448    9.2683 C.ar      14 UNK        -0.0827 
     14 C14       -53.0487  -28.8305    9.5114 C.ar      14 UNK        -0.1249 
     15 C15       -55.5772  -28.7329    9.7021 C.3       14 UNK         0.0141 
     16 S16       -56.2362  -27.8848   11.1679 S.3       14 UNK        -0.2313 
     17 C17       -57.8798  -28.6660   11.2743 C.3       14 UNK        -0.0915 
     18 CA        -58.5713  -28.4173   12.6399 C.3       13 UNK         0.0968 
     19 C         -60.0446  -28.9206   12.6206 C.2       13 UNK         0.5732 
     20 N         -60.4288  -29.8983   13.4332 N.am      13 UNK        -0.7310 
     21 O         -60.8584  -28.4061   11.8570 O.2       13 UNK        -0.5035 
     22 N         -57.7607  -28.9347   13.7537 N.am      13 UNK        -0.4233 
     23 C         -57.8451  -28.5203   15.0238 C.2       13 UNK         0.4989 
     24 O         -58.6301  -27.6535   15.4107 O.2       13 UNK        -0.4996 
     25 CA        -56.9053  -29.1867   16.0470 C.3       12 UNK         0.0216 
     26 CB        -57.6831  -30.1930   16.9122 C.3       12 UNK        -0.1964 
     27 N         -55.7478  -29.8633   15.4486 N.am      12 UNK        -0.4276 
     28 C         -54.7026  -29.2352   14.8951 C.2       12 UNK         0.5020 
     29 O         -54.6039  -28.0085   14.8023 O.2       12 UNK        -0.5489 
     30 CA        -53.5932  -30.1323   14.3322 C.3       11 UNK         0.0294 
     31 CB        -53.9250  -30.5742   12.8976 C.3       11 UNK        -0.2019 
     32 N         -52.3550  -29.3624   14.3186 N.am      11 UNK        -0.4493 
     33 C         -51.1901  -29.7378   14.8566 C.2       11 UNK         0.4932 
     34 O         -50.9796  -30.8589   15.3211 O.2       11 UNK        -0.5029 
     35 CA        -50.0598  -28.6897   14.8898 C.3       10 UNK         0.0280 
     36 CB        -49.0249  -28.9944   13.7965 C.3       10 UNK        -0.1976 
     37 N         -50.5164  -27.3026   14.7409 N.am      10 UNK        -0.4242 
     38 C         -51.2781  -26.6400   15.6241 C.2       10 UNK         0.5072 
     39 O         -51.6651  -27.1195   16.6920 O.2       10 UNK        -0.5224 
     40 CA        -51.6462  -25.1961   15.2364 C.3       9 UNK         0.0343 
     41 CB        -52.5797  -24.5068   16.2542 C.3       9 UNK        -0.2003 
     42 N         -50.4539  -24.3838   14.9765 N.am      9 UNK        -0.4272 
     43 C         -49.4593  -24.0953   15.8316 C.2       9 UNK         0.4988 
     44 O         -49.4481  -24.4336   17.0158 O.2       9 UNK        -0.5108 
     45 CA        -48.2503  -23.3127   15.2840 C.3       8 UNK         0.0248 
     46 CB        -47.0191  -24.2311   15.2103 C.3       8 UNK        -0.2001 
     47 N         -48.4755  -22.7057   13.9686 N.am      8 UNK        -0.4140 
     48 C         -49.2606  -21.6434   13.7413 C.2       8 UNK         0.5028 
     49 O         -49.8419  -21.0188   14.6294 O.2       8 UNK        -0.5428 
     50 CA        -49.4551  -21.2219   12.2748 C.3       7 UNK         0.0264 
     51 CB        -48.2925  -20.3318   11.8073 C.3       7 UNK        -0.1988 
     52 N         -49.6061  -22.3513   11.3519 N.am      7 UNK        -0.4454 
     53 C         -50.6005  -23.2529   11.3843 C.2       7 UNK         0.5027 
     54 O         -51.4983  -23.2528   12.2269 O.2       7 UNK        -0.5083 
     55 CA        -50.5487  -24.3724   10.3222 C.3       6 UNK         0.0844 
     56 C56       -50.8721  -23.8310    8.9032 C.3       14 UNK        -0.0967 
     57 S57       -52.6625  -23.6726    8.5898 S.3       14 UNK        -0.2604 
     58 C58       -52.9649  -25.0462    7.4333 C.3       14 UNK         0.0134 
     59 N         -49.2627  -25.0756   10.3647 N.am      6 UNK        -0.4116 
     60 C         -48.7790  -25.7426   11.4235 C.2       5 UNK         0.5034 
     61 O         -49.4229  -25.9722   12.4481 O.2       5 UNK        -0.5045 
     62 CA        -47.3046  -26.1779   11.3514 C.3       5 UNK         0.0224 
     63 CB        -47.1554  -27.5846   10.7505 C.3       5 UNK        -0.1978 
     64 N         -46.4810  -25.2314   10.5931 N.am      5 UNK        -0.4737 
     65 C         -46.1538  -24.0029   11.0188 C.2       4 UNK         0.5027 
     66 O         -46.4741  -23.5556   12.1175 O.2       4 UNK        -0.5211 
     67 CA        -45.3882  -23.1049   10.0322 C.3       4 UNK         0.0297 
     68 CB        -43.8880  -23.4372   10.0494 C.3       4 UNK        -0.1993 
     69 N         -45.9026  -23.2111    8.6647 N.am      4 UNK        -0.4486 
     70 C         -47.1361  -22.8429    8.2885 C.2       3 UNK         0.4961 
     71 O         -47.9391  -22.2903    9.0385 O.2       3 UNK        -0.5105 
     72 CA        -47.5707  -23.2028    6.8553 C.3       3 UNK         0.0299 
     73 CB        -47.2668  -22.0423    5.8957 C.3       3 UNK        -0.1972 
     74 N         -46.9538  -24.4352    6.3501 N.am      3 UNK        -0.4305 
     75 C         -47.0956  -25.6488    6.9030 C.2       2 UNK         0.5006 
     76 O         -47.8123  -25.8727    7.8811 O.2       2 UNK        -0.5106 
     77 CA        -46.2032  -26.7544    6.3121 C.3       2 UNK         0.0296 
     78 CB        -44.7345  -26.5217    6.7121 C.3       2 UNK        -0.2002 
     79 N         -46.5747  -28.1095    6.7240 N.am      2 UNK        -0.4032 
     80 C         -47.6802  -28.7697    6.3495 C.2       1 UNK         0.5000 
     81 O         -48.5735  -28.2739    5.6596 O.2       1 UNK        -0.5238 
     82 H82       -43.5867  -31.1847    5.3746 H         1 UNK         0.0889 
     83 H83       -44.3504  -32.7689    5.2177 H         1 UNK         0.0889 
     84 H84       -44.1496  -32.0400    6.8119 H         1 UNK         0.0889 
     85 H85       -46.0625  -31.2041    7.6038 H         1 UNK         0.3028 
     86 H86       -48.3636  -30.7596    5.9881 H         1 UNK         0.0864 
     87 H87       -48.2582  -31.5167    8.4576 H         1 UNK         0.0720 
     88 H88       -48.0056  -29.8533    8.8901 H         1 UNK         0.0720 
     89 H89       -49.7060  -28.3272    9.3262 H         1 UNK         0.0814 
     90 H90       -50.5408  -29.5128   10.3048 H         1 UNK         0.0814 
     91 H91       -50.8700  -26.6992    8.0213 H         1 UNK         0.1469 
     92 H92       -55.1299  -26.3798    8.4198 H         1 UNK         0.1381 
     93 H93       -53.0639  -29.7799   10.0287 H         1 UNK         0.1206 
     94 H94       -56.2927  -28.6492    8.8825 H         1 UNK         0.0813 
     95 H95       -55.4763  -29.7979    9.9168 H         1 UNK         0.0813 
     96 H96       -58.4842  -28.2683   10.4567 H         1 UNK         0.0638 
     97 H97       -57.7783  -29.7375   11.0916 H         1 UNK         0.0638 
     98 H98       -58.6409  -27.3355   12.7698 H         1 UNK         0.0568 
     99 H99       -59.7729  -30.3260   14.0657 H         1 UNK         0.3450 
    100 H100      -61.3873  -30.2089   13.4115 H         1 UNK         0.3450 
    101 H101      -57.0858  -29.6455   13.5198 H         1 UNK         0.2987 
    102 H102      -56.5318  -28.3950   16.7003 H         1 UNK         0.0766 
    103 H103      -57.0560  -30.6045   17.7034 H         1 UNK         0.0798 
    104 H104      -58.0680  -31.0247   16.3208 H         1 UNK         0.0798 
    105 H105      -58.5365  -29.7155   17.3961 H         1 UNK         0.0798 
    106 H106      -55.7480  -30.8734   15.4815 H         1 UNK         0.3198 
    107 H107      -53.4935  -31.0112   14.9730 H         1 UNK         0.0843 
    108 H108      -54.0634  -29.7158   12.2404 H         1 UNK         0.0831 
    109 H109      -54.8422  -31.1632   12.8657 H         1 UNK         0.0831 
    110 H110      -53.1289  -31.1902   12.4791 H         1 UNK         0.0831 
    111 H111      -52.4690  -28.3948   14.0470 H         1 UNK         0.3133 
    112 H112      -49.5667  -28.7724   15.8604 H         1 UNK         0.0566 
    113 H113      -48.1845  -28.3014   13.8400 H         1 UNK         0.0814 
    114 H114      -48.6208  -30.0016   13.9075 H         1 UNK         0.0814 
    115 H115      -49.4694  -28.9281   12.8029 H         1 UNK         0.0814 
    116 H116      -50.2053  -26.8107   13.9040 H         1 UNK         0.3091 
    117 H117      -52.1853  -25.2586   14.2896 H         1 UNK         0.0702 
    118 H118      -53.5087  -25.0673   16.3665 H         1 UNK         0.0785 
    119 H119      -52.8441  -23.5006   15.9290 H         1 UNK         0.0785 
    120 H120      -52.1245  -24.4322   17.2422 H         1 UNK         0.0785 
    121 H121      -50.3601  -24.0611   14.0213 H         1 UNK         0.2998 
    122 H122      -48.0346  -22.5113   15.9936 H         1 UNK         0.0697 
    123 H123      -47.1781  -25.0582   14.5179 H         1 UNK         0.0825 
    124 H124      -46.7909  -24.6621   16.1861 H         1 UNK         0.0825 
    125 H125      -46.1339  -23.6848   14.8842 H         1 UNK         0.0825 
    126 H126      -47.9560  -23.1057   13.1897 H         1 UNK         0.3029 
    127 H127      -50.3748  -20.6353   12.2236 H         1 UNK         0.0897 
    128 H128      -48.4622  -19.9557   10.7982 H         1 UNK         0.0792 
    129 H129      -47.3456  -20.8730   11.8061 H         1 UNK         0.0792 
    130 H130      -48.1745  -19.4666   12.4610 H         1 UNK         0.0792 
    131 H131      -48.9208  -22.4123   10.6003 H         1 UNK         0.3086 
    132 H132      -51.3054  -25.1141   10.5885 H         1 UNK         0.0583 
    133 H133      -50.4183  -22.8549    8.7278 H         1 UNK         0.1020 
    134 H134      -50.4387  -24.4787    8.1414 H         1 UNK         0.1020 
    135 H135      -53.9182  -24.8747    6.9311 H         1 UNK         0.0694 
    136 H136      -52.2077  -25.0506    6.6477 H         1 UNK         0.0694 
    137 H137      -48.6713  -25.0059    9.5445 H         1 UNK         0.2989 
    138 H138      -46.9288  -26.2095   12.3763 H         1 UNK         0.1055 
    139 H139      -47.7732  -28.3095   11.2785 H         1 UNK         0.0806 
    140 H140      -46.1246  -27.9329   10.8172 H         1 UNK         0.0806 
    141 H141      -47.4472  -27.6136    9.7024 H         1 UNK         0.0806 
    142 H142      -46.2346  -25.5001    9.6516 H         1 UNK         0.3061 
    143 H143      -45.5135  -22.0704   10.3592 H         1 UNK         0.0734 
    144 H144      -43.3227  -22.7540    9.4152 H         1 UNK         0.0832 
    145 H145      -43.4826  -23.3489   11.0585 H         1 UNK         0.0832 
    146 H146      -43.6914  -24.4543    9.7080 H         1 UNK         0.0832 
    147 H147      -45.2996  -23.6384    7.9780 H         1 UNK         0.3156 
    148 H148      -48.6508  -23.3574    6.8673 H         1 UNK         0.0589 
    149 H149      -46.1959  -21.8515    5.8151 H         1 UNK         0.0808 
    150 H150      -47.6496  -22.2433    4.8949 H         1 UNK         0.0808 
    151 H151      -47.7367  -21.1196    6.2399 H         1 UNK         0.0808 
    152 H152      -46.3459  -24.3375    5.5490 H         1 UNK         0.3098 
    153 H153      -46.2840  -26.7050    5.2242 H         1 UNK         0.0720 
    154 H154      -44.0808  -27.2745    6.2706 H         1 UNK         0.0791 
    155 H155      -44.5994  -26.5568    7.7942 H         1 UNK         0.0791 
    156 H156      -44.3728  -25.5519    6.3687 H         1 UNK         0.0791 
    157 H157      -45.9027  -28.6043    7.2903 H         1 UNK         0.3028 
@<TRIPOS>BOND
     1    1    2 1    
     2    1   82 1    
     3    1   83 1    
     4    1   84 1    
     5    2    3 2    
     6    2    4 am   BACKBONE|DICT|INTERRES
     7    4    5 1    
     8    4   85 1    
     9    5    6 1    
    10    5   80 1    
    11    5   86 1    
    12    6    7 1    
    13    6   87 1    
    14    6   88 1    
    15    7    8 1    
    16    8    9 1    
    17    8   89 1    
    18    8   90 1    
    19    9   10 ar   
    20    9   14 ar   
    21   10   11 ar   
    22   10   91 1    
    23   11   12 ar   
    24   11   58 1    
    25   12   13 ar   
    26   12   92 1    
    27   13   14 ar   
    28   13   15 1    
    29   14   93 1    
    30   15   16 1    
    31   15   94 1    
    32   15   95 1    
    33   16   17 1    
    34   17   18 1    
    35   17   96 1    
    36   17   97 1    
    37   18   19 1    
    38   18   22 1    
    39   18   98 1    
    40   19   20 am   BACKBONE|DICT|INTERRES
    41   19   21 2    
    42   20   99 1    
    43   20  100 1    
    44   22   23 am   BACKBONE|DICT|INTERRES
    45   22  101 1    
    46   23   24 2    
    47   23   25 1    
    48   25   26 1    
    49   25   27 1    
    50   25  102 1    
    51   26  103 1    
    52   26  104 1    
    53   26  105 1    
    54   27   28 am   BACKBONE|DICT|INTERRES
    55   27  106 1    
    56   28   29 2    
    57   28   30 1    
    58   30   31 1    
    59   30   32 1    
    60   30  107 1    
    61   31  108 1    
    62   31  109 1    
    63   31  110 1    
    64   32   33 am   BACKBONE|DICT|INTERRES
    65   32  111 1    
    66   33   34 2    
    67   33   35 1    
    68   35   36 1    
    69   35   37 1    
    70   35  112 1    
    71   36  113 1    
    72   36  114 1    
    73   36  115 1    
    74   37   38 am   BACKBONE|DICT|INTERRES
    75   37  116 1    
    76   38   39 2    
    77   38   40 1    
    78   40   41 1    
    79   40   42 1    
    80   40  117 1    
    81   41  118 1    
    82   41  119 1    
    83   41  120 1    
    84   42   43 am   BACKBONE|DICT|INTERRES
    85   42  121 1    
    86   43   44 2    
    87   43   45 1    
    88   45   46 1    
    89   45   47 1    
    90   45  122 1    
    91   46  123 1    
    92   46  124 1    
    93   46  125 1    
    94   47   48 am   BACKBONE|DICT|INTERRES
    95   47  126 1    
    96   48   49 2    
    97   48   50 1    
    98   50   51 1    
    99   50   52 1    
   100   50  127 1    
   101   51  128 1    
   102   51  129 1    
   103   51  130 1    
   104   52   53 am   BACKBONE|DICT|INTERRES
   105   52  131 1    
   106   53   54 2    
   107   53   55 1    
   108   55   56 1    
   109   55   59 1    
   110   55  132 1    
   111   56   57 1    
   112   56  133 1    
   113   56  134 1    
   114   57   58 1    
   115   58  135 1    
   116   58  136 1    
   117   59   60 am   BACKBONE|DICT|INTERRES
   118   59  137 1    
   119   60   61 2    
   120   60   62 1    
   121   62   63 1    
   122   62   64 1    
   123   62  138 1    
   124   63  139 1    
   125   63  140 1    
   126   63  141 1    
   127   64   65 am   BACKBONE|DICT|INTERRES
   128   64  142 1    
   129   65   66 2    
   130   65   67 1    
   131   67   68 1    
   132   67   69 1    
   133   67  143 1    
   134   68  144 1    
   135   68  145 1    
   136   68  146 1    
   137   69   70 am   BACKBONE|DICT|INTERRES
   138   69  147 1    
   139   70   71 2    
   140   70   72 1    
   141   72   73 1    
   142   72   74 1    
   143   72  148 1    
   144   73  149 1    
   145   73  150 1    
   146   73  151 1    
   147   74   75 am   BACKBONE|DICT|INTERRES
   148   74  152 1    
   149   75   76 2    
   150   75   77 1    
   151   77   78 1    
   152   77   79 1    
   153   77  153 1    
   154   78  154 1    
   155   78  155 1    
   156   78  156 1    
   157   79   80 am   BACKBONE|DICT|INTERRES
   158   79  157 1    
   159   80   81 2    
@<TRIPOS>SUBSTRUCTURE
     1 UNK         1 GROUP             0       ****    0 ROOT    
