@<TRIPOS>MOLECULE
3R207
157   159    1
SMALL
USER_CHARGES


@<TRIPOS>ATOM
      1 CA        -48.7790  -29.4887   -0.8049 C.3       0 UNK        -0.1975 
      2 C         -48.8925  -28.7804    0.5372 C.2       0 UNK         0.4852 
      3 O         -48.2362  -27.7591    0.7469 O.2       0 UNK        -0.5216 
      4 N         -49.7258  -29.3089    1.4428 N.am      1 UNK        -0.4461 
      5 CA        -49.9080  -28.8035    2.8062 C.3       1 UNK         0.0864 
      6 C6        -51.2193  -29.3529    3.4232 C.3       14 UNK        -0.0898 
      7 S7        -51.6855  -28.5144    4.9767 S.3       14 UNK        -0.2598 
      8 C8        -51.7457  -29.9252    6.1279 C.3       14 UNK         0.0286 
      9 C9        -51.7628  -29.4677    7.5795 C.ar      14 UNK        -0.0844 
     10 C10       -50.6828  -29.7559    8.4192 C.ar      14 UNK        -0.0881 
     11 C11       -50.6792  -29.3217    9.7467 C.ar      14 UNK        -0.0643 
     12 C12       -51.7824  -28.6237   10.2453 C.ar      14 UNK        -0.0930 
     13 C13       -52.8702  -28.3287    9.4186 C.ar      14 UNK        -0.0827 
     14 C14       -52.8546  -28.7557    8.0867 C.ar      14 UNK        -0.1249 
     15 C15       -54.0414  -27.5099    9.9434 C.3       14 UNK         0.0141 
     16 S16       -55.5655  -28.4938   10.0770 S.3       14 UNK        -0.2313 
     17 C17       -55.3157  -29.4016   11.6401 C.3       14 UNK        -0.0915 
     18 CA        -56.2295  -28.8495   12.7694 C.3       13 UNK         0.0968 
     19 C         -56.3815  -29.8562   13.9439 C.2       13 UNK         0.5732 
     20 N         -56.1677  -29.4740   15.1948 N.am      13 UNK        -0.7310 
     21 O         -56.7294  -31.0131   13.7192 O.2       13 UNK        -0.5035 
     22 N         -55.8099  -27.4949   13.1730 N.am      13 UNK        -0.4233 
     23 C         -56.6226  -26.4343   13.2464 C.2       13 UNK         0.4989 
     24 O         -57.8473  -26.4909   13.1163 O.2       13 UNK        -0.4996 
     25 CA        -55.9277  -25.0771   13.4620 C.3       12 UNK         0.0216 
     26 CB        -56.8892  -23.8736   13.3508 C.3       12 UNK        -0.1964 
     27 N         -55.1543  -25.0240   14.7063 N.am      12 UNK        -0.4276 
     28 C         -55.6131  -25.0884   15.9647 C.2       12 UNK         0.5020 
     29 O         -56.7991  -25.2334   16.2670 O.2       12 UNK        -0.5489 
     30 CA        -54.5404  -24.9677   17.0650 C.3       11 UNK         0.0294 
     31 CB        -55.1114  -25.0785   18.4953 C.3       11 UNK        -0.2019 
     32 N         -53.4380  -25.9126   16.8588 N.am      11 UNK        -0.4493 
     33 C         -53.5100  -27.2517   16.8411 C.2       11 UNK         0.4932 
     34 O         -54.5391  -27.8824   17.0771 O.2       11 UNK        -0.5029 
     35 CA        -52.2380  -28.0350   16.4658 C.3       10 UNK         0.0280 
     36 CB        -52.4072  -28.6828   15.0802 C.3       10 UNK        -0.1976 
     37 N         -51.0197  -27.2210   16.4651 N.am      10 UNK        -0.4242 
     38 C         -50.3828  -26.7854   17.5610 C.2       10 UNK         0.5072 
     39 O         -50.7219  -27.0699   18.7103 O.2       10 UNK        -0.5224 
     40 CA        -49.1816  -25.8479   17.3389 C.3       9 UNK         0.0343 
     41 CB        -47.9121  -26.6563   17.0289 C.3       9 UNK        -0.2003 
     42 N         -49.4078  -24.8534   16.2835 N.am      9 UNK        -0.4272 
     43 C         -50.3509  -23.8989   16.3281 C.2       9 UNK         0.4988 
     44 O         -51.1235  -23.7413   17.2732 O.2       9 UNK        -0.5108 
     45 CA        -50.4912  -22.9938   15.0936 C.3       8 UNK         0.0248 
     46 CB        -49.3805  -21.9319   15.0587 C.3       8 UNK        -0.2001 
     47 N         -50.4958  -23.7541   13.8435 N.am      8 UNK        -0.4140 
     48 C         -51.4326  -24.6498   13.5028 C.2       8 UNK         0.5028 
     49 O         -52.4450  -24.8730   14.1671 O.2       8 UNK        -0.5428 
     50 CA        -51.1770  -25.4815   12.2384 C.3       7 UNK         0.0264 
     51 CB        -51.5931  -24.7217   10.9705 C.3       7 UNK        -0.1988 
     52 N         -49.7857  -25.9271   12.1286 N.am      7 UNK        -0.4454 
     53 C         -49.1945  -26.7759   12.9850 C.2       7 UNK         0.5027 
     54 O         -49.7811  -27.3097   13.9245 O.2       7 UNK        -0.5083 
     55 CA        -47.6843  -27.0333   12.8057 C.3       6 UNK         0.0844 
     56 C56       -47.3535  -28.2931   11.9619 C.3       14 UNK        -0.0967 
     57 S57       -48.1517  -28.3777   10.3224 S.3       14 UNK        -0.2604 
     58 C58       -49.4777  -29.5882   10.6386 C.3       14 UNK         0.0134 
     59 N         -46.9833  -25.8239   12.3641 N.am      6 UNK        -0.4116 
     60 C         -46.7667  -24.7743   13.1738 C.2       5 UNK         0.5034 
     61 O         -47.1261  -24.7337   14.3515 O.2       5 UNK        -0.5045 
     62 CA        -46.0673  -23.5472   12.5678 C.3       5 UNK         0.0224 
     63 CB        -44.5504  -23.7766   12.4727 C.3       5 UNK        -0.1978 
     64 N         -46.5910  -23.1705   11.2539 N.am      5 UNK        -0.4737 
     65 C         -47.8574  -22.8064   11.0068 C.2       4 UNK         0.5027 
     66 O         -48.7275  -22.7366   11.8726 O.2       4 UNK        -0.5211 
     67 CA        -48.2254  -22.4891    9.5465 C.3       4 UNK         0.0297 
     68 CB        -48.1787  -20.9727    9.3022 C.3       4 UNK        -0.1993 
     69 N         -47.3787  -23.1698    8.5601 N.am      4 UNK        -0.4486 
     70 C         -47.3079  -24.4986    8.4108 C.2       3 UNK         0.4961 
     71 O         -47.9386  -25.3015    9.1017 O.2       3 UNK        -0.5105 
     72 CA        -46.3311  -25.0085    7.3478 C.3       3 UNK         0.0299 
     73 CB        -44.8948  -25.0477    7.8996 C.3       3 UNK        -0.1972 
     74 N         -46.7329  -26.3513    6.9416 N.am      3 UNK        -0.4305 
     75 C         -46.6358  -26.8484    5.7035 C.2       2 UNK         0.5006 
     76 O         -46.1597  -26.2248    4.7532 O.2       2 UNK        -0.5106 
     77 CA        -47.1653  -28.2688    5.4603 C.3       2 UNK         0.0296 
     78 CB        -47.5903  -29.0235    6.7365 C.3       2 UNK        -0.2002 
     79 N         -48.2888  -28.1772    4.5336 N.am      2 UNK        -0.4032 
     80 C         -48.6714  -29.1277    3.6741 C.2       1 UNK         0.5000 
     81 O         -48.1163  -30.2254    3.5648 O.2       1 UNK        -0.5238 
     82 H82       -49.4223  -30.3668   -0.8587 H         1 UNK         0.0889 
     83 H83       -47.7516  -29.8104   -0.9731 H         1 UNK         0.0889 
     84 H84       -49.0610  -28.8122   -1.6113 H         1 UNK         0.0889 
     85 H85       -50.2125  -30.1667    1.2250 H         1 UNK         0.3028 
     86 H86       -50.0015  -27.7171    2.7354 H         1 UNK         0.0864 
     87 H87       -52.0442  -29.2031    2.7247 H         1 UNK         0.0720 
     88 H88       -51.1526  -30.4319    3.5756 H         1 UNK         0.0720 
     89 H89       -50.8866  -30.5736    5.9477 H         1 UNK         0.0814 
     90 H90       -52.6352  -30.5225    5.9227 H         1 UNK         0.0814 
     91 H91       -49.8333  -30.3059    8.0397 H         1 UNK         0.1469 
     92 H92       -51.7818  -28.3013   11.2752 H         1 UNK         0.1381 
     93 H93       -53.6898  -28.5240    7.4397 H         1 UNK         0.1206 
     94 H94       -54.2225  -26.6794    9.2597 H         1 UNK         0.0813 
     95 H95       -53.8102  -27.0598   10.9094 H         1 UNK         0.0813 
     96 H96       -55.5413  -30.4482   11.4284 H         1 UNK         0.0638 
     97 H97       -54.2657  -29.3731   11.9357 H         1 UNK         0.0638 
     98 H98       -57.2370  -28.7939   12.3528 H         1 UNK         0.0568 
     99 H99       -55.8695  -28.5383   15.4291 H         1 UNK         0.3450 
    100 H100      -56.2836  -30.1489   15.9332 H         1 UNK         0.3450 
    101 H101      -54.8246  -27.3669   13.3416 H         1 UNK         0.2987 
    102 H102      -55.2006  -24.9778   12.6542 H         1 UNK         0.0766 
    103 H103      -57.6718  -23.9033   14.1094 H         1 UNK         0.0798 
    104 H104      -56.3555  -22.9291   13.4565 H         1 UNK         0.0798 
    105 H105      -57.3828  -23.8593   12.3783 H         1 UNK         0.0798 
    106 H106      -54.1424  -24.9374   14.5805 H         1 UNK         0.3198 
    107 H107      -54.1080  -23.9709   16.9626 H         1 UNK         0.0843 
    108 H108      -55.6054  -26.0354   18.6654 H         1 UNK         0.0831 
    109 H109      -55.8495  -24.2971   18.6796 H         1 UNK         0.0831 
    110 H110      -54.3271  -24.9673   19.2439 H         1 UNK         0.0831 
    111 H111      -52.5483  -25.4895   16.6250 H         1 UNK         0.3133 
    112 H112      -52.1166  -28.8323   17.2018 H         1 UNK         0.0566 
    113 H113      -51.5406  -29.2901   14.8186 H         1 UNK         0.0814 
    114 H114      -53.2772  -29.3397   15.0554 H         1 UNK         0.0814 
    115 H115      -52.5369  -27.9328   14.2993 H         1 UNK         0.0814 
    116 H116      -50.6208  -27.0104   15.5521 H         1 UNK         0.3091 
    117 H117      -49.0145  -25.3017   18.2696 H         1 UNK         0.0702 
    118 H118      -47.0428  -26.0067   16.9242 H         1 UNK         0.0785 
    119 H119      -48.0144  -27.2305   16.1083 H         1 UNK         0.0785 
    120 H120      -47.6948  -27.3629   17.8309 H         1 UNK         0.0785 
    121 H121      -48.7803  -24.8843   15.4854 H         1 UNK         0.2998 
    122 H122      -51.4505  -22.4772   15.1681 H         1 UNK         0.0697 
    123 H123      -48.3926  -22.3803   14.9501 H         1 UNK         0.0825 
    124 H124      -49.3737  -21.3429   15.9767 H         1 UNK         0.0825 
    125 H125      -49.5229  -21.2389   14.2293 H         1 UNK         0.0825 
    126 H126      -49.7346  -23.5702   13.1924 H         1 UNK         0.3029 
    127 H127      -51.8050  -26.3679   12.3216 H         1 UNK         0.0897 
    128 H128      -51.0135  -23.8086   10.8363 H         1 UNK         0.0792 
    129 H129      -52.6447  -24.4356   11.0160 H         1 UNK         0.0792 
    130 H130      -51.4620  -25.3369   10.0796 H         1 UNK         0.0792 
    131 H131      -49.2371  -25.5498   11.3669 H         1 UNK         0.3086 
    132 H132      -47.3027  -27.2550   13.8048 H         1 UNK         0.0583 
    133 H133      -46.2745  -28.3597   11.8140 H         1 UNK         0.1020 
    134 H134      -47.6120  -29.1885   12.5301 H         1 UNK         0.1020 
    135 H135      -49.0960  -30.5958   10.4678 H         1 UNK         0.0694 
    136 H136      -49.7831  -29.5470   11.6854 H         1 UNK         0.0694 
    137 H137      -46.7208  -25.7714   11.3898 H         1 UNK         0.2989 
    138 H138      -46.2441  -22.7080   13.2445 H         1 UNK         0.1055 
    139 H139      -44.1357  -24.0491   13.4444 H         1 UNK         0.0806 
    140 H140      -44.0328  -22.8749   12.1446 H         1 UNK         0.0806 
    141 H141      -44.3024  -24.5784   11.7760 H         1 UNK         0.0806 
    142 H142      -45.9456  -23.1928   10.4784 H         1 UNK         0.3061 
    143 H143      -49.2514  -22.8283    9.3903 H         1 UNK         0.0734 
    144 H144      -47.1704  -20.5740    9.4205 H         1 UNK         0.0832 
    145 H145      -48.5268  -20.7196    8.3005 H         1 UNK         0.0832 
    146 H146      -48.8217  -20.4450   10.0084 H         1 UNK         0.0832 
    147 H147      -46.8207  -22.5814    7.9572 H         1 UNK         0.3156 
    148 H148      -46.3762  -24.3310    6.4923 H         1 UNK         0.0589 
    149 H149      -44.8149  -25.7028    8.7683 H         1 UNK         0.0808 
    150 H150      -44.1926  -25.4063    7.1467 H         1 UNK         0.0808 
    151 H151      -44.5600  -24.0555    8.2043 H         1 UNK         0.0808 
    152 H152      -47.2071  -26.8822    7.6631 H         1 UNK         0.3098 
    153 H153      -46.3540  -28.8243    4.9852 H         1 UNK         0.0720 
    154 H154      -47.9016  -30.0418    6.5041 H         1 UNK         0.0791 
    155 H155      -48.4234  -28.5274    7.2349 H         1 UNK         0.0791 
    156 H156      -46.7671  -29.0981    7.4484 H         1 UNK         0.0791 
    157 H157      -48.7819  -27.2944    4.5365 H         1 UNK         0.3028 
@<TRIPOS>BOND
     1    1    2 1    
     2    1   82 1    
     3    1   83 1    
     4    1   84 1    
     5    2    3 2    
     6    2    4 am   BACKBONE|DICT|INTERRES
     7    4    5 1    
     8    4   85 1    
     9    5    6 1    
    10    5   80 1    
    11    5   86 1    
    12    6    7 1    
    13    6   87 1    
    14    6   88 1    
    15    7    8 1    
    16    8    9 1    
    17    8   89 1    
    18    8   90 1    
    19    9   10 ar   
    20    9   14 ar   
    21   10   11 ar   
    22   10   91 1    
    23   11   12 ar   
    24   11   58 1    
    25   12   13 ar   
    26   12   92 1    
    27   13   14 ar   
    28   13   15 1    
    29   14   93 1    
    30   15   16 1    
    31   15   94 1    
    32   15   95 1    
    33   16   17 1    
    34   17   18 1    
    35   17   96 1    
    36   17   97 1    
    37   18   19 1    
    38   18   22 1    
    39   18   98 1    
    40   19   20 am   BACKBONE|DICT|INTERRES
    41   19   21 2    
    42   20   99 1    
    43   20  100 1    
    44   22   23 am   BACKBONE|DICT|INTERRES
    45   22  101 1    
    46   23   24 2    
    47   23   25 1    
    48   25   26 1    
    49   25   27 1    
    50   25  102 1    
    51   26  103 1    
    52   26  104 1    
    53   26  105 1    
    54   27   28 am   BACKBONE|DICT|INTERRES
    55   27  106 1    
    56   28   29 2    
    57   28   30 1    
    58   30   31 1    
    59   30   32 1    
    60   30  107 1    
    61   31  108 1    
    62   31  109 1    
    63   31  110 1    
    64   32   33 am   BACKBONE|DICT|INTERRES
    65   32  111 1    
    66   33   34 2    
    67   33   35 1    
    68   35   36 1    
    69   35   37 1    
    70   35  112 1    
    71   36  113 1    
    72   36  114 1    
    73   36  115 1    
    74   37   38 am   BACKBONE|DICT|INTERRES
    75   37  116 1    
    76   38   39 2    
    77   38   40 1    
    78   40   41 1    
    79   40   42 1    
    80   40  117 1    
    81   41  118 1    
    82   41  119 1    
    83   41  120 1    
    84   42   43 am   BACKBONE|DICT|INTERRES
    85   42  121 1    
    86   43   44 2    
    87   43   45 1    
    88   45   46 1    
    89   45   47 1    
    90   45  122 1    
    91   46  123 1    
    92   46  124 1    
    93   46  125 1    
    94   47   48 am   BACKBONE|DICT|INTERRES
    95   47  126 1    
    96   48   49 2    
    97   48   50 1    
    98   50   51 1    
    99   50   52 1    
   100   50  127 1    
   101   51  128 1    
   102   51  129 1    
   103   51  130 1    
   104   52   53 am   BACKBONE|DICT|INTERRES
   105   52  131 1    
   106   53   54 2    
   107   53   55 1    
   108   55   56 1    
   109   55   59 1    
   110   55  132 1    
   111   56   57 1    
   112   56  133 1    
   113   56  134 1    
   114   57   58 1    
   115   58  135 1    
   116   58  136 1    
   117   59   60 am   BACKBONE|DICT|INTERRES
   118   59  137 1    
   119   60   61 2    
   120   60   62 1    
   121   62   63 1    
   122   62   64 1    
   123   62  138 1    
   124   63  139 1    
   125   63  140 1    
   126   63  141 1    
   127   64   65 am   BACKBONE|DICT|INTERRES
   128   64  142 1    
   129   65   66 2    
   130   65   67 1    
   131   67   68 1    
   132   67   69 1    
   133   67  143 1    
   134   68  144 1    
   135   68  145 1    
   136   68  146 1    
   137   69   70 am   BACKBONE|DICT|INTERRES
   138   69  147 1    
   139   70   71 2    
   140   70   72 1    
   141   72   73 1    
   142   72   74 1    
   143   72  148 1    
   144   73  149 1    
   145   73  150 1    
   146   73  151 1    
   147   74   75 am   BACKBONE|DICT|INTERRES
   148   74  152 1    
   149   75   76 2    
   150   75   77 1    
   151   77   78 1    
   152   77   79 1    
   153   77  153 1    
   154   78  154 1    
   155   78  155 1    
   156   78  156 1    
   157   79   80 am   BACKBONE|DICT|INTERRES
   158   79  157 1    
   159   80   81 2    
@<TRIPOS>SUBSTRUCTURE
     1 UNK         1 GROUP             0       ****    0 ROOT    
