@<TRIPOS>MOLECULE
3R207
157   159    1
SMALL
USER_CHARGES


@<TRIPOS>ATOM
      1 CA        -52.0003  -22.8912    3.7682 C.3       0 UNK        -0.1975 
      2 C         -51.8816  -23.7100    5.0453 C.2       0 UNK         0.4852 
      3 O         -51.3109  -23.2316    6.0256 O.2       0 UNK        -0.5216 
      4 N         -52.4246  -24.9356    5.0418 N.am      1 UNK        -0.4461 
      5 CA        -52.3768  -25.8771    6.1668 C.3       1 UNK         0.0864 
      6 C6        -53.4187  -27.0118    5.9802 C.3       14 UNK        -0.0898 
      7 S7        -53.7239  -27.9686    7.5027 S.3       14 UNK        -0.2598 
      8 C8        -52.7777  -29.4827    7.1465 C.3       14 UNK         0.0286 
      9 C9        -52.4063  -30.1987    8.4329 C.ar      14 UNK        -0.0844 
     10 C10       -51.2059  -29.8959    9.0817 C.ar      14 UNK        -0.0881 
     11 C11       -50.8590  -30.5303   10.2832 C.ar      14 UNK        -0.0643 
     12 C12       -51.7496  -31.4577   10.8344 C.ar      14 UNK        -0.0930 
     13 C13       -52.9543  -31.7667   10.1952 C.ar      14 UNK        -0.0827 
     14 C14       -53.2658  -31.1512    8.9814 C.ar      14 UNK        -0.1249 
     15 C15       -53.9207  -32.7599   10.8213 C.3       14 UNK         0.0141 
     16 S16       -55.1741  -31.9160   11.8385 S.3       14 UNK        -0.2313 
     17 C17       -56.3805  -31.3561   10.5829 C.3       14 UNK        -0.0915 
     18 CA        -56.3061  -29.8312   10.2632 C.3       13 UNK         0.0968 
     19 C         -57.2778  -29.4107    9.1197 C.2       13 UNK         0.5732 
     20 N         -57.8526  -28.2138    9.1455 N.am      13 UNK        -0.7310 
     21 O         -57.4962  -30.1667    8.1758 O.2       13 UNK        -0.5035 
     22 N         -56.3597  -28.9774   11.4606 N.am      13 UNK        -0.4233 
     23 C         -57.3431  -28.9126   12.3651 C.2       13 UNK         0.4989 
     24 O         -58.3965  -29.5467   12.2820 O.2       13 UNK        -0.4996 
     25 CA        -57.0931  -27.9887   13.5766 C.3       12 UNK         0.0216 
     26 CB        -58.1487  -28.1651   14.6851 C.3       12 UNK        -0.1964 
     27 N         -55.7578  -28.1704   14.1607 N.am      12 UNK        -0.4276 
     28 C         -54.6212  -27.6641   13.6672 C.2       12 UNK         0.5020 
     29 O         -54.5677  -26.9981   12.6305 O.2       12 UNK        -0.5489 
     30 CA        -53.3283  -27.9654   14.4405 C.3       11 UNK         0.0294 
     31 CB        -52.3246  -28.7272   13.5574 C.3       11 UNK        -0.2019 
     32 N         -52.7172  -26.7250   14.9168 N.am      11 UNK        -0.4493 
     33 C         -53.2333  -25.9470   15.8792 C.2       11 UNK         0.4932 
     34 O         -54.2553  -26.2276   16.5092 O.2       11 UNK        -0.5029 
     35 CA        -52.4641  -24.6498   16.1920 C.3       10 UNK         0.0280 
     36 CB        -53.0143  -23.8915   17.4186 C.3       10 UNK        -0.1976 
     37 N         -51.0219  -24.8772   16.3188 N.am      10 UNK        -0.4242 
     38 C         -50.3882  -25.6718   17.1959 C.2       10 UNK         0.5072 
     39 O         -50.9527  -26.2934   18.0973 O.2       10 UNK        -0.5224 
     40 CA        -48.8627  -25.8253   17.0380 C.3       9 UNK         0.0343 
     41 CB        -48.5302  -27.2222   16.4870 C.3       9 UNK        -0.2003 
     42 N         -48.2529  -24.8130   16.1704 N.am      9 UNK        -0.4272 
     43 C         -48.0829  -23.5242   16.4994 C.2       9 UNK         0.4988 
     44 O         -48.3455  -23.0602   17.6093 O.2       9 UNK        -0.5108 
     45 CA        -47.5702  -22.5863   15.3921 C.3       8 UNK         0.0248 
     46 CB        -46.0392  -22.6611   15.2834 C.3       8 UNK        -0.2001 
     47 N         -48.1740  -22.8550   14.0821 N.am      8 UNK        -0.4140 
     48 C         -49.4816  -22.7446   13.8016 C.2       8 UNK         0.5028 
     49 O         -50.3276  -22.3728   14.6138 O.2       8 UNK        -0.5428 
     50 CA        -49.9347  -23.1727   12.3968 C.3       7 UNK         0.0264 
     51 CB        -49.6525  -22.0743   11.3590 C.3       7 UNK        -0.1988 
     52 N         -49.3098  -24.4288   11.9810 N.am      7 UNK        -0.4454 
     53 C         -49.5799  -25.6239   12.5277 C.2       7 UNK         0.5027 
     54 O         -50.4357  -25.8031   13.3961 O.2       7 UNK        -0.5083 
     55 CA        -48.7221  -26.8123   12.0554 C.3       6 UNK         0.0844 
     56 C56       -49.3412  -27.4695   10.7997 C.3       14 UNK        -0.0967 
     57 S57       -48.4519  -28.9855   10.3128 S.3       14 UNK        -0.2604 
     58 C58       -49.5433  -30.2677   11.0235 C.3       14 UNK         0.0134 
     59 N         -47.3253  -26.4138   11.8521 N.am      6 UNK        -0.4116 
     60 C         -46.4801  -26.0856   12.8407 C.2       5 UNK         0.5034 
     61 O         -46.7853  -26.0994   14.0318 O.2       5 UNK        -0.5045 
     62 CA        -45.0698  -25.6161   12.4409 C.3       5 UNK         0.0224 
     63 CB        -44.1285  -26.8203   12.2821 C.3       5 UNK        -0.1978 
     64 N         -45.0513  -24.8189   11.2130 N.am      5 UNK        -0.4737 
     65 C         -45.7149  -23.6684   11.0318 C.2       4 UNK         0.5027 
     66 O         -46.3426  -23.0992   11.9232 O.2       4 UNK        -0.5211 
     67 CA        -45.7332  -23.0844    9.6069 C.3       4 UNK         0.0297 
     68 CB        -44.6916  -21.9626    9.4767 C.3       4 UNK        -0.1993 
     69 N         -45.5167  -24.0801    8.5480 N.am      4 UNK        -0.4486 
     70 C         -46.2915  -25.1515    8.3265 C.2       3 UNK         0.4961 
     71 O         -47.2785  -25.4361    9.0078 O.2       3 UNK        -0.5105 
     72 CA        -45.8133  -26.1100    7.2255 C.3       3 UNK         0.0299 
     73 CB        -44.7980  -27.1097    7.8052 C.3       3 UNK        -0.1972 
     74 N         -46.9153  -26.8591    6.6232 N.am      3 UNK        -0.4305 
     75 C         -47.8449  -26.3461    5.8070 C.2       2 UNK         0.5006 
     76 O         -47.8605  -25.1684    5.4416 O.2       2 UNK        -0.5106 
     77 CA        -48.9009  -27.3190    5.2422 C.3       2 UNK         0.0296 
     78 CB        -48.8628  -28.7381    5.8594 C.3       2 UNK        -0.2002 
     79 N         -50.2552  -26.7580    5.2959 N.am      2 UNK        -0.4032 
     80 C         -50.9521  -26.4314    6.3962 C.2       1 UNK         0.5000 
     81 O         -50.5303  -26.5600    7.5458 O.2       1 UNK        -0.5238 
     82 H82       -52.5375  -23.4279    2.9864 H         1 UNK         0.0889 
     83 H83       -51.0092  -22.6429    3.3893 H         1 UNK         0.0889 
     84 H84       -52.5321  -21.9611    3.9671 H         1 UNK         0.0889 
     85 H85       -52.9002  -25.2611    4.2118 H         1 UNK         0.3028 
     86 H86       -52.6499  -25.3175    7.0646 H         1 UNK         0.0864 
     87 H87       -54.3785  -26.5805    5.6909 H         1 UNK         0.0720 
     88 H88       -53.1382  -27.6794    5.1633 H         1 UNK         0.0720 
     89 H89       -51.8711  -29.2392    6.5920 H         1 UNK         0.0814 
     90 H90       -53.3672  -30.1352    6.5006 H         1 UNK         0.0814 
     91 H91       -50.5549  -29.1552    8.6416 H         1 UNK         0.1469 
     92 H92       -51.5036  -31.9422   11.7696 H         1 UNK         0.1381 
     93 H93       -54.1937  -31.3874    8.4790 H         1 UNK         0.1206 
     94 H94       -54.4012  -33.3660   10.0520 H         1 UNK         0.0813 
     95 H95       -53.3736  -33.4597   11.4548 H         1 UNK         0.0813 
     96 H96       -56.2374  -31.9431    9.6748 H         1 UNK         0.0638 
     97 H97       -57.3768  -31.6175   10.9418 H         1 UNK         0.0638 
     98 H98       -55.3190  -29.6369    9.8480 H         1 UNK         0.0568 
     99 H99       -57.6719  -27.5765    9.9037 H         1 UNK         0.3450 
    100 H100      -58.4707  -27.9475    8.3957 H         1 UNK         0.3450 
    101 H101      -55.5553  -28.3765   11.6112 H         1 UNK         0.2987 
    102 H102      -57.1721  -26.9631   13.2098 H         1 UNK         0.0766 
    103 H103      -59.1522  -27.9648   14.3070 H         1 UNK         0.0798 
    104 H104      -57.9752  -27.4759   15.5119 H         1 UNK         0.0798 
    105 H105      -58.1472  -29.1794   15.0862 H         1 UNK         0.0798 
    106 H106      -55.7123  -28.7235   15.0049 H         1 UNK         0.3198 
    107 H107      -53.5601  -28.5878   15.3075 H         1 UNK         0.0843 
    108 H108      -52.7485  -29.6704   13.2093 H         1 UNK         0.0831 
    109 H109      -51.4101  -28.9609   14.1026 H         1 UNK         0.0831 
    110 H110      -52.0494  -28.1513   12.6734 H         1 UNK         0.0831 
    111 H111      -51.8934  -26.3985   14.4146 H         1 UNK         0.3133 
    112 H112      -52.5923  -24.0038   15.3223 H         1 UNK         0.0566 
    113 H113      -52.4611  -22.9685   17.5928 H         1 UNK         0.0814 
    114 H114      -52.9598  -24.4925   18.3268 H         1 UNK         0.0814 
    115 H115      -54.0602  -23.6195   17.2717 H         1 UNK         0.0814 
    116 H116      -50.4577  -24.4119   15.6191 H         1 UNK         0.3091 
    117 H117      -48.4204  -25.7351   18.0323 H         1 UNK         0.0702 
    118 H118      -47.4531  -27.3811   16.4322 H         1 UNK         0.0785 
    119 H119      -48.9422  -27.3674   15.4874 H         1 UNK         0.0785 
    120 H120      -48.9402  -28.0052   17.1263 H         1 UNK         0.0785 
    121 H121      -47.9256  -25.1357   15.2636 H         1 UNK         0.2998 
    122 H122      -47.8411  -21.5661   15.6717 H         1 UNK         0.0697 
    123 H123      -45.7032  -23.6616   15.0114 H         1 UNK         0.0825 
    124 H124      -45.5680  -22.4061   16.2335 H         1 UNK         0.0825 
    125 H125      -45.6591  -21.9654   14.5349 H         1 UNK         0.0825 
    126 H126      -47.5363  -23.1052   13.3280 H         1 UNK         0.3029 
    127 H127      -51.0150  -23.3322   12.4324 H         1 UNK         0.0897 
    128 H128      -48.5886  -21.8534   11.2734 H         1 UNK         0.0792 
    129 H129      -50.1546  -21.1454   11.6329 H         1 UNK         0.0792 
    130 H130      -50.0161  -22.3590   10.3714 H         1 UNK         0.0792 
    131 H131      -48.5790  -24.3704   11.2853 H         1 UNK         0.3086 
    132 H132      -48.7392  -27.5522   12.8588 H         1 UNK         0.0583 
    133 H133      -50.3935  -27.7080   10.9641 H         1 UNK         0.1020 
    134 H134      -49.3264  -26.7794    9.9543 H         1 UNK         0.1020 
    135 H135      -48.9798  -31.2012   11.0537 H         1 UNK         0.0694 
    136 H136      -49.7589  -30.0065   12.0608 H         1 UNK         0.0694 
    137 H137      -47.0268  -26.3216   10.8877 H         1 UNK         0.2989 
    138 H138      -44.6912  -24.9875   13.2492 H         1 UNK         0.1055 
    139 H139      -44.4408  -27.4746   11.4670 H         1 UNK         0.0806 
    140 H140      -43.1048  -26.5015   12.0848 H         1 UNK         0.0806 
    141 H141      -44.1083  -27.4212   13.1926 H         1 UNK         0.0806 
    142 H142      -44.5556  -25.2063   10.4240 H         1 UNK         0.3061 
    143 H143      -46.7238  -22.6521    9.4509 H         1 UNK         0.0734 
    144 H144      -43.6747  -22.3383    9.5972 H         1 UNK         0.0832 
    145 H145      -44.7568  -21.4687    8.5071 H         1 UNK         0.0832 
    146 H146      -44.8474  -21.1966   10.2381 H         1 UNK         0.0832 
    147 H147      -44.7133  -23.9349    7.9525 H         1 UNK         0.3156 
    148 H148      -45.3262  -25.5287    6.4396 H         1 UNK         0.0589 
    149 H149      -44.4245  -27.7870    7.0369 H         1 UNK         0.0808 
    150 H150      -43.9327  -26.5956    8.2256 H         1 UNK         0.0808 
    151 H151      -45.2363  -27.7145    8.6009 H         1 UNK         0.0808 
    152 H152      -47.0107  -27.8236    6.9039 H         1 UNK         0.3098 
    153 H153      -48.6653  -27.4236    4.1822 H         1 UNK         0.0720 
    154 H154      -47.9106  -29.2318    5.6612 H         1 UNK         0.0791 
    155 H155      -49.6382  -29.3729    5.4308 H         1 UNK         0.0791 
    156 H156      -49.0096  -28.7205    6.9395 H         1 UNK         0.0791 
    157 H157      -50.6778  -26.5604    4.4003 H         1 UNK         0.3028 
@<TRIPOS>BOND
     1    1    2 1    
     2    1   82 1    
     3    1   83 1    
     4    1   84 1    
     5    2    3 2    
     6    2    4 am   BACKBONE|DICT|INTERRES
     7    4    5 1    
     8    4   85 1    
     9    5    6 1    
    10    5   80 1    
    11    5   86 1    
    12    6    7 1    
    13    6   87 1    
    14    6   88 1    
    15    7    8 1    
    16    8    9 1    
    17    8   89 1    
    18    8   90 1    
    19    9   10 ar   
    20    9   14 ar   
    21   10   11 ar   
    22   10   91 1    
    23   11   12 ar   
    24   11   58 1    
    25   12   13 ar   
    26   12   92 1    
    27   13   14 ar   
    28   13   15 1    
    29   14   93 1    
    30   15   16 1    
    31   15   94 1    
    32   15   95 1    
    33   16   17 1    
    34   17   18 1    
    35   17   96 1    
    36   17   97 1    
    37   18   19 1    
    38   18   22 1    
    39   18   98 1    
    40   19   20 am   BACKBONE|DICT|INTERRES
    41   19   21 2    
    42   20   99 1    
    43   20  100 1    
    44   22   23 am   BACKBONE|DICT|INTERRES
    45   22  101 1    
    46   23   24 2    
    47   23   25 1    
    48   25   26 1    
    49   25   27 1    
    50   25  102 1    
    51   26  103 1    
    52   26  104 1    
    53   26  105 1    
    54   27   28 am   BACKBONE|DICT|INTERRES
    55   27  106 1    
    56   28   29 2    
    57   28   30 1    
    58   30   31 1    
    59   30   32 1    
    60   30  107 1    
    61   31  108 1    
    62   31  109 1    
    63   31  110 1    
    64   32   33 am   BACKBONE|DICT|INTERRES
    65   32  111 1    
    66   33   34 2    
    67   33   35 1    
    68   35   36 1    
    69   35   37 1    
    70   35  112 1    
    71   36  113 1    
    72   36  114 1    
    73   36  115 1    
    74   37   38 am   BACKBONE|DICT|INTERRES
    75   37  116 1    
    76   38   39 2    
    77   38   40 1    
    78   40   41 1    
    79   40   42 1    
    80   40  117 1    
    81   41  118 1    
    82   41  119 1    
    83   41  120 1    
    84   42   43 am   BACKBONE|DICT|INTERRES
    85   42  121 1    
    86   43   44 2    
    87   43   45 1    
    88   45   46 1    
    89   45   47 1    
    90   45  122 1    
    91   46  123 1    
    92   46  124 1    
    93   46  125 1    
    94   47   48 am   BACKBONE|DICT|INTERRES
    95   47  126 1    
    96   48   49 2    
    97   48   50 1    
    98   50   51 1    
    99   50   52 1    
   100   50  127 1    
   101   51  128 1    
   102   51  129 1    
   103   51  130 1    
   104   52   53 am   BACKBONE|DICT|INTERRES
   105   52  131 1    
   106   53   54 2    
   107   53   55 1    
   108   55   56 1    
   109   55   59 1    
   110   55  132 1    
   111   56   57 1    
   112   56  133 1    
   113   56  134 1    
   114   57   58 1    
   115   58  135 1    
   116   58  136 1    
   117   59   60 am   BACKBONE|DICT|INTERRES
   118   59  137 1    
   119   60   61 2    
   120   60   62 1    
   121   62   63 1    
   122   62   64 1    
   123   62  138 1    
   124   63  139 1    
   125   63  140 1    
   126   63  141 1    
   127   64   65 am   BACKBONE|DICT|INTERRES
   128   64  142 1    
   129   65   66 2    
   130   65   67 1    
   131   67   68 1    
   132   67   69 1    
   133   67  143 1    
   134   68  144 1    
   135   68  145 1    
   136   68  146 1    
   137   69   70 am   BACKBONE|DICT|INTERRES
   138   69  147 1    
   139   70   71 2    
   140   70   72 1    
   141   72   73 1    
   142   72   74 1    
   143   72  148 1    
   144   73  149 1    
   145   73  150 1    
   146   73  151 1    
   147   74   75 am   BACKBONE|DICT|INTERRES
   148   74  152 1    
   149   75   76 2    
   150   75   77 1    
   151   77   78 1    
   152   77   79 1    
   153   77  153 1    
   154   78  154 1    
   155   78  155 1    
   156   78  156 1    
   157   79   80 am   BACKBONE|DICT|INTERRES
   158   79  157 1    
   159   80   81 2    
@<TRIPOS>SUBSTRUCTURE
     1 UNK         1 GROUP             0       ****    0 ROOT    
