@<TRIPOS>MOLECULE
3R207
157   159    1
SMALL
USER_CHARGES


@<TRIPOS>ATOM
      1 CA        -46.2534  -26.8934    3.3613 C.3       0 UNK        -0.1975 
      2 C         -47.0752  -26.3805    4.5344 C.2       0 UNK         0.4852 
      3 O         -46.6486  -25.4405    5.2075 O.2       0 UNK        -0.5216 
      4 N         -48.2426  -26.9967    4.7772 N.am      1 UNK        -0.4461 
      5 CA        -49.2095  -26.6989    5.8438 C.3       1 UNK         0.0864 
      6 C6        -50.3255  -27.7713    5.8936 C.3       14 UNK        -0.0898 
      7 S7        -51.4932  -27.5979    4.5065 S.3       14 UNK        -0.2598 
      8 C8        -53.0584  -28.1305    5.2906 C.3       14 UNK         0.0286 
      9 C9        -53.5630  -27.2750    6.4582 C.ar      14 UNK        -0.0844 
     10 C10       -53.1017  -25.9747    6.7072 C.ar      14 UNK        -0.0881 
     11 C11       -53.5932  -25.2324    7.7853 C.ar      14 UNK        -0.0643 
     12 C12       -54.5933  -25.7811    8.5939 C.ar      14 UNK        -0.0930 
     13 C13       -55.0532  -27.0817    8.3722 C.ar      14 UNK        -0.0827 
     14 C14       -54.5349  -27.8191    7.3041 C.ar      14 UNK        -0.1249 
     15 C15       -56.1154  -27.6877    9.2804 C.3       14 UNK         0.0141 
     16 S16       -55.5393  -27.8528   11.0006 S.3       14 UNK        -0.2313 
     17 C17       -54.2095  -29.0969   10.8570 C.3       14 UNK        -0.0915 
     18 CA        -54.3879  -30.3030   11.8232 C.3       13 UNK         0.0968 
     19 C         -53.2968  -31.3949   11.6030 C.2       13 UNK         0.5732 
     20 N         -52.7477  -32.0092   12.6442 N.am      13 UNK        -0.7310 
     21 O         -52.9698  -31.7246   10.4658 O.2       13 UNK        -0.5035 
     22 N         -54.5962  -29.9139   13.2325 N.am      13 UNK        -0.4233 
     23 C         -53.7736  -29.1831   13.9956 C.2       13 UNK         0.4989 
     24 O         -52.7049  -28.6965   13.6178 O.2       13 UNK        -0.4996 
     25 CA        -54.2123  -28.9964   15.4515 C.3       12 UNK         0.0216 
     26 CB        -53.8554  -30.2382   16.2916 C.3       12 UNK        -0.1964 
     27 N         -53.5480  -27.8162   15.9932 N.am      12 UNK        -0.4276 
     28 C         -53.9221  -27.1290   17.0792 C.2       12 UNK         0.5020 
     29 O         -54.9014  -27.4302   17.7641 O.2       12 UNK        -0.5489 
     30 CA        -53.0960  -25.8796   17.4546 C.3       11 UNK         0.0294 
     31 CB        -52.9356  -25.7177   18.9819 C.3       11 UNK        -0.2019 
     32 N         -51.7989  -25.7795   16.7666 N.am      11 UNK        -0.4493 
     33 C         -50.7356  -26.5867   16.9125 C.2       11 UNK         0.4932 
     34 O         -50.6976  -27.5344   17.6970 O.2       11 UNK        -0.5029 
     35 CA        -49.5155  -26.3262   16.0135 C.3       10 UNK         0.0280 
     36 CB        -49.2899  -27.5238   15.0719 C.3       10 UNK        -0.1976 
     37 N         -49.6579  -25.1193   15.1949 N.am      10 UNK        -0.4242 
     38 C         -49.0189  -23.9608   15.3957 C.2       10 UNK         0.5072 
     39 O         -48.2922  -23.7347   16.3638 O.2       10 UNK        -0.5224 
     40 CA        -49.2006  -22.8771   14.3226 C.3       9 UNK         0.0343 
     41 CB        -48.4181  -23.2461   13.0491 C.3       9 UNK        -0.2003 
     42 N         -50.6075  -22.6613   13.9696 N.am      9 UNK        -0.4272 
     43 C         -51.2640  -21.5025   14.1336 C.2       9 UNK         0.4988 
     44 O         -50.7837  -20.5204   14.7015 O.2       9 UNK        -0.5108 
     45 CA        -52.6807  -21.3798   13.5365 C.3       8 UNK         0.0248 
     46 CB        -52.6444  -20.5209   12.2611 C.3       8 UNK        -0.2001 
     47 N         -53.3054  -22.6651   13.2196 N.am      8 UNK        -0.4140 
     48 C         -53.8466  -23.4886   14.1269 C.2       8 UNK         0.5028 
     49 O         -53.9236  -23.2238   15.3255 O.2       8 UNK        -0.5428 
     50 CA        -54.3528  -24.8554   13.6257 C.3       7 UNK         0.0264 
     51 CB        -55.8647  -24.8044   13.3581 C.3       7 UNK        -0.1988 
     52 N         -53.6627  -25.3586   12.4320 N.am      7 UNK        -0.4454 
     53 C         -52.3446  -25.5745   12.3428 C.2       7 UNK         0.5027 
     54 O         -51.5578  -25.3687   13.2716 O.2       7 UNK        -0.5083 
     55 CA        -51.7871  -26.0297   10.9872 C.3       6 UNK         0.0844 
     56 C56       -51.3158  -24.8449   10.1002 C.3       14 UNK        -0.0967 
     57 S57       -52.5838  -23.5589    9.8001 S.3       14 UNK        -0.2604 
     58 C58       -53.0461  -23.8349    8.0561 C.3       14 UNK         0.0134 
     59 N         -50.6939  -26.9346   11.3216 N.am      6 UNK        -0.4116 
     60 C         -50.2067  -27.9109   10.5563 C.2       5 UNK         0.5034 
     61 O         -50.5988  -28.1522    9.4153 O.2       5 UNK        -0.5045 
     62 CA        -49.1223  -28.7898   11.1924 C.3       5 UNK         0.0224 
     63 CB        -49.7513  -30.0800   11.7547 C.3       5 UNK        -0.1978 
     64 N         -48.0949  -29.0945   10.1968 N.am      5 UNK        -0.4737 
     65 C         -46.9069  -29.6622   10.4451 C.2       4 UNK         0.5027 
     66 O         -46.5290  -29.9997   11.5672 O.2       4 UNK        -0.5211 
     67 CA        -45.9697  -29.8712    9.2470 C.3       4 UNK         0.0297 
     68 CB        -46.6117  -30.7747    8.1788 C.3       4 UNK        -0.1993 
     69 N         -45.6343  -28.5782    8.6578 N.am      4 UNK        -0.4486 
     70 C         -44.4553  -27.9507    8.7700 C.2       3 UNK         0.4961 
     71 O         -43.4636  -28.4442    9.3083 O.2       3 UNK        -0.5105 
     72 CA        -44.3543  -26.5239    8.1888 C.3       3 UNK         0.0299 
     73 CB        -43.7517  -26.5658    6.7757 C.3       3 UNK        -0.1972 
     74 N         -45.6391  -25.8189    8.1449 N.am      3 UNK        -0.4305 
     75 C         -46.3565  -25.4817    9.2281 C.2       2 UNK         0.5006 
     76 O         -45.9381  -25.5862   10.3813 O.2       2 UNK        -0.5106 
     77 CA        -47.7975  -24.9807    9.0105 C.3       2 UNK         0.0296 
     78 CB        -47.8635  -23.4539    9.1805 C.3       2 UNK        -0.2002 
     79 N         -48.4105  -25.3441    7.7267 N.am      2 UNK        -0.4032 
     80 C         -48.5322  -26.5812    7.2206 C.2       1 UNK         0.5000 
     81 O         -48.0959  -27.5972    7.7631 O.2       1 UNK        -0.5238 
     82 H82       -46.7439  -27.7212    2.8493 H         1 UNK         0.0889 
     83 H83       -45.2792  -27.2378    3.7065 H         1 UNK         0.0889 
     84 H84       -46.0950  -26.0938    2.6383 H         1 UNK         0.0889 
     85 H85       -48.5150  -27.7600    4.1746 H         1 UNK         0.3028 
     86 H86       -49.6644  -25.7344    5.6099 H         1 UNK         0.0864 
     87 H87       -50.8864  -27.6995    6.8265 H         1 UNK         0.0720 
     88 H88       -49.9034  -28.7781    5.8831 H         1 UNK         0.0720 
     89 H89       -53.8333  -28.1516    4.5233 H         1 UNK         0.0814 
     90 H90       -52.9318  -29.1610    5.6268 H         1 UNK         0.0814 
     91 H91       -52.3538  -25.5321    6.0659 H         1 UNK         0.1469 
     92 H92       -54.9984  -25.2032    9.4126 H         1 UNK         0.1381 
     93 H93       -54.8945  -28.8235    7.1254 H         1 UNK         0.1206 
     94 H94       -57.0001  -27.0500    9.2654 H         1 UNK         0.0813 
     95 H95       -56.4359  -28.6648    8.9156 H         1 UNK         0.0813 
     96 H96       -53.2533  -28.6115   11.0424 H         1 UNK         0.0638 
     97 H97       -54.1676  -29.4455    9.8239 H         1 UNK         0.0638 
     98 H98       -55.3164  -30.7968   11.5350 H         1 UNK         0.0568 
     99 H99       -53.0110  -31.7628   13.5834 H         1 UNK         0.3450 
    100 H100      -52.0581  -32.7256   12.4833 H         1 UNK         0.3450 
    101 H101      -55.4404  -30.2776   13.6501 H         1 UNK         0.2987 
    102 H102      -55.2921  -28.8332   15.4708 H         1 UNK         0.0766 
    103 H103      -54.1857  -30.1293   17.3247 H         1 UNK         0.0798 
    104 H104      -52.7792  -30.4169   16.3044 H         1 UNK         0.0798 
    105 H105      -54.3335  -31.1355   15.8970 H         1 UNK         0.0798 
    106 H106      -52.7495  -27.5080   15.4519 H         1 UNK         0.3198 
    107 H107      -53.6857  -25.0311   17.1101 H         1 UNK         0.0843 
    108 H108      -52.4400  -26.5772   19.4336 H         1 UNK         0.0831 
    109 H109      -53.9068  -25.6156   19.4677 H         1 UNK         0.0831 
    110 H110      -52.3580  -24.8270   19.2288 H         1 UNK         0.0831 
    111 H111      -51.7213  -25.0260   16.0979 H         1 UNK         0.3133 
    112 H112      -48.6446  -26.2382   16.6661 H         1 UNK         0.0566 
    113 H113      -48.4153  -27.3712   14.4394 H         1 UNK         0.0814 
    114 H114      -49.1195  -28.4407   15.6378 H         1 UNK         0.0814 
    115 H115      -50.1507  -27.6994   14.4254 H         1 UNK         0.0814 
    116 H116      -50.2802  -25.2031   14.3916 H         1 UNK         0.3091 
    117 H117      -48.7623  -21.9597   14.7214 H         1 UNK         0.0702 
    118 H118      -48.4651  -22.4414   12.3154 H         1 UNK         0.0785 
    119 H119      -48.8042  -24.1505   12.5775 H         1 UNK         0.0785 
    120 H120      -47.3642  -23.4190   13.2720 H         1 UNK         0.0785 
    121 H121      -51.0940  -23.4390   13.5403 H         1 UNK         0.2998 
    122 H122      -53.3018  -20.8657   14.2733 H         1 UNK         0.0697 
    123 H123      -52.0215  -20.9716   11.4874 H         1 UNK         0.0825 
    124 H124      -52.2376  -19.5301   12.4686 H         1 UNK         0.0825 
    125 H125      -53.6432  -20.3784   11.8479 H         1 UNK         0.0825 
    126 H126      -53.2870  -22.9564   12.2516 H         1 UNK         0.3029 
    127 H127      -54.1758  -25.5731   14.4269 H         1 UNK         0.0897 
    128 H128      -56.2634  -25.7955   13.1419 H         1 UNK         0.0792 
    129 H129      -56.1050  -24.1528   12.5171 H         1 UNK         0.0792 
    130 H130      -56.4036  -24.4268   14.2284 H         1 UNK         0.0792 
    131 H131      -54.2420  -25.5696   11.6318 H         1 UNK         0.3086 
    132 H132      -52.5619  -26.5816   10.4551 H         1 UNK         0.0583 
    133 H133      -50.4603  -24.3525   10.5642 H         1 UNK         0.1020 
    134 H134      -50.9605  -25.2266    9.1422 H         1 UNK         0.1020 
    135 H135      -53.8040  -23.1027    7.7751 H         1 UNK         0.0694 
    136 H136      -52.1741  -23.6310    7.4326 H         1 UNK         0.0694 
    137 H137      -50.3777  -26.8357   12.2769 H         1 UNK         0.2989 
    138 H138      -48.6480  -28.2367   12.0058 H         1 UNK         0.1055 
    139 H139      -50.5465  -29.8495   12.4646 H         1 UNK         0.0806 
    140 H140      -49.0220  -30.6922   12.2844 H         1 UNK         0.0806 
    141 H141      -50.1889  -30.6889   10.9625 H         1 UNK         0.0806 
    142 H142      -48.3100  -28.7776    9.2519 H         1 UNK         0.3061 
    143 H143      -45.0689  -30.3708    9.6100 H         1 UNK         0.0734 
    144 H144      -46.9092  -31.7328    8.6070 H         1 UNK         0.0832 
    145 H145      -47.5010  -30.3238    7.7367 H         1 UNK         0.0832 
    146 H146      -45.9111  -30.9846    7.3707 H         1 UNK         0.0832 
    147 H147      -46.4166  -28.0791    8.2368 H         1 UNK         0.3156 
    148 H148      -43.6820  -25.9514    8.8311 H         1 UNK         0.0589 
    149 H149      -44.3726  -27.1448    6.0917 H         1 UNK         0.0808 
    150 H150      -43.6380  -25.5642    6.3602 H         1 UNK         0.0808 
    151 H151      -42.7630  -27.0266    6.7871 H         1 UNK         0.0808 
    152 H152      -46.0495  -25.6753    7.2274 H         1 UNK         0.3098 
    153 H153      -48.4018  -25.4410    9.7934 H         1 UNK         0.0720 
    154 H154      -48.8899  -23.0882    9.1490 H         1 UNK         0.0791 
    155 H155      -47.3006  -22.9395    8.4005 H         1 UNK         0.0791 
    156 H156      -47.4411  -23.1480   10.1385 H         1 UNK         0.0791 
    157 H157      -48.7363  -24.5712    7.1644 H         1 UNK         0.3028 
@<TRIPOS>BOND
     1    1    2 1    
     2    1   82 1    
     3    1   83 1    
     4    1   84 1    
     5    2    3 2    
     6    2    4 am   BACKBONE|DICT|INTERRES
     7    4    5 1    
     8    4   85 1    
     9    5    6 1    
    10    5   80 1    
    11    5   86 1    
    12    6    7 1    
    13    6   87 1    
    14    6   88 1    
    15    7    8 1    
    16    8    9 1    
    17    8   89 1    
    18    8   90 1    
    19    9   10 ar   
    20    9   14 ar   
    21   10   11 ar   
    22   10   91 1    
    23   11   12 ar   
    24   11   58 1    
    25   12   13 ar   
    26   12   92 1    
    27   13   14 ar   
    28   13   15 1    
    29   14   93 1    
    30   15   16 1    
    31   15   94 1    
    32   15   95 1    
    33   16   17 1    
    34   17   18 1    
    35   17   96 1    
    36   17   97 1    
    37   18   19 1    
    38   18   22 1    
    39   18   98 1    
    40   19   20 am   BACKBONE|DICT|INTERRES
    41   19   21 2    
    42   20   99 1    
    43   20  100 1    
    44   22   23 am   BACKBONE|DICT|INTERRES
    45   22  101 1    
    46   23   24 2    
    47   23   25 1    
    48   25   26 1    
    49   25   27 1    
    50   25  102 1    
    51   26  103 1    
    52   26  104 1    
    53   26  105 1    
    54   27   28 am   BACKBONE|DICT|INTERRES
    55   27  106 1    
    56   28   29 2    
    57   28   30 1    
    58   30   31 1    
    59   30   32 1    
    60   30  107 1    
    61   31  108 1    
    62   31  109 1    
    63   31  110 1    
    64   32   33 am   BACKBONE|DICT|INTERRES
    65   32  111 1    
    66   33   34 2    
    67   33   35 1    
    68   35   36 1    
    69   35   37 1    
    70   35  112 1    
    71   36  113 1    
    72   36  114 1    
    73   36  115 1    
    74   37   38 am   BACKBONE|DICT|INTERRES
    75   37  116 1    
    76   38   39 2    
    77   38   40 1    
    78   40   41 1    
    79   40   42 1    
    80   40  117 1    
    81   41  118 1    
    82   41  119 1    
    83   41  120 1    
    84   42   43 am   BACKBONE|DICT|INTERRES
    85   42  121 1    
    86   43   44 2    
    87   43   45 1    
    88   45   46 1    
    89   45   47 1    
    90   45  122 1    
    91   46  123 1    
    92   46  124 1    
    93   46  125 1    
    94   47   48 am   BACKBONE|DICT|INTERRES
    95   47  126 1    
    96   48   49 2    
    97   48   50 1    
    98   50   51 1    
    99   50   52 1    
   100   50  127 1    
   101   51  128 1    
   102   51  129 1    
   103   51  130 1    
   104   52   53 am   BACKBONE|DICT|INTERRES
   105   52  131 1    
   106   53   54 2    
   107   53   55 1    
   108   55   56 1    
   109   55   59 1    
   110   55  132 1    
   111   56   57 1    
   112   56  133 1    
   113   56  134 1    
   114   57   58 1    
   115   58  135 1    
   116   58  136 1    
   117   59   60 am   BACKBONE|DICT|INTERRES
   118   59  137 1    
   119   60   61 2    
   120   60   62 1    
   121   62   63 1    
   122   62   64 1    
   123   62  138 1    
   124   63  139 1    
   125   63  140 1    
   126   63  141 1    
   127   64   65 am   BACKBONE|DICT|INTERRES
   128   64  142 1    
   129   65   66 2    
   130   65   67 1    
   131   67   68 1    
   132   67   69 1    
   133   67  143 1    
   134   68  144 1    
   135   68  145 1    
   136   68  146 1    
   137   69   70 am   BACKBONE|DICT|INTERRES
   138   69  147 1    
   139   70   71 2    
   140   70   72 1    
   141   72   73 1    
   142   72   74 1    
   143   72  148 1    
   144   73  149 1    
   145   73  150 1    
   146   73  151 1    
   147   74   75 am   BACKBONE|DICT|INTERRES
   148   74  152 1    
   149   75   76 2    
   150   75   77 1    
   151   77   78 1    
   152   77   79 1    
   153   77  153 1    
   154   78  154 1    
   155   78  155 1    
   156   78  156 1    
   157   79   80 am   BACKBONE|DICT|INTERRES
   158   79  157 1    
   159   80   81 2    
@<TRIPOS>SUBSTRUCTURE
     1 UNK         1 GROUP             0       ****    0 ROOT    
