@<TRIPOS>MOLECULE
3R207
157   159    1
SMALL
USER_CHARGES


@<TRIPOS>ATOM
      1 CA        -44.4965  -28.6880    6.6472 C.3       0 UNK        -0.1975 
      2 C         -45.7812  -28.2533    5.9575 C.2       0 UNK         0.4852 
      3 O         -45.7522  -27.3455    5.1258 O.2       0 UNK        -0.5216 
      4 N         -46.9062  -28.8975    6.2938 N.am      1 UNK        -0.4461 
      5 CA        -48.2491  -28.5556    5.8178 C.3       1 UNK         0.0864 
      6 C6        -49.2774  -29.6720    6.1378 C.3       14 UNK        -0.0898 
      7 S7        -49.3104  -30.1989    7.8906 S.3       14 UNK        -0.2598 
      8 C8        -50.9682  -30.9546    8.0058 C.3       14 UNK         0.0286 
      9 C9        -52.0707  -30.0245    8.5160 C.ar      14 UNK        -0.0844 
     10 C10       -52.0840  -28.6506    8.2389 C.ar      14 UNK        -0.0881 
     11 C11       -53.1222  -27.8377    8.7063 C.ar      14 UNK        -0.0643 
     12 C12       -54.1553  -28.4045    9.4572 C.ar      14 UNK        -0.0930 
     13 C13       -54.1646  -29.7746    9.7293 C.ar      14 UNK        -0.0827 
     14 C14       -53.1217  -30.5759    9.2571 C.ar      14 UNK        -0.1249 
     15 C15       -55.3006  -30.3856   10.5342 C.3       14 UNK         0.0141 
     16 S16       -56.8134  -30.5406    9.5330 S.3       14 UNK        -0.2313 
     17 C17       -57.9501  -31.3431   10.7156 C.3       14 UNK        -0.0915 
     18 CA        -59.0745  -30.3946   11.2347 C.3       13 UNK         0.0968 
     19 C         -60.1549  -31.1483   12.0711 C.2       13 UNK         0.5732 
     20 N         -60.7565  -30.5336   13.0828 N.am      13 UNK        -0.7310 
     21 O         -60.4829  -32.2967   11.7806 O.2       13 UNK        -0.5035 
     22 N         -58.5552  -29.1635   11.8622 N.am      13 UNK        -0.4233 
     23 C         -57.7797  -29.1096   12.9513 C.2       13 UNK         0.4989 
     24 O         -57.4310  -30.0925   13.6107 O.2       13 UNK        -0.4996 
     25 CA        -57.2838  -27.7236   13.3697 C.3       12 UNK         0.0216 
     26 CB        -58.1747  -27.1145   14.4665 C.3       12 UNK        -0.1964 
     27 N         -55.9197  -27.8884   13.8580 N.am      12 UNK        -0.4276 
     28 C         -54.9504  -26.9729   13.7933 C.2       12 UNK         0.5020 
     29 O         -55.1154  -25.8201   13.3858 O.2       12 UNK        -0.5489 
     30 CA        -53.5494  -27.4561   14.2025 C.3       11 UNK         0.0294 
     31 CB        -52.8144  -28.0407   12.9853 C.3       11 UNK        -0.2019 
     32 N         -52.7448  -26.3769   14.7735 N.am      11 UNK        -0.4493 
     33 C         -52.9285  -25.8543   15.9927 C.2       11 UNK         0.4932 
     34 O         -53.7978  -26.2365   16.7793 O.2       11 UNK        -0.5029 
     35 CA        -51.9435  -24.7418   16.4008 C.3       10 UNK         0.0280 
     36 CB        -52.1225  -24.2675   17.8586 C.3       10 UNK        -0.1976 
     37 N         -50.5510  -25.1217   16.1373 N.am      10 UNK        -0.4242 
     38 C         -49.8686  -26.1594   16.6496 C.2       10 UNK         0.5072 
     39 O         -50.3121  -26.9254   17.5060 O.2       10 UNK        -0.5224 
     40 CA        -48.4477  -26.4057   16.1029 C.3       9 UNK         0.0343 
     41 CB        -48.4774  -27.5377   15.0662 C.3       9 UNK        -0.2003 
     42 N         -47.8411  -25.2228   15.4894 N.am      9 UNK        -0.4272 
     43 C         -47.4638  -24.1220   16.1544 C.2       9 UNK         0.4988 
     44 O         -47.4772  -24.0191   17.3813 O.2       9 UNK        -0.5108 
     45 CA        -47.0449  -22.9169   15.2993 C.3       8 UNK         0.0248 
     46 CB        -45.5291  -22.9200   15.0402 C.3       8 UNK        -0.2001 
     47 N         -47.7786  -22.8671   14.0291 N.am      8 UNK        -0.4140 
     48 C         -49.0560  -22.4761   13.9228 C.2       8 UNK         0.5028 
     49 O         -49.7483  -22.1353   14.8820 O.2       8 UNK        -0.5428 
     50 CA        -49.6678  -22.4562   12.5161 C.3       7 UNK         0.0264 
     51 CB        -49.0695  -21.3155   11.6758 C.3       7 UNK        -0.1988 
     52 N         -49.5342  -23.7154   11.7846 N.am      7 UNK        -0.4454 
     53 C         -50.1916  -24.8500   12.0673 C.2       7 UNK         0.5027 
     54 O         -50.8349  -25.0318   13.1017 O.2       7 UNK        -0.5083 
     55 CA        -50.1276  -25.9623   11.0028 C.3       6 UNK         0.0844 
     56 C56       -50.7777  -25.5322    9.6650 C.3       14 UNK        -0.0967 
     57 S57       -52.5868  -25.3238    9.7623 S.3       14 UNK        -0.2604 
     58 C58       -53.1562  -26.3532    8.3734 C.3       14 UNK         0.0134 
     59 N         -48.7342  -26.3367   10.8041 N.am      6 UNK        -0.4116 
     60 C         -48.1472  -27.4441   11.2719 C.2       5 UNK         0.5034 
     61 O         -48.7483  -28.3603   11.8324 O.2       5 UNK        -0.5045 
     62 CA        -46.6166  -27.5486   11.1098 C.3       5 UNK         0.0224 
     63 CB        -46.2636  -28.5439    9.9936 C.3       5 UNK        -0.1978 
     64 N         -45.9460  -26.2709   10.8368 N.am      5 UNK        -0.4737 
     65 C         -45.9300  -25.2128   11.6596 C.2       4 UNK         0.5027 
     66 O         -46.4606  -25.2015   12.7697 O.2       4 UNK        -0.5211 
     67 CA        -45.2919  -23.9208   11.1154 C.3       4 UNK         0.0297 
     68 CB        -43.7921  -23.8840   11.4450 C.3       4 UNK        -0.1993 
     69 N         -45.4868  -23.7192    9.6718 N.am      4 UNK        -0.4486 
     70 C         -46.6767  -23.6632    9.0556 C.2       3 UNK         0.4961 
     71 O         -47.7488  -23.7859    9.6534 O.2       3 UNK        -0.5105 
     72 CA        -46.6922  -23.4793    7.5298 C.3       3 UNK         0.0299 
     73 CB        -45.3824  -23.8948    6.8288 C.3       3 UNK        -0.1972 
     74 N         -47.7952  -24.2801    7.0159 N.am      3 UNK        -0.4305 
     75 C         -48.6337  -23.9825    6.0234 C.2       2 UNK         0.5006 
     76 O         -48.5352  -22.9757    5.3194 O.2       2 UNK        -0.5106 
     77 CA        -49.7769  -24.9973    5.7905 C.3       2 UNK         0.0296 
     78 CB        -50.7441  -24.5579    4.6756 C.3       2 UNK        -0.2002 
     79 N         -49.2979  -26.3545    5.4965 N.am      2 UNK        -0.4032 
     80 C         -48.6963  -27.1836    6.3623 C.2       1 UNK         0.5000 
     81 O         -48.4895  -26.8995    7.5456 O.2       1 UNK        -0.5238 
     82 H82       -44.6585  -29.5340    7.3150 H         1 UNK         0.0889 
     83 H83       -44.0900  -27.8647    7.2339 H         1 UNK         0.0889 
     84 H84       -43.7527  -28.9794    5.9062 H         1 UNK         0.0889 
     85 H85       -46.8817  -29.6174    7.0019 H         1 UNK         0.3028 
     86 H86       -48.1868  -28.4740    4.7303 H         1 UNK         0.0864 
     87 H87       -50.2786  -29.3694    5.8253 H         1 UNK         0.0720 
     88 H88       -49.0430  -30.5541    5.5399 H         1 UNK         0.0720 
     89 H89       -51.2609  -31.3584    7.0357 H         1 UNK         0.0814 
     90 H90       -50.8817  -31.8119    8.6751 H         1 UNK         0.0814 
     91 H91       -51.2905  -28.2085    7.6555 H         1 UNK         0.1469 
     92 H92       -54.9609  -27.7799    9.8188 H         1 UNK         0.1381 
     93 H93       -53.1313  -31.6374    9.4645 H         1 UNK         0.1206 
     94 H94       -55.4949  -29.7630   11.4062 H         1 UNK         0.0813 
     95 H95       -55.0155  -31.3682   10.9135 H         1 UNK         0.0813 
     96 H96       -57.3845  -31.7679   11.5460 H         1 UNK         0.0638 
     97 H97       -58.3881  -32.1945   10.1920 H         1 UNK         0.0638 
     98 H98       -59.6208  -30.0499   10.3562 H         1 UNK         0.0568 
     99 H99       -60.5101  -29.5886   13.3276 H         1 UNK         0.3450 
    100 H100      -61.4613  -31.0255   13.6090 H         1 UNK         0.3450 
    101 H101      -58.8050  -28.3035   11.3957 H         1 UNK         0.2987 
    102 H102      -57.2791  -27.0691   12.4951 H         1 UNK         0.0766 
    103 H103      -57.8126  -26.1318   14.7696 H         1 UNK         0.0798 
    104 H104      -58.2088  -27.7463   15.3551 H         1 UNK         0.0798 
    105 H105      -59.1990  -26.9875   14.1139 H         1 UNK         0.0798 
    106 H106      -55.7100  -28.8294   14.1705 H         1 UNK         0.3198 
    107 H107      -53.6479  -28.2380   14.9590 H         1 UNK         0.0843 
    108 H108      -51.7862  -28.3131   13.2256 H         1 UNK         0.0831 
    109 H109      -52.7922  -27.3315   12.1573 H         1 UNK         0.0831 
    110 H110      -53.3111  -28.9409   12.6224 H         1 UNK         0.0831 
    111 H111      -52.0450  -25.9524   14.1671 H         1 UNK         0.3133 
    112 H112      -52.1535  -23.8918   15.7497 H         1 UNK         0.0566 
    113 H113      -51.4247  -23.4661   18.1016 H         1 UNK         0.0814 
    114 H114      -53.1295  -23.8815   18.0211 H         1 UNK         0.0814 
    115 H115      -51.9664  -25.0768   18.5725 H         1 UNK         0.0814 
    116 H116      -50.0963  -24.5804   15.4138 H         1 UNK         0.3091 
    117 H117      -47.8167  -26.7157   16.9384 H         1 UNK         0.0702 
    118 H118      -48.8395  -28.4659   15.5103 H         1 UNK         0.0785 
    119 H119      -47.4862  -27.7365   14.6581 H         1 UNK         0.0785 
    120 H120      -49.1422  -27.2950   14.2365 H         1 UNK         0.0785 
    121 H121      -47.7076  -25.2392   14.4840 H         1 UNK         0.2998 
    122 H122      -47.2826  -22.0125   15.8639 H         1 UNK         0.0697 
    123 H123      -45.1960  -23.8393   14.5597 H         1 UNK         0.0825 
    124 H124      -44.9793  -22.8334   15.9782 H         1 UNK         0.0825 
    125 H125      -45.2291  -22.0818   14.4112 H         1 UNK         0.0825 
    126 H126      -47.3067  -23.2357   13.2144 H         1 UNK         0.3029 
    127 H127      -50.7360  -22.2588   12.6320 H         1 UNK         0.0897 
    128 H128      -49.5829  -21.2194   10.7188 H         1 UNK         0.0792 
    129 H129      -49.1640  -20.3582   12.1906 H         1 UNK         0.0792 
    130 H130      -48.0102  -21.4734   11.4693 H         1 UNK         0.0792 
    131 H131      -48.9714  -23.6795   10.9355 H         1 UNK         0.3086 
    132 H132      -50.6808  -26.8222   11.3815 H         1 UNK         0.0583 
    133 H133      -50.3375  -24.6111    9.2796 H         1 UNK         0.1020 
    134 H134      -50.5620  -26.2927    8.9167 H         1 UNK         0.1020 
    135 H135      -54.1788  -26.0650    8.1251 H         1 UNK         0.0694 
    136 H136      -52.5602  -26.1388    7.4849 H         1 UNK         0.0694 
    137 H137      -48.1496  -25.6380   10.3618 H         1 UNK         0.2989 
    138 H138      -46.2247  -27.9328   12.0541 H         1 UNK         0.1055 
    139 H139      -46.7256  -29.5157   10.1744 H         1 UNK         0.0806 
    140 H140      -45.1876  -28.7040    9.9249 H         1 UNK         0.0806 
    141 H141      -46.6188  -28.1926    9.0254 H         1 UNK         0.0806 
    142 H142      -45.4975  -26.1773    9.9374 H         1 UNK         0.3061 
    143 H143      -45.7702  -23.0824   11.6252 H         1 UNK         0.0734 
    144 H144      -43.3465  -22.9292   11.1653 H         1 UNK         0.0832 
    145 H145      -43.6236  -24.0149   12.5150 H         1 UNK         0.0832 
    146 H146      -43.2446  -24.6751   10.9311 H         1 UNK         0.0832 
    147 H147      -44.6529  -23.6135    9.1119 H         1 UNK         0.3156 
    148 H148      -46.8856  -22.4228    7.3349 H         1 UNK         0.0589 
    149 H149      -45.1128  -24.9284    7.0514 H         1 UNK         0.0808 
    150 H150      -45.4769  -23.8104    5.7459 H         1 UNK         0.0808 
    151 H151      -44.5488  -23.2556    7.1216 H         1 UNK         0.0808 
    152 H152      -47.9755  -25.1487    7.5179 H         1 UNK         0.3098 
    153 H153      -50.3507  -25.0380    6.7179 H         1 UNK         0.0720 
    154 H154      -50.2460  -24.5038    3.7067 H         1 UNK         0.0791 
    155 H155      -51.1595  -23.5711    4.8847 H         1 UNK         0.0791 
    156 H156      -51.5847  -25.2462    4.5846 H         1 UNK         0.0791 
    157 H157      -49.3965  -26.6541    4.5370 H         1 UNK         0.3028 
@<TRIPOS>BOND
     1    1    2 1    
     2    1   82 1    
     3    1   83 1    
     4    1   84 1    
     5    2    3 2    
     6    2    4 am   BACKBONE|DICT|INTERRES
     7    4    5 1    
     8    4   85 1    
     9    5    6 1    
    10    5   80 1    
    11    5   86 1    
    12    6    7 1    
    13    6   87 1    
    14    6   88 1    
    15    7    8 1    
    16    8    9 1    
    17    8   89 1    
    18    8   90 1    
    19    9   10 ar   
    20    9   14 ar   
    21   10   11 ar   
    22   10   91 1    
    23   11   12 ar   
    24   11   58 1    
    25   12   13 ar   
    26   12   92 1    
    27   13   14 ar   
    28   13   15 1    
    29   14   93 1    
    30   15   16 1    
    31   15   94 1    
    32   15   95 1    
    33   16   17 1    
    34   17   18 1    
    35   17   96 1    
    36   17   97 1    
    37   18   19 1    
    38   18   22 1    
    39   18   98 1    
    40   19   20 am   BACKBONE|DICT|INTERRES
    41   19   21 2    
    42   20   99 1    
    43   20  100 1    
    44   22   23 am   BACKBONE|DICT|INTERRES
    45   22  101 1    
    46   23   24 2    
    47   23   25 1    
    48   25   26 1    
    49   25   27 1    
    50   25  102 1    
    51   26  103 1    
    52   26  104 1    
    53   26  105 1    
    54   27   28 am   BACKBONE|DICT|INTERRES
    55   27  106 1    
    56   28   29 2    
    57   28   30 1    
    58   30   31 1    
    59   30   32 1    
    60   30  107 1    
    61   31  108 1    
    62   31  109 1    
    63   31  110 1    
    64   32   33 am   BACKBONE|DICT|INTERRES
    65   32  111 1    
    66   33   34 2    
    67   33   35 1    
    68   35   36 1    
    69   35   37 1    
    70   35  112 1    
    71   36  113 1    
    72   36  114 1    
    73   36  115 1    
    74   37   38 am   BACKBONE|DICT|INTERRES
    75   37  116 1    
    76   38   39 2    
    77   38   40 1    
    78   40   41 1    
    79   40   42 1    
    80   40  117 1    
    81   41  118 1    
    82   41  119 1    
    83   41  120 1    
    84   42   43 am   BACKBONE|DICT|INTERRES
    85   42  121 1    
    86   43   44 2    
    87   43   45 1    
    88   45   46 1    
    89   45   47 1    
    90   45  122 1    
    91   46  123 1    
    92   46  124 1    
    93   46  125 1    
    94   47   48 am   BACKBONE|DICT|INTERRES
    95   47  126 1    
    96   48   49 2    
    97   48   50 1    
    98   50   51 1    
    99   50   52 1    
   100   50  127 1    
   101   51  128 1    
   102   51  129 1    
   103   51  130 1    
   104   52   53 am   BACKBONE|DICT|INTERRES
   105   52  131 1    
   106   53   54 2    
   107   53   55 1    
   108   55   56 1    
   109   55   59 1    
   110   55  132 1    
   111   56   57 1    
   112   56  133 1    
   113   56  134 1    
   114   57   58 1    
   115   58  135 1    
   116   58  136 1    
   117   59   60 am   BACKBONE|DICT|INTERRES
   118   59  137 1    
   119   60   61 2    
   120   60   62 1    
   121   62   63 1    
   122   62   64 1    
   123   62  138 1    
   124   63  139 1    
   125   63  140 1    
   126   63  141 1    
   127   64   65 am   BACKBONE|DICT|INTERRES
   128   64  142 1    
   129   65   66 2    
   130   65   67 1    
   131   67   68 1    
   132   67   69 1    
   133   67  143 1    
   134   68  144 1    
   135   68  145 1    
   136   68  146 1    
   137   69   70 am   BACKBONE|DICT|INTERRES
   138   69  147 1    
   139   70   71 2    
   140   70   72 1    
   141   72   73 1    
   142   72   74 1    
   143   72  148 1    
   144   73  149 1    
   145   73  150 1    
   146   73  151 1    
   147   74   75 am   BACKBONE|DICT|INTERRES
   148   74  152 1    
   149   75   76 2    
   150   75   77 1    
   151   77   78 1    
   152   77   79 1    
   153   77  153 1    
   154   78  154 1    
   155   78  155 1    
   156   78  156 1    
   157   79   80 am   BACKBONE|DICT|INTERRES
   158   79  157 1    
   159   80   81 2    
@<TRIPOS>SUBSTRUCTURE
     1 UNK         1 GROUP             0       ****    0 ROOT    
