@<TRIPOS>MOLECULE
3R207
157   159    1
SMALL
USER_CHARGES


@<TRIPOS>ATOM
      1 CA        -46.8601  -32.5029    2.5311 C.3       0 UNK        -0.1975 
      2 C         -47.4425  -31.2499    3.1688 C.2       0 UNK         0.4852 
      3 O         -46.8031  -30.1972    3.1435 O.2       0 UNK        -0.5216 
      4 N         -48.6530  -31.3526    3.7332 N.am      1 UNK        -0.4461 
      5 CA        -49.3366  -30.2713    4.4489 C.3       1 UNK         0.0864 
      6 C6        -50.8425  -30.5938    4.6319 C.3       14 UNK        -0.0898 
      7 S7        -51.8577  -29.0940    4.8288 S.3       14 UNK        -0.2598 
      8 C8        -52.1229  -29.0899    6.6317 C.3       14 UNK         0.0286 
      9 C9        -52.7061  -27.7717    7.1218 C.ar      14 UNK        -0.0844 
     10 C10       -52.0598  -26.5645    6.8365 C.ar      14 UNK        -0.0881 
     11 C11       -52.5789  -25.3517    7.2949 C.ar      14 UNK        -0.0643 
     12 C12       -53.7515  -25.3500    8.0542 C.ar      14 UNK        -0.0930 
     13 C13       -54.3972  -26.5503    8.3635 C.ar      14 UNK        -0.0827 
     14 C14       -53.8756  -27.7576    7.8879 C.ar      14 UNK        -0.1249 
     15 C15       -55.6548  -26.5329    9.2181 C.3       14 UNK         0.0141 
     16 S16       -55.2528  -26.2608   10.9713 S.3       14 UNK        -0.2313 
     17 C17       -54.5893  -27.8894   11.4620 C.3       14 UNK        -0.0915 
     18 CA        -55.4725  -28.5778   12.5357 C.3       13 UNK         0.0968 
     19 C         -55.0163  -30.0415   12.8060 C.2       13 UNK         0.5732 
     20 N         -54.7638  -30.4578   14.0425 N.am      13 UNK        -0.7310 
     21 O         -54.9068  -30.8303   11.8703 O.2       13 UNK        -0.5035 
     22 N         -55.5527  -27.7633   13.7547 N.am      13 UNK        -0.4233 
     23 C         -56.6473  -27.5956   14.5051 C.2       13 UNK         0.4989 
     24 O         -57.7539  -28.0510   14.2096 O.2       13 UNK        -0.4996 
     25 CA        -56.4795  -26.7788   15.8055 C.3       12 UNK         0.0216 
     26 CB        -57.5368  -27.1375   16.8714 C.3       12 UNK        -0.1964 
     27 N         -55.1292  -26.8451   16.3811 N.am      12 UNK        -0.4276 
     28 C         -54.4622  -27.9452   16.7574 C.2       12 UNK         0.5020 
     29 O         -54.9012  -29.0941   16.6663 O.2       12 UNK        -0.5489 
     30 CA        -53.0335  -27.7193   17.2745 C.3       11 UNK         0.0294 
     31 CB        -52.8097  -28.4460   18.6114 C.3       11 UNK        -0.2019 
     32 N         -51.9891  -28.1278   16.3301 N.am      11 UNK        -0.4493 
     33 C         -51.9118  -27.8545   15.0193 C.2       11 UNK         0.4932 
     34 O         -52.7974  -27.3098   14.3600 O.2       11 UNK        -0.5029 
     35 CA        -50.5538  -28.1541   14.3649 C.3       10 UNK         0.0280 
     36 CB        -50.6148  -28.1170   12.8257 C.3       10 UNK        -0.1976 
     37 N         -49.6044  -27.1467   14.8333 N.am      10 UNK        -0.4242 
     38 C         -48.9690  -27.1765   16.0126 C.2       10 UNK         0.5072 
     39 O         -48.9428  -28.1631   16.7502 O.2       10 UNK        -0.5224 
     40 CA        -48.3372  -25.8595   16.4867 C.3       9 UNK         0.0343 
     41 CB        -46.9357  -25.6476   15.8941 C.3       9 UNK        -0.2003 
     42 N         -49.1916  -24.7123   16.1689 N.am      9 UNK        -0.4272 
     43 C         -50.2629  -24.3473   16.8870 C.2       9 UNK         0.4988 
     44 O         -50.6301  -24.9198   17.9134 O.2       9 UNK        -0.5108 
     45 CA        -51.0418  -23.1234   16.3839 C.3       8 UNK         0.0248 
     46 CB        -50.1209  -21.9146   16.1335 C.3       8 UNK        -0.2001 
     47 N         -51.7908  -23.4225   15.1663 N.am      8 UNK        -0.4140 
     48 C         -52.9664  -24.0573   15.1097 C.2       8 UNK         0.5028 
     49 O         -53.5625  -24.4859   16.0999 O.2       8 UNK        -0.5428 
     50 CA        -53.6235  -24.2313   13.7263 C.3       7 UNK         0.0264 
     51 CB        -54.5854  -23.0660   13.4276 C.3       7 UNK        -0.1988 
     52 N         -52.7126  -24.4691   12.5949 N.am      7 UNK        -0.4454 
     53 C         -51.7904  -23.6551   12.0620 C.2       7 UNK         0.5027 
     54 O         -51.5074  -22.5418   12.5101 O.2       7 UNK        -0.5083 
     55 CA        -51.0596  -24.1742   10.8063 C.3       6 UNK         0.0844 
     56 C56       -51.3282  -23.2203    9.6130 C.3       14 UNK        -0.0967 
     57 S57       -50.4763  -23.7288    8.0761 S.3       14 UNK        -0.2604 
     58 C58       -51.8737  -24.0484    6.9565 C.3       14 UNK         0.0134 
     59 N         -49.6168  -24.3664   10.9831 N.am      6 UNK        -0.4116 
     60 C         -48.8912  -24.7135   12.0547 C.2       5 UNK         0.5034 
     61 O         -49.3419  -24.9000   13.1858 O.2       5 UNK        -0.5045 
     62 CA        -47.3830  -24.9244   11.8149 C.3       5 UNK         0.0224 
     63 CB        -46.9990  -26.3978   12.0444 C.3       5 UNK        -0.1978 
     64 N         -46.9393  -24.5300   10.4713 N.am      5 UNK        -0.4737 
     65 C         -46.7211  -23.2719   10.0627 C.2       4 UNK         0.5027 
     66 O         -46.8592  -22.2930   10.7963 O.2       4 UNK        -0.5211 
     67 CA        -46.3254  -23.0703    8.5832 C.3       4 UNK         0.0297 
     68 CB        -45.3432  -21.8949    8.3930 C.3       4 UNK        -0.1993 
     69 N         -45.8322  -24.2862    7.9170 N.am      4 UNK        -0.4486 
     70 C         -44.7228  -24.9846    8.1998 C.2       3 UNK         0.4961 
     71 O         -43.9275  -24.6841    9.0909 O.2       3 UNK        -0.5105 
     72 CA        -44.5048  -26.2644    7.3699 C.3       3 UNK         0.0299 
     73 CB        -43.1657  -26.9566    7.6874 C.3       3 UNK        -0.1972 
     74 N         -45.5953  -27.2223    7.5771 N.am      3 UNK        -0.4305 
     75 C         -46.7840  -27.1820    6.9629 C.2       2 UNK         0.5006 
     76 O         -47.1078  -26.3116    6.1508 O.2       2 UNK        -0.5106 
     77 CA        -47.7989  -28.2570    7.3585 C.3       2 UNK         0.0296 
     78 CB        -48.8277  -27.6826    8.3488 C.3       2 UNK        -0.2002 
     79 N         -48.4811  -28.7171    6.1511 N.am      2 UNK        -0.4032 
     80 C         -48.6424  -29.9990    5.8013 C.2       1 UNK         0.5000 
     81 O         -48.2915  -30.9530    6.5021 O.2       1 UNK        -0.5238 
     82 H82       -46.6598  -32.3277    1.4744 H         1 UNK         0.0889 
     83 H83       -47.5366  -33.3537    2.6113 H         1 UNK         0.0889 
     84 H84       -45.9216  -32.7689    3.0168 H         1 UNK         0.0889 
     85 H85       -49.1144  -32.2509    3.7526 H         1 UNK         0.3028 
     86 H86       -49.2474  -29.3774    3.8268 H         1 UNK         0.0864 
     87 H87       -51.0136  -31.2876    5.4580 H         1 UNK         0.0720 
     88 H88       -51.2232  -31.0988    3.7424 H         1 UNK         0.0720 
     89 H89       -51.1796  -29.2655    7.1470 H         1 UNK         0.0814 
     90 H90       -52.7761  -29.9246    6.8913 H         1 UNK         0.0814 
     91 H91       -51.1512  -26.5674    6.2504 H         1 UNK         0.1469 
     92 H92       -54.1606  -24.4166    8.4152 H         1 UNK         0.1381 
     93 H93       -54.3755  -28.6871    8.1235 H         1 UNK         0.1206 
     94 H94       -56.2204  -27.4594    9.1076 H         1 UNK         0.0813 
     95 H95       -56.3125  -25.7315    8.8785 H         1 UNK         0.0813 
     96 H96       -53.5724  -27.7499   11.8300 H         1 UNK         0.0638 
     97 H97       -54.5031  -28.5210   10.5775 H         1 UNK         0.0638 
     98 H98       -56.4734  -28.6693   12.1105 H         1 UNK         0.0568 
     99 H99       -54.4810  -31.4136   14.1847 H         1 UNK         0.3450 
    100 H100      -54.8702  -29.8437   14.8440 H         1 UNK         0.3450 
    101 H101      -54.6582  -27.4194   14.0941 H         1 UNK         0.2987 
    102 H102      -56.6340  -25.7363   15.5235 H         1 UNK         0.0766 
    103 H103      -58.5468  -26.9587   16.5003 H         1 UNK         0.0798 
    104 H104      -57.4138  -26.5343   17.7708 H         1 UNK         0.0798 
    105 H105      -57.4773  -28.1873   17.1607 H         1 UNK         0.0798 
    106 H106      -54.6237  -25.9582   16.4141 H         1 UNK         0.3198 
    107 H107      -52.8941  -26.6523   17.4564 H         1 UNK         0.0843 
    108 H108      -52.8572  -29.5295   18.4943 H         1 UNK         0.0831 
    109 H109      -53.5697  -28.1633   19.3411 H         1 UNK         0.0831 
    110 H110      -51.8400  -28.1953   19.0422 H         1 UNK         0.0831 
    111 H111      -51.1625  -28.5363   16.7483 H         1 UNK         0.3133 
    112 H112      -50.2274  -29.1499   14.6718 H         1 UNK         0.0566 
    113 H113      -49.6428  -28.3398   12.3858 H         1 UNK         0.0814 
    114 H114      -50.9332  -27.1429   12.4534 H         1 UNK         0.0814 
    115 H115      -51.3205  -28.8578   12.4479 H         1 UNK         0.0814 
    116 H116      -49.5813  -26.2783   14.3008 H         1 UNK         0.3091 
    117 H117      -48.2278  -25.9259   17.5716 H         1 UNK         0.0702 
    118 H118      -46.3174  -26.5386   16.0127 H         1 UNK         0.0785 
    119 H119      -46.4207  -24.8282   16.3958 H         1 UNK         0.0785 
    120 H120      -46.9734  -25.4087   14.8333 H         1 UNK         0.0785 
    121 H121      -49.0102  -24.2377   15.2939 H         1 UNK         0.2998 
    122 H122      -51.7502  -22.8416   17.1661 H         1 UNK         0.0697 
    123 H123      -49.4506  -22.0728   15.2877 H         1 UNK         0.0825 
    124 H124      -49.5041  -21.7037   17.0083 H         1 UNK         0.0825 
    125 H125      -50.7033  -21.0165   15.9267 H         1 UNK         0.0825 
    126 H126      -51.4090  -23.0852   14.2861 H         1 UNK         0.3029 
    127 H127      -54.2323  -25.1331   13.7955 H         1 UNK         0.0897 
    128 H128      -54.0596  -22.1149   13.3392 H         1 UNK         0.0792 
    129 H129      -55.3222  -22.9560   14.2244 H         1 UNK         0.0792 
    130 H130      -55.1343  -23.2349   12.5010 H         1 UNK         0.0792 
    131 H131      -52.8288  -25.3786   12.1690 H         1 UNK         0.3086 
    132 H132      -51.4683  -25.1542   10.5513 H         1 UNK         0.0583 
    133 H133      -52.3999  -23.1307    9.4300 H         1 UNK         0.1020 
    134 H134      -50.9862  -22.2107    9.8512 H         1 UNK         0.1020 
    135 H135      -52.5704  -23.2091    6.9837 H         1 UNK         0.0694 
    136 H136      -51.4974  -24.0952    5.9335 H         1 UNK         0.0694 
    137 H137      -49.0943  -24.2369   10.1301 H         1 UNK         0.2989 
    138 H138      -46.8562  -24.3111   12.5494 H         1 UNK         0.1055 
    139 H139      -47.4649  -27.0601   11.3170 H         1 UNK         0.0806 
    140 H140      -47.3115  -26.7485   13.0275 H         1 UNK         0.0806 
    141 H141      -45.9196  -26.5385   11.9827 H         1 UNK         0.0806 
    142 H142      -46.7772  -25.2720    9.8070 H         1 UNK         0.3061 
    143 H143      -47.2500  -22.8065    8.0673 H         1 UNK         0.0734 
    144 H144      -44.4157  -22.0473    8.9455 H         1 UNK         0.0832 
    145 H145      -45.0898  -21.7545    7.3423 H         1 UNK         0.0832 
    146 H146      -45.7787  -20.9593    8.7462 H         1 UNK         0.0832 
    147 H147      -46.4256  -24.6589    7.1805 H         1 UNK         0.3156 
    148 H148      -44.4817  -25.9702    6.3182 H         1 UNK         0.0589 
    149 H149      -43.0084  -27.8272    7.0505 H         1 UNK         0.0808 
    150 H150      -42.3270  -26.2796    7.5191 H         1 UNK         0.0808 
    151 H151      -43.1148  -27.2866    8.7259 H         1 UNK         0.0808 
    152 H152      -45.4236  -27.9509    8.2558 H         1 UNK         0.3098 
    153 H153      -47.2666  -29.0814    7.8379 H         1 UNK         0.0720 
    154 H154      -49.3887  -26.8538    7.9166 H         1 UNK         0.0791 
    155 H155      -48.3392  -27.3043    9.2445 H         1 UNK         0.0791 
    156 H156      -49.5402  -28.4421    8.6693 H         1 UNK         0.0791 
    157 H157      -48.7364  -27.9863    5.4998 H         1 UNK         0.3028 
@<TRIPOS>BOND
     1    1    2 1    
     2    1   82 1    
     3    1   83 1    
     4    1   84 1    
     5    2    3 2    
     6    2    4 am   BACKBONE|DICT|INTERRES
     7    4    5 1    
     8    4   85 1    
     9    5    6 1    
    10    5   80 1    
    11    5   86 1    
    12    6    7 1    
    13    6   87 1    
    14    6   88 1    
    15    7    8 1    
    16    8    9 1    
    17    8   89 1    
    18    8   90 1    
    19    9   10 ar   
    20    9   14 ar   
    21   10   11 ar   
    22   10   91 1    
    23   11   12 ar   
    24   11   58 1    
    25   12   13 ar   
    26   12   92 1    
    27   13   14 ar   
    28   13   15 1    
    29   14   93 1    
    30   15   16 1    
    31   15   94 1    
    32   15   95 1    
    33   16   17 1    
    34   17   18 1    
    35   17   96 1    
    36   17   97 1    
    37   18   19 1    
    38   18   22 1    
    39   18   98 1    
    40   19   20 am   BACKBONE|DICT|INTERRES
    41   19   21 2    
    42   20   99 1    
    43   20  100 1    
    44   22   23 am   BACKBONE|DICT|INTERRES
    45   22  101 1    
    46   23   24 2    
    47   23   25 1    
    48   25   26 1    
    49   25   27 1    
    50   25  102 1    
    51   26  103 1    
    52   26  104 1    
    53   26  105 1    
    54   27   28 am   BACKBONE|DICT|INTERRES
    55   27  106 1    
    56   28   29 2    
    57   28   30 1    
    58   30   31 1    
    59   30   32 1    
    60   30  107 1    
    61   31  108 1    
    62   31  109 1    
    63   31  110 1    
    64   32   33 am   BACKBONE|DICT|INTERRES
    65   32  111 1    
    66   33   34 2    
    67   33   35 1    
    68   35   36 1    
    69   35   37 1    
    70   35  112 1    
    71   36  113 1    
    72   36  114 1    
    73   36  115 1    
    74   37   38 am   BACKBONE|DICT|INTERRES
    75   37  116 1    
    76   38   39 2    
    77   38   40 1    
    78   40   41 1    
    79   40   42 1    
    80   40  117 1    
    81   41  118 1    
    82   41  119 1    
    83   41  120 1    
    84   42   43 am   BACKBONE|DICT|INTERRES
    85   42  121 1    
    86   43   44 2    
    87   43   45 1    
    88   45   46 1    
    89   45   47 1    
    90   45  122 1    
    91   46  123 1    
    92   46  124 1    
    93   46  125 1    
    94   47   48 am   BACKBONE|DICT|INTERRES
    95   47  126 1    
    96   48   49 2    
    97   48   50 1    
    98   50   51 1    
    99   50   52 1    
   100   50  127 1    
   101   51  128 1    
   102   51  129 1    
   103   51  130 1    
   104   52   53 am   BACKBONE|DICT|INTERRES
   105   52  131 1    
   106   53   54 2    
   107   53   55 1    
   108   55   56 1    
   109   55   59 1    
   110   55  132 1    
   111   56   57 1    
   112   56  133 1    
   113   56  134 1    
   114   57   58 1    
   115   58  135 1    
   116   58  136 1    
   117   59   60 am   BACKBONE|DICT|INTERRES
   118   59  137 1    
   119   60   61 2    
   120   60   62 1    
   121   62   63 1    
   122   62   64 1    
   123   62  138 1    
   124   63  139 1    
   125   63  140 1    
   126   63  141 1    
   127   64   65 am   BACKBONE|DICT|INTERRES
   128   64  142 1    
   129   65   66 2    
   130   65   67 1    
   131   67   68 1    
   132   67   69 1    
   133   67  143 1    
   134   68  144 1    
   135   68  145 1    
   136   68  146 1    
   137   69   70 am   BACKBONE|DICT|INTERRES
   138   69  147 1    
   139   70   71 2    
   140   70   72 1    
   141   72   73 1    
   142   72   74 1    
   143   72  148 1    
   144   73  149 1    
   145   73  150 1    
   146   73  151 1    
   147   74   75 am   BACKBONE|DICT|INTERRES
   148   74  152 1    
   149   75   76 2    
   150   75   77 1    
   151   77   78 1    
   152   77   79 1    
   153   77  153 1    
   154   78  154 1    
   155   78  155 1    
   156   78  156 1    
   157   79   80 am   BACKBONE|DICT|INTERRES
   158   79  157 1    
   159   80   81 2    
@<TRIPOS>SUBSTRUCTURE
     1 UNK         1 GROUP             0       ****    0 ROOT    
