@<TRIPOS>MOLECULE
3R207
157   159    1
SMALL
USER_CHARGES


@<TRIPOS>ATOM
      1 CA        -54.5021  -25.3857    6.8916 C.3       0 UNK        -0.1975 
      2 C         -54.2448  -26.0703    5.5497 C.2       0 UNK         0.4852 
      3 O         -55.0566  -25.9249    4.6372 O.2       0 UNK        -0.5216 
      4 N         -53.1535  -26.8303    5.3763 N.am      1 UNK        -0.4461 
      5 CA        -52.0600  -27.0425    6.3309 C.3       1 UNK         0.0864 
      6 C6        -51.1605  -28.2432    5.9338 C.3       14 UNK        -0.0898 
      7 S7        -52.0920  -29.8106    5.8046 S.3       14 UNK        -0.2598 
      8 C8        -51.8133  -30.5677    7.4416 C.3       14 UNK         0.0286 
      9 C9        -52.2523  -29.6460    8.5690 C.ar      14 UNK        -0.0844 
     10 C10       -51.3025  -29.0687    9.4170 C.ar      14 UNK        -0.0881 
     11 C11       -51.6906  -28.1547   10.4025 C.ar      14 UNK        -0.0643 
     12 C12       -53.0454  -27.8373   10.5413 C.ar      14 UNK        -0.0930 
     13 C13       -54.0082  -28.4331    9.7213 C.ar      14 UNK        -0.0827 
     14 C14       -53.6058  -29.3398    8.7383 C.ar      14 UNK        -0.1249 
     15 C15       -55.4778  -28.0747    9.8784 C.3       14 UNK         0.0141 
     16 S16       -56.1419  -28.5624   11.5013 S.3       14 UNK        -0.2313 
     17 C17       -56.2487  -30.3819   11.3774 C.3       14 UNK        -0.0915 
     18 CA        -55.2839  -31.1554   12.3220 C.3       13 UNK         0.0968 
     19 C         -53.8929  -31.4311   11.6775 C.2       13 UNK         0.5732 
     20 N         -52.7886  -30.9217   12.2108 N.am      13 UNK        -0.7310 
     21 O         -53.8155  -32.1630   10.6933 O.2       13 UNK        -0.5035 
     22 N         -55.2399  -30.5722   13.6716 N.am      13 UNK        -0.4233 
     23 C         -54.8181  -31.2141   14.7663 C.2       13 UNK         0.4989 
     24 O         -54.5587  -32.4191   14.7878 O.2       13 UNK        -0.4996 
     25 CA        -54.6651  -30.3768   16.0540 C.3       12 UNK         0.0216 
     26 CB        -53.6448  -30.9985   17.0318 C.3       12 UNK        -0.1964 
     27 N         -54.3479  -28.9541   15.8473 N.am      12 UNK        -0.4276 
     28 C         -53.3169  -28.4315   15.1662 C.2       12 UNK         0.5020 
     29 O         -52.5585  -29.0827   14.4454 O.2       12 UNK        -0.5489 
     30 CA        -53.0849  -26.9198   15.3431 C.3       11 UNK         0.0294 
     31 CB        -51.5884  -26.6113   15.5223 C.3       11 UNK        -0.2019 
     32 N         -53.6236  -26.1300   14.2321 N.am      11 UNK        -0.4493 
     33 C         -54.9319  -25.9849   13.9697 C.2       11 UNK         0.4932 
     34 O         -55.8134  -26.5050   14.6557 O.2       11 UNK        -0.5029 
     35 CA        -55.3333  -25.1030   12.7706 C.3       10 UNK         0.0280 
     36 CB        -56.6984  -24.4199   12.9756 C.3       10 UNK        -0.1976 
     37 N         -54.3256  -24.0819   12.4834 N.am      10 UNK        -0.4242 
     38 C         -53.7205  -23.8977   11.3029 C.2       10 UNK         0.5072 
     39 O         -53.9717  -24.5520   10.2907 O.2       10 UNK        -0.5224 
     40 CA        -52.6387  -22.8003   11.2238 C.3       9 UNK         0.0343 
     41 CB        -53.1978  -21.5508   10.5237 C.3       9 UNK        -0.2003 
     42 N         -52.0206  -22.4006   12.4974 N.am      9 UNK        -0.4272 
     43 C         -51.3907  -23.2274   13.3407 C.2       9 UNK         0.4988 
     44 O         -51.3814  -24.4539   13.2133 O.2       9 UNK        -0.5108 
     45 CA        -50.6790  -22.5970   14.5419 C.3       8 UNK         0.0248 
     46 CB        -51.6742  -22.3012   15.6792 C.3       8 UNK        -0.2001 
     47 N         -49.6717  -23.5544   14.9831 N.am      8 UNK        -0.4140 
     48 C         -48.5988  -23.3214   15.7460 C.2       8 UNK         0.5028 
     49 O         -48.3249  -22.2240   16.2331 O.2       8 UNK        -0.5428 
     50 CA        -47.6689  -24.5232   16.0054 C.3       7 UNK         0.0264 
     51 CB        -48.0555  -25.2252   17.3176 C.3       7 UNK        -0.1988 
     52 N         -47.6912  -25.4999   14.9093 N.am      7 UNK        -0.4454 
     53 C         -47.0659  -25.3267   13.7362 C.2       7 UNK         0.5027 
     54 O         -46.3219  -24.3747   13.4900 O.2       7 UNK        -0.5083 
     55 CA        -47.3892  -26.3511   12.6313 C.3       6 UNK         0.0844 
     56 C56       -48.4910  -25.7793   11.7076 C.3       14 UNK        -0.0967 
     57 S57       -49.1431  -26.9839   10.5052 S.3       14 UNK        -0.2604 
     58 C58       -50.6721  -27.5235   11.3453 C.3       14 UNK         0.0134 
     59 N         -46.1781  -26.7199   11.8946 N.am      6 UNK        -0.4116 
     60 C         -45.2217  -27.5281   12.3761 C.2       5 UNK         0.5034 
     61 O         -45.2758  -28.0490   13.4914 O.2       5 UNK        -0.5045 
     62 CA        -44.0126  -27.8515   11.4758 C.3       5 UNK         0.0224 
     63 CB        -44.1184  -29.2891   10.9391 C.3       5 UNK        -0.1978 
     64 N         -43.8591  -26.9397   10.3415 N.am      5 UNK        -0.4737 
     65 C         -43.3216  -25.7144   10.4067 C.2       4 UNK         0.5027 
     66 O         -42.8178  -25.2436   11.4263 O.2       4 UNK        -0.5211 
     67 CA        -43.3629  -24.8641    9.1190 C.3       4 UNK         0.0297 
     68 CB        -42.0035  -24.9120    8.4027 C.3       4 UNK        -0.1993 
     69 N         -44.4225  -25.2448    8.1721 N.am      4 UNK        -0.4486 
     70 C         -45.7328  -25.2272    8.4503 C.2       3 UNK         0.4961 
     71 O         -46.1833  -24.8910    9.5461 O.2       3 UNK        -0.5105 
     72 CA        -46.6787  -25.7397    7.3508 C.3       3 UNK         0.0299 
     73 CB        -46.5244  -27.2606    7.1716 C.3       3 UNK        -0.1972 
     74 N         -48.0753  -25.4612    7.6817 N.am      3 UNK        -0.4305 
     75 C         -48.6760  -24.2682    7.5889 C.2       2 UNK         0.5006 
     76 O         -48.1421  -23.2646    7.1116 O.2       2 UNK        -0.5106 
     77 CA        -50.1240  -24.2082    8.1197 C.3       2 UNK         0.0296 
     78 CB        -50.8527  -22.8982    7.7490 C.3       2 UNK        -0.2002 
     79 N         -50.9219  -25.3797    7.7279 N.am      2 UNK        -0.4032 
     80 C         -51.2168  -25.7629    6.4752 C.2       1 UNK         0.5000 
     81 O         -50.8543  -25.1654    5.4588 O.2       1 UNK        -0.5238 
     82 H82       -55.5272  -25.0189    6.9399 H         1 UNK         0.0889 
     83 H83       -53.8404  -24.5305    7.0254 H         1 UNK         0.0889 
     84 H84       -54.3662  -26.0683    7.7290 H         1 UNK         0.0889 
     85 H85       -53.0160  -27.2693    4.4778 H         1 UNK         0.3028 
     86 H86       -52.5027  -27.2631    7.3005 H         1 UNK         0.0864 
     87 H87       -50.3474  -28.3735    6.6507 H         1 UNK         0.0720 
     88 H88       -50.6827  -28.0588    4.9696 H         1 UNK         0.0720 
     89 H89       -50.7592  -30.8322    7.5396 H         1 UNK         0.0814 
     90 H90       -52.3721  -31.5026    7.5040 H         1 UNK         0.0814 
     91 H91       -50.2572  -29.3187    9.3001 H         1 UNK         0.1469 
     92 H92       -53.3590  -27.1350   11.3006 H         1 UNK         0.1381 
     93 H93       -54.3397  -29.7912    8.0849 H         1 UNK         0.1206 
     94 H94       -56.0821  -28.5255    9.0897 H         1 UNK         0.0813 
     95 H95       -55.5877  -26.9952    9.7665 H         1 UNK         0.0813 
     96 H96       -56.1259  -30.6936   10.3385 H         1 UNK         0.0638 
     97 H97       -57.2750  -30.6473   11.6346 H         1 UNK         0.0638 
     98 H98       -55.7198  -32.1496   12.4379 H         1 UNK         0.0568 
     99 H99       -51.9060  -31.1111   11.7679 H         1 UNK         0.3450 
    100 H100      -52.8253  -30.3027   13.0165 H         1 UNK         0.3450 
    101 H101      -55.4142  -29.5790   13.7230 H         1 UNK         0.2987 
    102 H102      -55.6423  -30.4011   16.5385 H         1 UNK         0.0766 
    103 H103      -53.9317  -32.0128   17.3126 H         1 UNK         0.0798 
    104 H104      -53.5733  -30.4203   17.9531 H         1 UNK         0.0798 
    105 H105      -52.6485  -31.0512   16.5908 H         1 UNK         0.0798 
    106 H106      -54.9615  -28.3039   16.3215 H         1 UNK         0.3198 
    107 H107      -53.5900  -26.6013   16.2578 H         1 UNK         0.0843 
    108 H108      -51.0246  -26.8026   14.6085 H         1 UNK         0.0831 
    109 H109      -51.1535  -27.2293   16.3090 H         1 UNK         0.0831 
    110 H110      -51.4356  -25.5726   15.8100 H         1 UNK         0.0831 
    111 H111      -52.9424  -25.6656   13.6396 H         1 UNK         0.3133 
    112 H112      -55.4267  -25.7775   11.9201 H         1 UNK         0.0566 
    113 H113      -56.6958  -23.7693   13.8508 H         1 UNK         0.0814 
    114 H114      -57.4901  -25.1571   13.1161 H         1 UNK         0.0814 
    115 H115      -56.9727  -23.8174   12.1095 H         1 UNK         0.0814 
    116 H116      -54.0394  -23.5022   13.2594 H         1 UNK         0.3091 
    117 H117      -51.8386  -23.2066   10.6032 H         1 UNK         0.0702 
    118 H118      -53.9604  -21.0583   11.1283 H         1 UNK         0.0785 
    119 H119      -53.6574  -21.8076    9.5680 H         1 UNK         0.0785 
    120 H120      -52.4107  -20.8257   10.3158 H         1 UNK         0.0785 
    121 H121      -52.0054  -21.4097   12.6936 H         1 UNK         0.2998 
    122 H122      -50.1849  -21.6771   14.2227 H         1 UNK         0.0697 
    123 H123      -52.1946  -23.2023   16.0061 H         1 UNK         0.0825 
    124 H124      -52.4313  -21.5829   15.3626 H         1 UNK         0.0825 
    125 H125      -51.1711  -21.8743   16.5470 H         1 UNK         0.0825 
    126 H126      -49.8096  -24.4765   14.5903 H         1 UNK         0.3029 
    127 H127      -46.6521  -24.1378   16.1110 H         1 UNK         0.0897 
    128 H128      -49.0652  -25.6357   17.2776 H         1 UNK         0.0792 
    129 H129      -48.0213  -24.5280   18.1561 H         1 UNK         0.0792 
    130 H130      -47.3694  -26.0404   17.5488 H         1 UNK         0.0792 
    131 H131      -48.2564  -26.3258   15.0467 H         1 UNK         0.3086 
    132 H132      -47.7829  -27.2540   13.1037 H         1 UNK         0.0583 
    133 H133      -49.3201  -25.4049   12.3015 H         1 UNK         0.1020 
    134 H134      -48.1243  -24.9094   11.1616 H         1 UNK         0.1020 
    135 H135      -50.4203  -28.2387   12.1295 H         1 UNK         0.0694 
    136 H136      -51.1292  -26.6679   11.8419 H         1 UNK         0.0694 
    137 H137      -46.0460  -26.2567   11.0018 H         1 UNK         0.2989 
    138 H138      -43.1194  -27.7851   12.1014 H         1 UNK         0.1055 
    139 H139      -44.9968  -29.4210   10.3059 H         1 UNK         0.0806 
    140 H140      -44.1963  -30.0072   11.7568 H         1 UNK         0.0806 
    141 H141      -43.2384  -29.5615   10.3559 H         1 UNK         0.0806 
    142 H142      -44.2369  -27.2443    9.4564 H         1 UNK         0.3061 
    143 H143      -43.5526  -23.8326    9.4236 H         1 UNK         0.0734 
    144 H144      -41.7678  -25.9168    8.0498 H         1 UNK         0.0832 
    145 H145      -41.9803  -24.2387    7.5456 H         1 UNK         0.0832 
    146 H146      -41.1986  -24.6060    9.0727 H         1 UNK         0.0832 
    147 H147      -44.1239  -25.5421    7.2536 H         1 UNK         0.3156 
    148 H148      -46.4290  -25.2396    6.4128 H         1 UNK         0.0589 
    149 H149      -47.2006  -27.6384    6.4042 H         1 UNK         0.0808 
    150 H150      -45.5129  -27.5257    6.8622 H         1 UNK         0.0808 
    151 H151      -46.7358  -27.8001    8.0964 H         1 UNK         0.0808 
    152 H152      -48.5711  -26.1982    8.1626 H         1 UNK         0.3098 
    153 H153      -50.0470  -24.2425    9.2074 H         1 UNK         0.0720 
    154 H154      -50.8796  -22.7403    6.6703 H         1 UNK         0.0791 
    155 H155      -50.3526  -22.0356    8.1909 H         1 UNK         0.0791 
    156 H156      -51.8807  -22.8992    8.1099 H         1 UNK         0.0791 
    157 H157      -51.2557  -25.9485    8.4951 H         1 UNK         0.3028 
@<TRIPOS>BOND
     1    1    2 1    
     2    1   82 1    
     3    1   83 1    
     4    1   84 1    
     5    2    3 2    
     6    2    4 am   BACKBONE|DICT|INTERRES
     7    4    5 1    
     8    4   85 1    
     9    5    6 1    
    10    5   80 1    
    11    5   86 1    
    12    6    7 1    
    13    6   87 1    
    14    6   88 1    
    15    7    8 1    
    16    8    9 1    
    17    8   89 1    
    18    8   90 1    
    19    9   10 ar   
    20    9   14 ar   
    21   10   11 ar   
    22   10   91 1    
    23   11   12 ar   
    24   11   58 1    
    25   12   13 ar   
    26   12   92 1    
    27   13   14 ar   
    28   13   15 1    
    29   14   93 1    
    30   15   16 1    
    31   15   94 1    
    32   15   95 1    
    33   16   17 1    
    34   17   18 1    
    35   17   96 1    
    36   17   97 1    
    37   18   19 1    
    38   18   22 1    
    39   18   98 1    
    40   19   20 am   BACKBONE|DICT|INTERRES
    41   19   21 2    
    42   20   99 1    
    43   20  100 1    
    44   22   23 am   BACKBONE|DICT|INTERRES
    45   22  101 1    
    46   23   24 2    
    47   23   25 1    
    48   25   26 1    
    49   25   27 1    
    50   25  102 1    
    51   26  103 1    
    52   26  104 1    
    53   26  105 1    
    54   27   28 am   BACKBONE|DICT|INTERRES
    55   27  106 1    
    56   28   29 2    
    57   28   30 1    
    58   30   31 1    
    59   30   32 1    
    60   30  107 1    
    61   31  108 1    
    62   31  109 1    
    63   31  110 1    
    64   32   33 am   BACKBONE|DICT|INTERRES
    65   32  111 1    
    66   33   34 2    
    67   33   35 1    
    68   35   36 1    
    69   35   37 1    
    70   35  112 1    
    71   36  113 1    
    72   36  114 1    
    73   36  115 1    
    74   37   38 am   BACKBONE|DICT|INTERRES
    75   37  116 1    
    76   38   39 2    
    77   38   40 1    
    78   40   41 1    
    79   40   42 1    
    80   40  117 1    
    81   41  118 1    
    82   41  119 1    
    83   41  120 1    
    84   42   43 am   BACKBONE|DICT|INTERRES
    85   42  121 1    
    86   43   44 2    
    87   43   45 1    
    88   45   46 1    
    89   45   47 1    
    90   45  122 1    
    91   46  123 1    
    92   46  124 1    
    93   46  125 1    
    94   47   48 am   BACKBONE|DICT|INTERRES
    95   47  126 1    
    96   48   49 2    
    97   48   50 1    
    98   50   51 1    
    99   50   52 1    
   100   50  127 1    
   101   51  128 1    
   102   51  129 1    
   103   51  130 1    
   104   52   53 am   BACKBONE|DICT|INTERRES
   105   52  131 1    
   106   53   54 2    
   107   53   55 1    
   108   55   56 1    
   109   55   59 1    
   110   55  132 1    
   111   56   57 1    
   112   56  133 1    
   113   56  134 1    
   114   57   58 1    
   115   58  135 1    
   116   58  136 1    
   117   59   60 am   BACKBONE|DICT|INTERRES
   118   59  137 1    
   119   60   61 2    
   120   60   62 1    
   121   62   63 1    
   122   62   64 1    
   123   62  138 1    
   124   63  139 1    
   125   63  140 1    
   126   63  141 1    
   127   64   65 am   BACKBONE|DICT|INTERRES
   128   64  142 1    
   129   65   66 2    
   130   65   67 1    
   131   67   68 1    
   132   67   69 1    
   133   67  143 1    
   134   68  144 1    
   135   68  145 1    
   136   68  146 1    
   137   69   70 am   BACKBONE|DICT|INTERRES
   138   69  147 1    
   139   70   71 2    
   140   70   72 1    
   141   72   73 1    
   142   72   74 1    
   143   72  148 1    
   144   73  149 1    
   145   73  150 1    
   146   73  151 1    
   147   74   75 am   BACKBONE|DICT|INTERRES
   148   74  152 1    
   149   75   76 2    
   150   75   77 1    
   151   77   78 1    
   152   77   79 1    
   153   77  153 1    
   154   78  154 1    
   155   78  155 1    
   156   78  156 1    
   157   79   80 am   BACKBONE|DICT|INTERRES
   158   79  157 1    
   159   80   81 2    
@<TRIPOS>SUBSTRUCTURE
     1 UNK         1 GROUP             0       ****    0 ROOT    
