@<TRIPOS>MOLECULE
3R207
157   159    1
SMALL
USER_CHARGES


@<TRIPOS>ATOM
      1 CA        -45.7258  -29.2381    7.0058 C.3       0 UNK        -0.1975 
      2 C         -46.8631  -29.0137    6.0216 C.2       0 UNK         0.4852 
      3 O         -46.6205  -28.5753    4.8967 O.2       0 UNK        -0.5216 
      4 N         -48.1013  -29.3169    6.4343 N.am      1 UNK        -0.4461 
      5 CA        -49.3038  -29.2207    5.5936 C.3       1 UNK         0.0864 
      6 C6        -50.4631  -30.0919    6.1366 C.3       14 UNK        -0.0898 
      7 S7        -50.0096  -31.8594    6.1844 S.3       14 UNK        -0.2598 
      8 C8        -51.2804  -32.5469    7.2990 C.3       14 UNK         0.0286 
      9 C9        -51.2313  -31.9647    8.7079 C.ar      14 UNK        -0.0844 
     10 C10       -50.0208  -31.8675    9.4024 C.ar      14 UNK        -0.0881 
     11 C11       -49.9752  -31.3055   10.6812 C.ar      14 UNK        -0.0643 
     12 C12       -51.1616  -30.8719   11.2831 C.ar      14 UNK        -0.0930 
     13 C13       -52.3836  -30.9962   10.6146 C.ar      14 UNK        -0.0827 
     14 C14       -52.4100  -31.5345    9.3249 C.ar      14 UNK        -0.1249 
     15 C15       -53.6790  -30.5666   11.2875 C.3       14 UNK         0.0141 
     16 S16       -54.1680  -28.8998   10.7620 S.3       14 UNK        -0.2313 
     17 C17       -55.6767  -28.6480   11.7536 C.3       14 UNK        -0.0915 
     18 CA        -56.2754  -27.2309   11.5482 C.3       13 UNK         0.0968 
     19 C         -57.6674  -27.0801   12.2304 C.2       13 UNK         0.5732 
     20 N         -57.9096  -26.0753   13.0658 N.am      13 UNK        -0.7310 
     21 O         -58.5622  -27.8838   11.9776 O.2       13 UNK        -0.5035 
     22 N         -55.3173  -26.1841   11.9283 N.am      13 UNK        -0.4233 
     23 C         -55.2207  -24.9827   11.3477 C.2       13 UNK         0.4989 
     24 O         -55.8786  -24.6419   10.3629 O.2       13 UNK        -0.4996 
     25 CA        -54.2187  -23.9983   11.9829 C.3       12 UNK         0.0216 
     26 CB        -54.5119  -22.5244   11.6290 C.3       12 UNK        -0.1964 
     27 N         -54.0862  -24.1741   13.4357 N.am      12 UNK        -0.4276 
     28 C         -55.0473  -24.0292   14.3607 C.2       12 UNK         0.5020 
     29 O         -56.2113  -23.7221   14.0947 O.2       12 UNK        -0.5489 
     30 CA        -54.6399  -24.3124   15.8206 C.3       11 UNK         0.0294 
     31 CB        -55.8481  -24.3637   16.7802 C.3       11 UNK        -0.2019 
     32 N         -53.8154  -25.5182   15.9688 N.am      11 UNK        -0.4493 
     33 C         -54.1341  -26.7744   15.6140 C.2       11 UNK         0.4932 
     34 O         -55.1981  -27.0831   15.0773 O.2       11 UNK        -0.5029 
     35 CA        -53.0831  -27.8699   15.8788 C.3       10 UNK         0.0280 
     36 CB        -53.0409  -28.8973   14.7328 C.3       10 UNK        -0.1976 
     37 N         -51.7459  -27.2987   16.0451 N.am      10 UNK        -0.4242 
     38 C         -51.0698  -27.1945   17.1974 C.2       10 UNK         0.5072 
     39 O         -51.4963  -27.6002   18.2790 O.2       10 UNK        -0.5224 
     40 CA        -49.6855  -26.5175   17.1493 C.3       9 UNK         0.0343 
     41 CB        -48.5701  -27.5598   17.3321 C.3       9 UNK        -0.2003 
     42 N         -49.4465  -25.7745   15.9085 N.am      9 UNK        -0.4272 
     43 C         -49.9745  -24.5726   15.6272 C.2       9 UNK         0.4988 
     44 O         -50.6861  -23.9401   16.4077 O.2       9 UNK        -0.5108 
     45 CA        -49.7187  -24.0117   14.2145 C.3       8 UNK         0.0248 
     46 CB        -48.3982  -23.2262   14.1892 C.3       8 UNK        -0.2001 
     47 N         -49.6961  -25.0520   13.1794 N.am      8 UNK        -0.4140 
     48 C         -50.7128  -25.8942   12.9349 C.2       8 UNK         0.5028 
     49 O         -51.8091  -25.7961   13.4835 O.2       8 UNK        -0.5428 
     50 CA        -50.4756  -27.0908   11.9993 C.3       7 UNK         0.0264 
     51 CB        -51.2167  -26.9090   10.6701 C.3       7 UNK        -0.1988 
     52 N         -49.0669  -27.3862   11.7440 N.am      7 UNK        -0.4454 
     53 C         -48.1815  -27.7791   12.6726 C.2       7 UNK         0.5027 
     54 O         -48.4646  -27.9324   13.8618 O.2       7 UNK        -0.5083 
     55 CA        -46.7266  -28.0016   12.2026 C.3       6 UNK         0.0844 
     56 C56       -46.4491  -29.4962   11.8969 C.3       14 UNK        -0.0967 
     57 S57       -47.4454  -30.1616   10.5130 S.3       14 UNK        -0.2604 
     58 C58       -48.6502  -31.1876   11.4210 C.3       14 UNK         0.0134 
     59 N         -46.3099  -27.1343   11.0915 N.am      6 UNK        -0.4116 
     60 C         -46.3665  -25.7942   11.0632 C.2       5 UNK         0.5034 
     61 O         -46.8519  -25.1172   11.9721 O.2       5 UNK        -0.5045 
     62 CA        -45.7795  -25.0945    9.8229 C.3       5 UNK         0.0224 
     63 CB        -45.6459  -26.0143    8.5912 C.3       5 UNK        -0.1978 
     64 N         -46.6075  -23.9452    9.4615 N.am      5 UNK        -0.4737 
     65 C         -46.3186  -22.6660    9.7370 C.2       4 UNK         0.5027 
     66 O         -45.2889  -22.3076   10.3104 O.2       4 UNK        -0.5211 
     67 CA        -47.3184  -21.5888    9.2714 C.3       4 UNK         0.0297 
     68 CB        -46.7320  -20.7869    8.0971 C.3       4 UNK        -0.1993 
     69 N         -48.6145  -22.1354    8.8652 N.am      4 UNK        -0.4486 
     70 C         -49.5874  -22.5029    9.7089 C.2       3 UNK         0.4961 
     71 O         -49.5347  -22.3448   10.9270 O.2       3 UNK        -0.5105 
     72 CA        -50.8338  -23.1634    9.0923 C.3       3 UNK         0.0299 
     73 CB        -51.9527  -22.1245    8.9182 C.3       3 UNK        -0.1972 
     74 N         -50.6019  -23.8393    7.8078 N.am      3 UNK        -0.4305 
     75 C         -49.7609  -24.8619    7.5981 C.2       2 UNK         0.5006 
     76 O         -49.0131  -25.3351    8.4574 O.2       2 UNK        -0.5106 
     77 CA        -49.7094  -25.4162    6.1737 C.3       2 UNK         0.0296 
     78 CB        -48.6594  -24.6637    5.3371 C.3       2 UNK        -0.2002 
     79 N         -49.3668  -26.8339    6.2341 N.am      2 UNK        -0.4032 
     80 C         -49.7693  -27.7662    5.3609 C.2       1 UNK         0.5000 
     81 O         -50.4823  -27.5185    4.3859 O.2       1 UNK        -0.5238 
     82 H82       -44.9695  -28.4620    6.8939 H         1 UNK         0.0889 
     83 H83       -45.2529  -30.2014    6.8171 H         1 UNK         0.0889 
     84 H84       -46.0762  -29.2242    8.0365 H         1 UNK         0.0889 
     85 H85       -48.2417  -29.7037    7.3573 H         1 UNK         0.3028 
     86 H86       -49.0427  -29.6094    4.6064 H         1 UNK         0.0864 
     87 H87       -51.3507  -29.9951    5.5082 H         1 UNK         0.0720 
     88 H88       -50.7527  -29.7578    7.1347 H         1 UNK         0.0720 
     89 H89       -51.1443  -33.6271    7.3630 H         1 UNK         0.0814 
     90 H90       -52.2606  -32.3858    6.8473 H         1 UNK         0.0814 
     91 H91       -49.1058  -32.2115    8.9396 H         1 UNK         0.1469 
     92 H92       -51.1376  -30.4482   12.2775 H         1 UNK         0.1381 
     93 H93       -53.3541  -31.6189    8.8038 H         1 UNK         0.1206 
     94 H94       -54.4755  -31.2709   11.0427 H         1 UNK         0.0813 
     95 H95       -53.5693  -30.5906   12.3721 H         1 UNK         0.0813 
     96 H96       -55.4462  -28.8154   12.8066 H         1 UNK         0.0638 
     97 H97       -56.3952  -29.4176   11.4655 H         1 UNK         0.0638 
     98 H98       -56.4773  -27.1297   10.4803 H         1 UNK         0.0568 
     99 H99       -57.1953  -25.3935   13.2927 H         1 UNK         0.3450 
    100 H100      -58.8211  -26.0002   13.4869 H         1 UNK         0.3450 
    101 H101      -54.7775  -26.3685   12.7620 H         1 UNK         0.2987 
    102 H102      -53.2459  -24.2488   11.5574 H         1 UNK         0.0766 
    103 H103      -53.7587  -21.8591   12.0509 H         1 UNK         0.0798 
    104 H104      -55.4871  -22.2049   11.9972 H         1 UNK         0.0798 
    105 H105      -54.5109  -22.3711   10.5497 H         1 UNK         0.0798 
    106 H106      -53.1917  -24.5640   13.7307 H         1 UNK         0.3198 
    107 H107      -54.0124  -23.4732   16.1253 H         1 UNK         0.0843 
    108 H108      -56.5456  -25.1573   16.5097 H         1 UNK         0.0831 
    109 H109      -56.4025  -23.4246   16.7614 H         1 UNK         0.0831 
    110 H110      -55.5315  -24.5311   17.8096 H         1 UNK         0.0831 
    111 H111      -52.8986  -25.3682   16.3679 H         1 UNK         0.3133 
    112 H112      -53.3863  -28.3911   16.7886 H         1 UNK         0.0566 
    113 H113      -52.2400  -29.6230   14.8745 H         1 UNK         0.0814 
    114 H114      -53.9755  -29.4565   14.6795 H         1 UNK         0.0814 
    115 H115      -52.8940  -28.4159   13.7655 H         1 UNK         0.0814 
    116 H116      -51.3532  -26.8763   15.2120 H         1 UNK         0.3091 
    117 H117      -49.6354  -25.8175   17.9861 H         1 UNK         0.0702 
    118 H118      -47.5853  -27.0921   17.3364 H         1 UNK         0.0785 
    119 H119      -48.5832  -28.3089   16.5396 H         1 UNK         0.0785 
    120 H120      -48.6811  -28.0880   18.2801 H         1 UNK         0.0785 
    121 H121      -48.9113  -26.2556   15.1942 H         1 UNK         0.2998 
    122 H122      -50.5330  -23.3256   13.9725 H         1 UNK         0.0697 
    123 H123      -47.5441  -23.8640   14.4204 H         1 UNK         0.0825 
    124 H124      -48.4105  -22.4165   14.9199 H         1 UNK         0.0825 
    125 H125      -48.2201  -22.7775   13.2120 H         1 UNK         0.0825 
    126 H126      -48.8197  -25.1766   12.6826 H         1 UNK         0.3029 
    127 H127      -50.9015  -27.9623   12.4990 H         1 UNK         0.0897 
    128 H128      -50.7795  -26.1117   10.0783 H         1 UNK         0.0792 
    129 H129      -52.2635  -26.6519   10.8348 H         1 UNK         0.0792 
    130 H130      -51.1955  -27.8228   10.0754 H         1 UNK         0.0792 
    131 H131      -48.7446  -27.2757   10.7931 H         1 UNK         0.3086 
    132 H132      -46.0935  -27.7232   13.0476 H         1 UNK         0.0583 
    133 H133      -45.3954  -29.6292   11.6467 H         1 UNK         0.1020 
    134 H134      -46.6019  -30.1003   12.7935 H         1 UNK         0.1020 
    135 H135      -48.2298  -32.1822   11.5750 H         1 UNK         0.0694 
    136 H136      -48.8179  -30.7661   12.4133 H         1 UNK         0.0694 
    137 H137      -45.9143  -27.6095   10.2946 H         1 UNK         0.2989 
    138 H138      -44.7771  -24.7610   10.0999 H         1 UNK         0.1055 
    139 H139      -44.9123  -26.8024    8.7630 H         1 UNK         0.0806 
    140 H140      -45.3028  -25.4545    7.7208 H         1 UNK         0.0806 
    141 H141      -46.5932  -26.4837    8.3243 H         1 UNK         0.0806 
    142 H142      -47.5123  -24.1699    9.0601 H         1 UNK         0.3061 
    143 H143      -47.4727  -20.9044   10.1086 H         1 UNK         0.0734 
    144 H144      -46.5462  -21.4194    7.2281 H         1 UNK         0.0832 
    145 H145      -47.4004  -19.9815    7.7920 H         1 UNK         0.0832 
    146 H146      -45.7817  -20.3280    8.3738 H         1 UNK         0.0832 
    147 H147      -48.7545  -22.2925    7.8782 H         1 UNK         0.3156 
    148 H148      -51.1837  -23.9106    9.8051 H         1 UNK         0.0589 
    149 H149      -51.6877  -21.3641    8.1825 H         1 UNK         0.0808 
    150 H150      -52.8841  -22.5927    8.5992 H         1 UNK         0.0808 
    151 H151      -52.1558  -21.6087    9.8579 H         1 UNK         0.0808 
    152 H152      -51.1570  -23.5113    7.0299 H         1 UNK         0.3098 
    153 H153      -50.6955  -25.2966    5.7195 H         1 UNK         0.0720 
    154 H154      -48.6178  -25.0473    4.3174 H         1 UNK         0.0791 
    155 H155      -47.6611  -24.7559    5.7679 H         1 UNK         0.0791 
    156 H156      -48.8932  -23.6004    5.2724 H         1 UNK         0.0791 
    157 H157      -48.8238  -27.1063    7.0427 H         1 UNK         0.3028 
@<TRIPOS>BOND
     1    1    2 1    
     2    1   82 1    
     3    1   83 1    
     4    1   84 1    
     5    2    3 2    
     6    2    4 am   BACKBONE|DICT|INTERRES
     7    4    5 1    
     8    4   85 1    
     9    5    6 1    
    10    5   80 1    
    11    5   86 1    
    12    6    7 1    
    13    6   87 1    
    14    6   88 1    
    15    7    8 1    
    16    8    9 1    
    17    8   89 1    
    18    8   90 1    
    19    9   10 ar   
    20    9   14 ar   
    21   10   11 ar   
    22   10   91 1    
    23   11   12 ar   
    24   11   58 1    
    25   12   13 ar   
    26   12   92 1    
    27   13   14 ar   
    28   13   15 1    
    29   14   93 1    
    30   15   16 1    
    31   15   94 1    
    32   15   95 1    
    33   16   17 1    
    34   17   18 1    
    35   17   96 1    
    36   17   97 1    
    37   18   19 1    
    38   18   22 1    
    39   18   98 1    
    40   19   20 am   BACKBONE|DICT|INTERRES
    41   19   21 2    
    42   20   99 1    
    43   20  100 1    
    44   22   23 am   BACKBONE|DICT|INTERRES
    45   22  101 1    
    46   23   24 2    
    47   23   25 1    
    48   25   26 1    
    49   25   27 1    
    50   25  102 1    
    51   26  103 1    
    52   26  104 1    
    53   26  105 1    
    54   27   28 am   BACKBONE|DICT|INTERRES
    55   27  106 1    
    56   28   29 2    
    57   28   30 1    
    58   30   31 1    
    59   30   32 1    
    60   30  107 1    
    61   31  108 1    
    62   31  109 1    
    63   31  110 1    
    64   32   33 am   BACKBONE|DICT|INTERRES
    65   32  111 1    
    66   33   34 2    
    67   33   35 1    
    68   35   36 1    
    69   35   37 1    
    70   35  112 1    
    71   36  113 1    
    72   36  114 1    
    73   36  115 1    
    74   37   38 am   BACKBONE|DICT|INTERRES
    75   37  116 1    
    76   38   39 2    
    77   38   40 1    
    78   40   41 1    
    79   40   42 1    
    80   40  117 1    
    81   41  118 1    
    82   41  119 1    
    83   41  120 1    
    84   42   43 am   BACKBONE|DICT|INTERRES
    85   42  121 1    
    86   43   44 2    
    87   43   45 1    
    88   45   46 1    
    89   45   47 1    
    90   45  122 1    
    91   46  123 1    
    92   46  124 1    
    93   46  125 1    
    94   47   48 am   BACKBONE|DICT|INTERRES
    95   47  126 1    
    96   48   49 2    
    97   48   50 1    
    98   50   51 1    
    99   50   52 1    
   100   50  127 1    
   101   51  128 1    
   102   51  129 1    
   103   51  130 1    
   104   52   53 am   BACKBONE|DICT|INTERRES
   105   52  131 1    
   106   53   54 2    
   107   53   55 1    
   108   55   56 1    
   109   55   59 1    
   110   55  132 1    
   111   56   57 1    
   112   56  133 1    
   113   56  134 1    
   114   57   58 1    
   115   58  135 1    
   116   58  136 1    
   117   59   60 am   BACKBONE|DICT|INTERRES
   118   59  137 1    
   119   60   61 2    
   120   60   62 1    
   121   62   63 1    
   122   62   64 1    
   123   62  138 1    
   124   63  139 1    
   125   63  140 1    
   126   63  141 1    
   127   64   65 am   BACKBONE|DICT|INTERRES
   128   64  142 1    
   129   65   66 2    
   130   65   67 1    
   131   67   68 1    
   132   67   69 1    
   133   67  143 1    
   134   68  144 1    
   135   68  145 1    
   136   68  146 1    
   137   69   70 am   BACKBONE|DICT|INTERRES
   138   69  147 1    
   139   70   71 2    
   140   70   72 1    
   141   72   73 1    
   142   72   74 1    
   143   72  148 1    
   144   73  149 1    
   145   73  150 1    
   146   73  151 1    
   147   74   75 am   BACKBONE|DICT|INTERRES
   148   74  152 1    
   149   75   76 2    
   150   75   77 1    
   151   77   78 1    
   152   77   79 1    
   153   77  153 1    
   154   78  154 1    
   155   78  155 1    
   156   78  156 1    
   157   79   80 am   BACKBONE|DICT|INTERRES
   158   79  157 1    
   159   80   81 2    
@<TRIPOS>SUBSTRUCTURE
     1 UNK         1 GROUP             0       ****    0 ROOT    
