@<TRIPOS>MOLECULE
3R207
157   159    1
SMALL
USER_CHARGES


@<TRIPOS>ATOM
      1 CA        -47.7222  -31.9075    5.2873 C.3       0 UNK        -0.1975 
      2 C         -47.9817  -30.4092    5.2524 C.2       0 UNK         0.4852 
      3 O         -47.7131  -29.7232    6.2381 O.2       0 UNK        -0.5216 
      4 N         -48.4867  -29.8995    4.1197 N.am      1 UNK        -0.4461 
      5 CA        -48.8748  -28.5071    3.8278 C.3       1 UNK         0.0864 
      6 C6        -49.9540  -27.9253    4.7782 C.3       14 UNK        -0.0898 
      7 S7        -51.4727  -28.9320    4.8775 S.3       14 UNK        -0.2598 
      8 C8        -51.5282  -29.3200    6.6645 C.3       14 UNK         0.0286 
      9 C9        -51.9927  -28.1877    7.5882 C.ar      14 UNK        -0.0844 
     10 C10       -52.0359  -26.8429    7.1931 C.ar      14 UNK        -0.0881 
     11 C11       -52.4382  -25.8410    8.0808 C.ar      14 UNK        -0.0643 
     12 C12       -52.8289  -26.1914    9.3755 C.ar      14 UNK        -0.0930 
     13 C13       -52.7920  -27.5258    9.7889 C.ar      14 UNK        -0.0827 
     14 C14       -52.3705  -28.5140    8.8949 C.ar      14 UNK        -0.1249 
     15 C15       -53.1954  -27.8961   11.2063 C.3       14 UNK         0.0141 
     16 S16       -54.9728  -28.2732   11.3058 S.3       14 UNK        -0.2313 
     17 C17       -55.1978  -28.3981   13.1105 C.3       14 UNK        -0.0915 
     18 CA        -55.4211  -29.8422   13.6357 C.3       13 UNK         0.0968 
     19 C         -54.1043  -30.6751   13.6155 C.2       13 UNK         0.5732 
     20 N         -53.4174  -30.8457   14.7397 N.am      13 UNK        -0.7310 
     21 O         -53.7099  -31.1896   12.5723 O.2       13 UNK        -0.5035 
     22 N         -56.0907  -29.8174   14.9487 N.am      13 UNK        -0.4233 
     23 C         -56.6614  -30.8826   15.5322 C.2       13 UNK         0.4989 
     24 O         -56.7759  -31.9758   14.9760 O.2       13 UNK        -0.4996 
     25 CA        -57.1721  -30.7409   16.9816 C.3       12 UNK         0.0216 
     26 CB        -56.2882  -31.5575   17.9403 C.3       12 UNK        -0.1964 
     27 N         -57.2325  -29.3592   17.4645 N.am      12 UNK        -0.4276 
     28 C         -58.1995  -28.4817   17.1666 C.2       12 UNK         0.5020 
     29 O         -59.1917  -28.7620   16.4929 O.2       12 UNK        -0.5489 
     30 CA        -58.0273  -27.0402   17.6920 C.3       11 UNK         0.0294 
     31 CB        -58.8427  -26.8426   18.9805 C.3       11 UNK        -0.2019 
     32 N         -56.6385  -26.6118   17.9292 N.am      11 UNK        -0.4493 
     33 C         -55.6608  -26.6253   17.0137 C.2       11 UNK         0.4932 
     34 O         -55.8013  -27.0876   15.8791 O.2       11 UNK        -0.5029 
     35 CA        -54.2932  -26.0701   17.4330 C.3       10 UNK         0.0280 
     36 CB        -53.6393  -26.9337   18.5277 C.3       10 UNK        -0.1976 
     37 N         -53.4511  -26.0655   16.2425 N.am      10 UNK        -0.4242 
     38 C         -52.4262  -25.2548   15.9762 C.2       10 UNK         0.5072 
     39 O         -52.0134  -24.3805   16.7427 O.2       10 UNK        -0.5224 
     40 CA        -51.7983  -25.4411   14.5827 C.3       9 UNK         0.0343 
     41 CB        -52.6037  -24.6669   13.5271 C.3       9 UNK        -0.2003 
     42 N         -50.3931  -25.0316   14.5215 N.am      9 UNK        -0.4272 
     43 C         -49.3942  -25.6354   15.1828 C.2       9 UNK         0.4988 
     44 O         -49.5673  -26.6087   15.9195 O.2       9 UNK        -0.5108 
     45 CA        -47.9586  -25.1036   14.9887 C.3       8 UNK         0.0248 
     46 CB        -46.9613  -26.2606   14.7942 C.3       8 UNK        -0.2001 
     47 N         -47.8200  -24.1731   13.8648 N.am      8 UNK        -0.4140 
     48 C         -48.0071  -22.8482   13.9317 C.2       8 UNK         0.5028 
     49 O         -48.3217  -22.2514   14.9616 O.2       8 UNK        -0.5428 
     50 CA        -47.8412  -22.0569   12.6220 C.3       7 UNK         0.0264 
     51 CB        -46.3579  -21.7628   12.3481 C.3       7 UNK        -0.1988 
     52 N         -48.4305  -22.7369   11.4650 N.am      7 UNK        -0.4454 
     53 C         -49.7424  -22.9701   11.3093 C.2       7 UNK         0.5027 
     54 O         -50.5972  -22.5881   12.1079 O.2       7 UNK        -0.5083 
     55 CA        -50.1735  -23.7837   10.0737 C.3       6 UNK         0.0844 
     56 C56       -50.3826  -22.8642    8.8461 C.3       14 UNK        -0.0967 
     57 S57       -50.7827  -23.7506    7.2997 S.3       14 UNK        -0.2604 
     58 C58       -52.4617  -24.3880    7.6213 C.3       14 UNK         0.0134 
     59 N         -49.2466  -24.8847    9.8161 N.am      6 UNK        -0.4116 
     60 C         -49.1574  -25.9946   10.5610 C.2       5 UNK         0.5034 
     61 O         -49.8792  -26.2419   11.5261 O.2       5 UNK        -0.5045 
     62 CA        -48.0368  -26.9765   10.1892 C.3       5 UNK         0.0224 
     63 CB        -48.5158  -27.9583    9.1085 C.3       5 UNK        -0.1978 
     64 N         -46.8235  -26.2849    9.7400 N.am      5 UNK        -0.4737 
     65 C         -46.0411  -25.5571   10.5529 C.2       4 UNK         0.5027 
     66 O         -46.2504  -25.4281   11.7576 O.2       4 UNK        -0.5211 
     67 CA        -44.8531  -24.8086    9.9228 C.3       4 UNK         0.0297 
     68 CB        -43.6087  -25.7094    9.8936 C.3       4 UNK        -0.1993 
     69 N         -45.1252  -24.3110    8.5742 N.am      4 UNK        -0.4486 
     70 C         -46.1006  -23.4520    8.2450 C.2       3 UNK         0.4961 
     71 O         -46.8449  -22.9149    9.0653 O.2       3 UNK        -0.5105 
     72 CA        -46.3173  -23.1901    6.7423 C.3       3 UNK         0.0299 
     73 CB        -45.6079  -21.8953    6.3171 C.3       3 UNK        -0.1972 
     74 N         -45.8864  -24.2953    5.8727 N.am      3 UNK        -0.4305 
     75 C         -46.3767  -25.5417    5.9281 C.2       2 UNK         0.5006 
     76 O         -47.2295  -25.9027    6.7428 O.2       2 UNK        -0.5106 
     77 CA        -45.7610  -26.5717    4.9697 C.3       2 UNK         0.0296 
     78 CB        -44.5311  -27.2309    5.6155 C.3       2 UNK        -0.2002 
     79 N         -46.7516  -27.6042    4.6815 N.am      2 UNK        -0.4032 
     80 C         -47.6944  -27.5161    3.7385 C.2       1 UNK         0.5000 
     81 O         -47.6819  -26.6730    2.8389 O.2       1 UNK        -0.5238 
     82 H82       -46.6653  -32.1004    5.4690 H         1 UNK         0.0889 
     83 H83       -48.0009  -32.3930    4.3523 H         1 UNK         0.0889 
     84 H84       -48.2959  -32.3665    6.0920 H         1 UNK         0.0889 
     85 H85       -48.6490  -30.5353    3.3509 H         1 UNK         0.3028 
     86 H86       -49.3123  -28.5413    2.8285 H         1 UNK         0.0864 
     87 H87       -50.2508  -26.9320    4.4355 H         1 UNK         0.0720 
     88 H88       -49.5441  -27.7814    5.7799 H         1 UNK         0.0720 
     89 H89       -50.5431  -29.6591    6.9885 H         1 UNK         0.0814 
     90 H90       -52.1992  -30.1709    6.7911 H         1 UNK         0.0814 
     91 H91       -51.7505  -26.5494    6.1954 H         1 UNK         0.1469 
     92 H92       -53.1581  -25.4276   10.0660 H         1 UNK         0.1381 
     93 H93       -52.3392  -29.5451    9.2207 H         1 UNK         0.1206 
     94 H94       -52.9521  -27.0764   11.8824 H         1 UNK         0.0813 
     95 H95       -52.6189  -28.7566   11.5489 H         1 UNK         0.0813 
     96 H96       -56.0762  -27.7910   13.3346 H         1 UNK         0.0638 
     97 H97       -54.3684  -27.9172   13.6312 H         1 UNK         0.0638 
     98 H98       -56.1101  -30.3380   12.9492 H         1 UNK         0.0568 
     99 H99       -52.5731  -31.3950   14.7197 H         1 UNK         0.3450 
    100 H100      -53.7342  -30.4384   15.6036 H         1 UNK         0.3450 
    101 H101      -56.0589  -28.9308   15.4424 H         1 UNK         0.2987 
    102 H102      -58.1795  -31.1621   17.0092 H         1 UNK         0.0766 
    103 H103      -56.2480  -32.6057   17.6400 H         1 UNK         0.0798 
    104 H104      -56.6774  -31.5316   18.9584 H         1 UNK         0.0798 
    105 H105      -55.2628  -31.1864   17.9624 H         1 UNK         0.0798 
    106 H106      -56.4623  -29.0380   18.0326 H         1 UNK         0.3198 
    107 H107      -58.4378  -26.3781   16.9265 H         1 UNK         0.0843 
    108 H108      -58.4557  -27.4491   19.8003 H         1 UNK         0.0831 
    109 H109      -59.8857  -27.1262   18.8306 H         1 UNK         0.0831 
    110 H110      -58.8376  -25.8003   19.3000 H         1 UNK         0.0831 
    111 H111      -56.4378  -26.2256   18.8412 H         1 UNK         0.3133 
    112 H112      -54.4299  -25.0477   17.7910 H         1 UNK         0.0566 
    113 H113      -52.6514  -26.5548   18.7910 H         1 UNK         0.0814 
    114 H114      -53.5221  -27.9699   18.2079 H         1 UNK         0.0814 
    115 H115      -54.2337  -26.9365   19.4419 H         1 UNK         0.0814 
    116 H116      -53.7960  -26.6839   15.5187 H         1 UNK         0.3091 
    117 H117      -51.8346  -26.5029   14.3290 H         1 UNK         0.0702 
    118 H118      -53.6451  -24.9911   13.5063 H         1 UNK         0.0785 
    119 H119      -52.1978  -24.8239   12.5280 H         1 UNK         0.0785 
    120 H120      -52.5993  -23.5945   13.7264 H         1 UNK         0.0785 
    121 H121      -50.1793  -24.2300   13.9451 H         1 UNK         0.2998 
    122 H122      -47.6878  -24.5859   15.9112 H         1 UNK         0.0697 
    123 H123      -47.2167  -26.8657   13.9232 H         1 UNK         0.0825 
    124 H124      -46.9484  -26.9231   15.6605 H         1 UNK         0.0825 
    125 H125      -45.9449  -25.8908   14.6573 H         1 UNK         0.0825 
    126 H126      -47.5069  -24.5788   12.9862 H         1 UNK         0.3029 
    127 H127      -48.3594  -21.1031   12.7439 H         1 UNK         0.0897 
    128 H128      -45.7782  -22.6796   12.2416 H         1 UNK         0.0792 
    129 H129      -45.9169  -21.1926   13.1668 H         1 UNK         0.0792 
    130 H130      -46.2295  -21.1771   11.4375 H         1 UNK         0.0792 
    131 H131      -47.7965  -23.0102   10.7175 H         1 UNK         0.3086 
    132 H132      -51.1399  -24.2232   10.3186 H         1 UNK         0.0583 
    133 H133      -51.1746  -22.1397    9.0457 H         1 UNK         0.1020 
    134 H134      -49.4831  -22.2755    8.6551 H         1 UNK         0.1020 
    135 H135      -52.9717  -23.7525    8.3467 H         1 UNK         0.0694 
    136 H136      -53.0409  -24.3218    6.6993 H         1 UNK         0.0694 
    137 H137      -48.6130  -24.7693    9.0379 H         1 UNK         0.2989 
    138 H138      -47.7890  -27.5492   11.0858 H         1 UNK         0.1055 
    139 H139      -48.8276  -27.4435    8.1991 H         1 UNK         0.0806 
    140 H140      -49.3731  -28.5335    9.4603 H         1 UNK         0.0806 
    141 H141      -47.7353  -28.6700    8.8395 H         1 UNK         0.0806 
    142 H142      -46.6416  -26.2873    8.7421 H         1 UNK         0.3061 
    143 H143      -44.6343  -23.9446   10.5528 H         1 UNK         0.0734 
    144 H144      -43.7535  -26.5800    9.2526 H         1 UNK         0.0832 
    145 H145      -42.7332  -25.1679    9.5348 H         1 UNK         0.0832 
    146 H146      -43.3718  -26.0772   10.8931 H         1 UNK         0.0832 
    147 H147      -44.5641  -24.6928    7.8277 H         1 UNK         0.3156 
    148 H148      -47.3909  -23.0565    6.5924 H         1 UNK         0.0589 
    149 H149      -45.8339  -21.6392    5.2818 H         1 UNK         0.0808 
    150 H150      -45.9300  -21.0544    6.9335 H         1 UNK         0.0808 
    151 H151      -44.5247  -21.9755    6.4166 H         1 UNK         0.0808 
    152 H152      -45.1774  -24.0808    5.1854 H         1 UNK         0.3098 
    153 H153      -45.4593  -26.0759    4.0446 H         1 UNK         0.0720 
    154 H154      -44.7831  -27.7206    6.5576 H         1 UNK         0.0791 
    155 H155      -43.7538  -26.4952    5.8255 H         1 UNK         0.0791 
    156 H156      -44.0947  -27.9819    4.9566 H         1 UNK         0.0791 
    157 H157      -46.9136  -28.2947    5.4126 H         1 UNK         0.3028 
@<TRIPOS>BOND
     1    1    2 1    
     2    1   82 1    
     3    1   83 1    
     4    1   84 1    
     5    2    3 2    
     6    2    4 am   BACKBONE|DICT|INTERRES
     7    4    5 1    
     8    4   85 1    
     9    5    6 1    
    10    5   80 1    
    11    5   86 1    
    12    6    7 1    
    13    6   87 1    
    14    6   88 1    
    15    7    8 1    
    16    8    9 1    
    17    8   89 1    
    18    8   90 1    
    19    9   10 ar   
    20    9   14 ar   
    21   10   11 ar   
    22   10   91 1    
    23   11   12 ar   
    24   11   58 1    
    25   12   13 ar   
    26   12   92 1    
    27   13   14 ar   
    28   13   15 1    
    29   14   93 1    
    30   15   16 1    
    31   15   94 1    
    32   15   95 1    
    33   16   17 1    
    34   17   18 1    
    35   17   96 1    
    36   17   97 1    
    37   18   19 1    
    38   18   22 1    
    39   18   98 1    
    40   19   20 am   BACKBONE|DICT|INTERRES
    41   19   21 2    
    42   20   99 1    
    43   20  100 1    
    44   22   23 am   BACKBONE|DICT|INTERRES
    45   22  101 1    
    46   23   24 2    
    47   23   25 1    
    48   25   26 1    
    49   25   27 1    
    50   25  102 1    
    51   26  103 1    
    52   26  104 1    
    53   26  105 1    
    54   27   28 am   BACKBONE|DICT|INTERRES
    55   27  106 1    
    56   28   29 2    
    57   28   30 1    
    58   30   31 1    
    59   30   32 1    
    60   30  107 1    
    61   31  108 1    
    62   31  109 1    
    63   31  110 1    
    64   32   33 am   BACKBONE|DICT|INTERRES
    65   32  111 1    
    66   33   34 2    
    67   33   35 1    
    68   35   36 1    
    69   35   37 1    
    70   35  112 1    
    71   36  113 1    
    72   36  114 1    
    73   36  115 1    
    74   37   38 am   BACKBONE|DICT|INTERRES
    75   37  116 1    
    76   38   39 2    
    77   38   40 1    
    78   40   41 1    
    79   40   42 1    
    80   40  117 1    
    81   41  118 1    
    82   41  119 1    
    83   41  120 1    
    84   42   43 am   BACKBONE|DICT|INTERRES
    85   42  121 1    
    86   43   44 2    
    87   43   45 1    
    88   45   46 1    
    89   45   47 1    
    90   45  122 1    
    91   46  123 1    
    92   46  124 1    
    93   46  125 1    
    94   47   48 am   BACKBONE|DICT|INTERRES
    95   47  126 1    
    96   48   49 2    
    97   48   50 1    
    98   50   51 1    
    99   50   52 1    
   100   50  127 1    
   101   51  128 1    
   102   51  129 1    
   103   51  130 1    
   104   52   53 am   BACKBONE|DICT|INTERRES
   105   52  131 1    
   106   53   54 2    
   107   53   55 1    
   108   55   56 1    
   109   55   59 1    
   110   55  132 1    
   111   56   57 1    
   112   56  133 1    
   113   56  134 1    
   114   57   58 1    
   115   58  135 1    
   116   58  136 1    
   117   59   60 am   BACKBONE|DICT|INTERRES
   118   59  137 1    
   119   60   61 2    
   120   60   62 1    
   121   62   63 1    
   122   62   64 1    
   123   62  138 1    
   124   63  139 1    
   125   63  140 1    
   126   63  141 1    
   127   64   65 am   BACKBONE|DICT|INTERRES
   128   64  142 1    
   129   65   66 2    
   130   65   67 1    
   131   67   68 1    
   132   67   69 1    
   133   67  143 1    
   134   68  144 1    
   135   68  145 1    
   136   68  146 1    
   137   69   70 am   BACKBONE|DICT|INTERRES
   138   69  147 1    
   139   70   71 2    
   140   70   72 1    
   141   72   73 1    
   142   72   74 1    
   143   72  148 1    
   144   73  149 1    
   145   73  150 1    
   146   73  151 1    
   147   74   75 am   BACKBONE|DICT|INTERRES
   148   74  152 1    
   149   75   76 2    
   150   75   77 1    
   151   77   78 1    
   152   77   79 1    
   153   77  153 1    
   154   78  154 1    
   155   78  155 1    
   156   78  156 1    
   157   79   80 am   BACKBONE|DICT|INTERRES
   158   79  157 1    
   159   80   81 2    
@<TRIPOS>SUBSTRUCTURE
     1 UNK         1 GROUP             0       ****    0 ROOT    
