@<TRIPOS>MOLECULE
3R207
157   159    1
SMALL
USER_CHARGES


@<TRIPOS>ATOM
      1 CA        -53.6852  -26.4602    4.1072 C.3       0 UNK        -0.1975 
      2 C         -52.8375  -26.1818    2.8673 C.2       0 UNK         0.4852 
      3 O         -53.3903  -26.0794    1.7732 O.2       0 UNK        -0.5216 
      4 N         -51.5097  -26.0498    2.9736 N.am      1 UNK        -0.4461 
      5 CA        -50.6855  -26.1145    4.1793 C.3       1 UNK         0.0864 
      6 C6        -50.5193  -27.5625    4.7218 C.3       14 UNK        -0.0898 
      7 S7        -50.2612  -27.5945    6.5288 S.3       14 UNK        -0.2598 
      8 C8        -51.7727  -28.4405    7.0831 C.3       14 UNK         0.0286 
      9 C9        -51.7819  -28.6691    8.5878 C.ar      14 UNK        -0.0844 
     10 C10       -50.8867  -29.5739    9.1663 C.ar      14 UNK        -0.0881 
     11 C11       -50.9267  -29.8360   10.5388 C.ar      14 UNK        -0.0643 
     12 C12       -51.8862  -29.1994   11.3310 C.ar      14 UNK        -0.0930 
     13 C13       -52.7763  -28.2784   10.7708 C.ar      14 UNK        -0.0827 
     14 C14       -52.7092  -28.0084    9.3987 C.ar      14 UNK        -0.1249 
     15 C15       -53.7842  -27.5648   11.6666 C.3       14 UNK         0.0141 
     16 S16       -55.4727  -27.5326   10.9829 S.3       14 UNK        -0.2313 
     17 C17       -55.8904  -29.3075   10.9268 C.3       14 UNK        -0.0915 
     18 CA        -57.0910  -29.6482   11.8427 C.3       13 UNK         0.0968 
     19 C         -57.6062  -31.0880   11.5728 C.2       13 UNK         0.5732 
     20 N         -58.4700  -31.2592   10.5812 N.am      13 UNK        -0.7310 
     21 O         -57.2080  -32.0523   12.2246 O.2       13 UNK        -0.5035 
     22 N         -56.7609  -29.4391   13.2574 N.am      13 UNK        -0.4233 
     23 C         -57.6560  -29.3154   14.2400 C.2       13 UNK         0.4989 
     24 O         -58.8712  -29.2509   14.0473 O.2       13 UNK        -0.4996 
     25 CA        -57.1347  -29.2443   15.6882 C.3       12 UNK         0.0216 
     26 CB        -57.1748  -30.6384   16.3447 C.3       12 UNK        -0.1964 
     27 N         -55.8189  -28.6119   15.8799 N.am      12 UNK        -0.4276 
     28 C         -54.6071  -29.0166   15.4781 C.2       12 UNK         0.5020 
     29 O         -54.4148  -29.9690   14.7201 O.2       12 UNK        -0.5489 
     30 CA        -53.4128  -28.2002   16.0070 C.3       11 UNK         0.0294 
     31 CB        -52.1001  -29.0012   15.9592 C.3       11 UNK        -0.2019 
     32 N         -53.2207  -26.9425   15.2846 N.am      11 UNK        -0.4493 
     33 C         -54.0252  -25.8728   15.3465 C.2       11 UNK         0.4932 
     34 O         -55.0762  -25.8418   15.9910 O.2       11 UNK        -0.5029 
     35 CA        -53.5296  -24.6197   14.5997 C.3       10 UNK         0.0280 
     36 CB        -54.4675  -23.4046   14.7558 C.3       10 UNK        -0.1976 
     37 N         -52.1535  -24.2769   14.9779 N.am      10 UNK        -0.4242 
     38 C         -51.6907  -23.9923   16.2069 C.2       10 UNK         0.5072 
     39 O         -52.4051  -23.8770   17.2038 O.2       10 UNK        -0.5224 
     40 CA        -50.1673  -23.8376   16.3774 C.3       9 UNK         0.0343 
     41 CB        -49.5942  -25.0729   17.0921 C.3       9 UNK        -0.2003 
     42 N         -49.4458  -23.6394   15.1180 N.am      9 UNK        -0.4272 
     43 C         -49.4574  -22.5063   14.4017 C.2       9 UNK         0.4988 
     44 O         -50.0242  -21.4739   14.7610 O.2       9 UNK        -0.5108 
     45 CA        -48.7447  -22.5404   13.0382 C.3       8 UNK         0.0248 
     46 CB        -47.2351  -22.3053   13.2061 C.3       8 UNK        -0.2001 
     47 N         -48.9670  -23.7890   12.3035 N.am      8 UNK        -0.4140 
     48 C         -50.1607  -24.2389   11.8887 C.2       8 UNK         0.5028 
     49 O         -51.2207  -23.6376   12.0590 O.2       8 UNK        -0.5428 
     50 CA        -50.1840  -25.6216   11.2253 C.3       7 UNK         0.0264 
     51 CB        -49.6908  -25.5580    9.7726 C.3       7 UNK        -0.1988 
     52 N         -49.3923  -26.5907   11.9805 N.am      7 UNK        -0.4454 
     53 C         -49.7592  -27.1131   13.1594 C.2       7 UNK         0.5027 
     54 O         -50.8301  -26.8611   13.7160 O.2       7 UNK        -0.5083 
     55 CA        -48.7474  -28.0487   13.8551 C.3       6 UNK         0.0844 
     56 C56       -48.9658  -29.5384   13.4904 C.3       14 UNK        -0.0967 
     57 S57       -48.4531  -29.9942   11.7933 S.3       14 UNK        -0.2604 
     58 C58       -49.9451  -30.8229   11.1535 C.3       14 UNK         0.0134 
     59 N         -47.3576  -27.6343   13.6481 N.am      6 UNK        -0.4116 
     60 C         -46.8144  -26.5055   14.1216 C.2       5 UNK         0.5034 
     61 O         -47.4191  -25.6886   14.8138 O.2       5 UNK        -0.5045 
     62 CA        -45.3646  -26.2134   13.7013 C.3       5 UNK         0.0224 
     63 CB        -44.3744  -26.9756   14.5961 C.3       5 UNK        -0.1978 
     64 N         -45.0960  -26.5183   12.2902 N.am      5 UNK        -0.4737 
     65 C         -45.7278  -25.9355   11.2636 C.2       4 UNK         0.5027 
     66 O         -46.6361  -25.1137   11.4016 O.2       4 UNK        -0.5211 
     67 CA        -45.3196  -26.3821    9.8539 C.3       4 UNK         0.0297 
     68 CB        -46.1679  -27.5854    9.4090 C.3       4 UNK        -0.1993 
     69 N         -45.5191  -25.2870    8.9079 N.am      4 UNK        -0.4486 
     70 C         -44.6942  -24.2488    8.7354 C.2       3 UNK         0.4961 
     71 O         -43.5841  -24.1709    9.2654 O.2       3 UNK        -0.5105 
     72 CA        -45.1964  -23.1131    7.8132 C.3       3 UNK         0.0299 
     73 CB        -44.1217  -22.0391    7.5582 C.3       3 UNK        -0.1972 
     74 N         -45.7042  -23.5916    6.5206 N.am      3 UNK        -0.4305 
     75 C         -46.8703  -24.2208    6.3281 C.2       2 UNK         0.5006 
     76 O         -47.6637  -24.4741    7.2400 O.2       2 UNK        -0.5106 
     77 CA        -47.1878  -24.6763    4.8979 C.3       2 UNK         0.0296 
     78 CB        -46.1728  -25.7269    4.4026 C.3       2 UNK        -0.2002 
     79 N         -48.5293  -25.2475    4.9090 N.am      2 UNK        -0.4032 
     80 C         -49.3268  -25.4622    3.8614 C.2       1 UNK         0.5000 
     81 O         -49.0280  -25.1843    2.6948 O.2       1 UNK        -0.5238 
     82 H82       -53.6752  -27.5231    4.3444 H         1 UNK         0.0889 
     83 H83       -54.7205  -26.1725    3.9253 H         1 UNK         0.0889 
     84 H84       -53.3463  -25.9026    4.9783 H         1 UNK         0.0889 
     85 H85       -50.9635  -25.8211    2.1506 H         1 UNK         0.3028 
     86 H86       -51.1556  -25.4830    4.9351 H         1 UNK         0.0864 
     87 H87       -49.6879  -28.0788    4.2374 H         1 UNK         0.0720 
     88 H88       -51.3946  -28.1681    4.4881 H         1 UNK         0.0720 
     89 H89       -51.8544  -29.4043    6.5783 H         1 UNK         0.0814 
     90 H90       -52.6415  -27.8556    6.7778 H         1 UNK         0.0814 
     91 H91       -50.1592  -30.0763    8.5434 H         1 UNK         0.1469 
     92 H92       -51.9322  -29.4088   12.3901 H         1 UNK         0.1381 
     93 H93       -53.3953  -27.2975    8.9595 H         1 UNK         0.1206 
     94 H94       -53.4505  -26.5386   11.8173 H         1 UNK         0.0813 
     95 H95       -53.8188  -28.0267   12.6537 H         1 UNK         0.0813 
     96 H96       -55.0215  -29.9113   11.1949 H         1 UNK         0.0638 
     97 H97       -56.1173  -29.5481    9.8866 H         1 UNK         0.0638 
     98 H98       -57.9049  -28.9642   11.5929 H         1 UNK         0.0568 
     99 H99       -58.7956  -30.4789   10.0322 H         1 UNK         0.3450 
    100 H100      -58.8069  -32.1878   10.3808 H         1 UNK         0.3450 
    101 H101      -55.7922  -29.5833   13.5288 H         1 UNK         0.2987 
    102 H102      -57.8380  -28.6097   16.2299 H         1 UNK         0.0766 
    103 H103      -56.4991  -31.3387   15.8523 H         1 UNK         0.0798 
    104 H104      -58.1771  -31.0659   16.2915 H         1 UNK         0.0798 
    105 H105      -56.8996  -30.5899   17.3983 H         1 UNK         0.0798 
    106 H106      -55.8414  -27.7173   16.3609 H         1 UNK         0.3198 
    107 H107      -53.6125  -27.9618   17.0541 H         1 UNK         0.0843 
    108 H108      -51.8340  -29.2634   14.9363 H         1 UNK         0.0831 
    109 H109      -52.1893  -29.9316   16.5216 H         1 UNK         0.0831 
    110 H110      -51.2720  -28.4377   16.3894 H         1 UNK         0.0831 
    111 H111      -52.3733  -26.8743   14.7220 H         1 UNK         0.3133 
    112 H112      -53.4999  -24.8776   13.5408 H         1 UNK         0.0566 
    113 H113      -55.4655  -23.6338   14.3806 H         1 UNK         0.0814 
    114 H114      -54.5744  -23.1027   15.7981 H         1 UNK         0.0814 
    115 H115      -54.0983  -22.5467   14.1939 H         1 UNK         0.0814 
    116 H116      -51.4785  -24.3346   14.2257 H         1 UNK         0.3091 
    117 H117      -49.9957  -22.9654   17.0116 H         1 UNK         0.0702 
    118 H118      -48.5279  -24.9592   17.2879 H         1 UNK         0.0785 
    119 H119      -49.7321  -25.9786   16.4997 H         1 UNK         0.0785 
    120 H120      -50.0839  -25.2338   18.0535 H         1 UNK         0.0785 
    121 H121      -48.8792  -24.4190   14.7939 H         1 UNK         0.2998 
    122 H122      -49.1514  -21.7283   12.4322 H         1 UNK         0.0697 
    123 H123      -46.7661  -23.0991   13.7884 H         1 UNK         0.0825 
    124 H124      -47.0405  -21.3631   13.7200 H         1 UNK         0.0825 
    125 H125      -46.7313  -22.2594   12.2402 H         1 UNK         0.0825 
    126 H126      -48.1382  -24.3376   12.0762 H         1 UNK         0.3029 
    127 H127      -51.2185  -25.9656   11.2103 H         1 UNK         0.0897 
    128 H128      -48.6698  -25.1840    9.7011 H         1 UNK         0.0792 
    129 H129      -50.3204  -24.8977    9.1754 H         1 UNK         0.0792 
    130 H130      -49.7214  -26.5419    9.3053 H         1 UNK         0.0792 
    131 H131      -48.4847  -26.8272   11.6084 H         1 UNK         0.3086 
    132 H132      -48.9430  -27.9553   14.9257 H         1 UNK         0.0583 
    133 H133      -48.3904  -30.1595   14.1788 H         1 UNK         0.1020 
    134 H134      -50.0033  -29.8240   13.6590 H         1 UNK         0.1020 
    135 H135      -49.6371  -31.5501   10.4007 H         1 UNK         0.0694 
    136 H136      -50.4268  -31.4005   11.9439 H         1 UNK         0.0694 
    137 H137      -46.7932  -28.2401   13.0705 H         1 UNK         0.2989 
    138 H138      -45.1980  -25.1433   13.8437 H         1 UNK         0.1055 
    139 H139      -44.5498  -26.7521   15.6496 H         1 UNK         0.0806 
    140 H140      -43.3441  -26.6953   14.3762 H         1 UNK         0.0806 
    141 H141      -44.4625  -28.0558   14.4733 H         1 UNK         0.0806 
    142 H142      -44.3667  -27.1911   12.0983 H         1 UNK         0.3061 
    143 H143      -44.2657  -26.6683    9.8561 H         1 UNK         0.0734 
    144 H144      -45.8870  -27.9193    8.4100 H         1 UNK         0.0832 
    145 H145      -46.0327  -28.4332   10.0819 H         1 UNK         0.0832 
    146 H146      -47.2328  -27.3502    9.3927 H         1 UNK         0.0832 
    147 H147      -46.4330  -25.2196    8.4676 H         1 UNK         0.3156 
    148 H148      -46.0206  -22.6290    8.3417 H         1 UNK         0.0589 
    149 H149      -43.2546  -22.4508    7.0402 H         1 UNK         0.0808 
    150 H150      -44.5143  -21.2180    6.9580 H         1 UNK         0.0808 
    151 H151      -43.7676  -21.6082    8.4959 H         1 UNK         0.0808 
    152 H152      -45.0956  -23.4551    5.7262 H         1 UNK         0.3098 
    153 H153      -47.1738  -23.8018    4.2444 H         1 UNK         0.0720 
    154 H154      -46.4121  -26.0690    3.3956 H         1 UNK         0.0791 
    155 H155      -46.1518  -26.6016    5.0543 H         1 UNK         0.0791 
    156 H156      -45.1616  -25.3206    4.3667 H         1 UNK         0.0791 
    157 H157      -48.8597  -25.4715    5.8423 H         1 UNK         0.3028 
@<TRIPOS>BOND
     1    1    2 1    
     2    1   82 1    
     3    1   83 1    
     4    1   84 1    
     5    2    3 2    
     6    2    4 am   BACKBONE|DICT|INTERRES
     7    4    5 1    
     8    4   85 1    
     9    5    6 1    
    10    5   80 1    
    11    5   86 1    
    12    6    7 1    
    13    6   87 1    
    14    6   88 1    
    15    7    8 1    
    16    8    9 1    
    17    8   89 1    
    18    8   90 1    
    19    9   10 ar   
    20    9   14 ar   
    21   10   11 ar   
    22   10   91 1    
    23   11   12 ar   
    24   11   58 1    
    25   12   13 ar   
    26   12   92 1    
    27   13   14 ar   
    28   13   15 1    
    29   14   93 1    
    30   15   16 1    
    31   15   94 1    
    32   15   95 1    
    33   16   17 1    
    34   17   18 1    
    35   17   96 1    
    36   17   97 1    
    37   18   19 1    
    38   18   22 1    
    39   18   98 1    
    40   19   20 am   BACKBONE|DICT|INTERRES
    41   19   21 2    
    42   20   99 1    
    43   20  100 1    
    44   22   23 am   BACKBONE|DICT|INTERRES
    45   22  101 1    
    46   23   24 2    
    47   23   25 1    
    48   25   26 1    
    49   25   27 1    
    50   25  102 1    
    51   26  103 1    
    52   26  104 1    
    53   26  105 1    
    54   27   28 am   BACKBONE|DICT|INTERRES
    55   27  106 1    
    56   28   29 2    
    57   28   30 1    
    58   30   31 1    
    59   30   32 1    
    60   30  107 1    
    61   31  108 1    
    62   31  109 1    
    63   31  110 1    
    64   32   33 am   BACKBONE|DICT|INTERRES
    65   32  111 1    
    66   33   34 2    
    67   33   35 1    
    68   35   36 1    
    69   35   37 1    
    70   35  112 1    
    71   36  113 1    
    72   36  114 1    
    73   36  115 1    
    74   37   38 am   BACKBONE|DICT|INTERRES
    75   37  116 1    
    76   38   39 2    
    77   38   40 1    
    78   40   41 1    
    79   40   42 1    
    80   40  117 1    
    81   41  118 1    
    82   41  119 1    
    83   41  120 1    
    84   42   43 am   BACKBONE|DICT|INTERRES
    85   42  121 1    
    86   43   44 2    
    87   43   45 1    
    88   45   46 1    
    89   45   47 1    
    90   45  122 1    
    91   46  123 1    
    92   46  124 1    
    93   46  125 1    
    94   47   48 am   BACKBONE|DICT|INTERRES
    95   47  126 1    
    96   48   49 2    
    97   48   50 1    
    98   50   51 1    
    99   50   52 1    
   100   50  127 1    
   101   51  128 1    
   102   51  129 1    
   103   51  130 1    
   104   52   53 am   BACKBONE|DICT|INTERRES
   105   52  131 1    
   106   53   54 2    
   107   53   55 1    
   108   55   56 1    
   109   55   59 1    
   110   55  132 1    
   111   56   57 1    
   112   56  133 1    
   113   56  134 1    
   114   57   58 1    
   115   58  135 1    
   116   58  136 1    
   117   59   60 am   BACKBONE|DICT|INTERRES
   118   59  137 1    
   119   60   61 2    
   120   60   62 1    
   121   62   63 1    
   122   62   64 1    
   123   62  138 1    
   124   63  139 1    
   125   63  140 1    
   126   63  141 1    
   127   64   65 am   BACKBONE|DICT|INTERRES
   128   64  142 1    
   129   65   66 2    
   130   65   67 1    
   131   67   68 1    
   132   67   69 1    
   133   67  143 1    
   134   68  144 1    
   135   68  145 1    
   136   68  146 1    
   137   69   70 am   BACKBONE|DICT|INTERRES
   138   69  147 1    
   139   70   71 2    
   140   70   72 1    
   141   72   73 1    
   142   72   74 1    
   143   72  148 1    
   144   73  149 1    
   145   73  150 1    
   146   73  151 1    
   147   74   75 am   BACKBONE|DICT|INTERRES
   148   74  152 1    
   149   75   76 2    
   150   75   77 1    
   151   77   78 1    
   152   77   79 1    
   153   77  153 1    
   154   78  154 1    
   155   78  155 1    
   156   78  156 1    
   157   79   80 am   BACKBONE|DICT|INTERRES
   158   79  157 1    
   159   80   81 2    
@<TRIPOS>SUBSTRUCTURE
     1 UNK         1 GROUP             0       ****    0 ROOT    
