@<TRIPOS>MOLECULE
3R207
157   159    1
SMALL
USER_CHARGES


@<TRIPOS>ATOM
      1 CA        -46.3782  -31.6297    3.0480 C.3       0 UNK        -0.1975 
      2 C         -47.0827  -30.3471    3.4648 C.2       0 UNK         0.4852 
      3 O         -47.2196  -29.4316    2.6517 O.2       0 UNK        -0.5216 
      4 N         -47.5366  -30.2740    4.7229 N.am      1 UNK        -0.4461 
      5 CA        -48.1805  -29.0992    5.3110 C.3       1 UNK         0.0864 
      6 C6        -49.0081  -29.4869    6.5649 C.3       14 UNK        -0.0898 
      7 S7        -49.9168  -28.0943    7.3245 S.3       14 UNK        -0.2598 
      8 C8        -51.5330  -28.2142    6.4995 C.3       14 UNK         0.0286 
      9 C9        -52.5891  -27.3988    7.2320 C.ar      14 UNK        -0.0844 
     10 C10       -52.5404  -26.0010    7.2223 C.ar      14 UNK        -0.0881 
     11 C11       -53.5059  -25.2507    7.9033 C.ar      14 UNK        -0.0643 
     12 C12       -54.5482  -25.9089    8.5606 C.ar      14 UNK        -0.0930 
     13 C13       -54.6064  -27.3053    8.5796 C.ar      14 UNK        -0.0827 
     14 C14       -53.6209  -28.0446    7.9194 C.ar      14 UNK        -0.1249 
     15 C15       -55.7289  -28.0147    9.3194 C.3       14 UNK         0.0141 
     16 S16       -55.6185  -27.7177   11.1082 S.3       14 UNK        -0.2313 
     17 C17       -56.7163  -29.0277   11.7556 C.3       14 UNK        -0.0915 
     18 CA        -55.9536  -30.2119   12.4139 C.3       13 UNK         0.0968 
     19 C         -55.3755  -31.2132   11.3755 C.2       13 UNK         0.5732 
     20 N         -56.2377  -31.9419   10.6793 N.am      13 UNK        -0.7310 
     21 O         -54.1675  -31.3311   11.1796 O.2       13 UNK        -0.5035 
     22 N         -54.9477  -29.7095   13.3513 N.am      13 UNK        -0.4233 
     23 C         -54.4283  -30.3571   14.3973 C.2       13 UNK         0.4989 
     24 O         -54.7632  -31.4913   14.7418 O.2       13 UNK        -0.4996 
     25 CA        -53.3621  -29.5978   15.2117 C.3       12 UNK         0.0216 
     26 CB        -51.9605  -30.1518   14.9099 C.3       12 UNK        -0.1964 
     27 N         -53.3733  -28.1515   14.9573 N.am      12 UNK        -0.4276 
     28 C         -54.3150  -27.3075   15.3993 C.2       12 UNK         0.5020 
     29 O         -55.2320  -27.6382   16.1540 O.2       12 UNK        -0.5489 
     30 CA        -54.2043  -25.8600   14.8917 C.3       11 UNK         0.0294 
     31 CB        -55.5589  -25.1213   14.8639 C.3       11 UNK        -0.2019 
     32 N         -53.1911  -25.1102   15.6401 N.am      11 UNK        -0.4493 
     33 C         -53.1991  -24.7730   16.9401 C.2       11 UNK         0.4932 
     34 O         -54.1387  -24.9851   17.7078 O.2       11 UNK        -0.5029 
     35 CA        -51.9337  -24.0609   17.4653 C.3       10 UNK         0.0280 
     36 CB        -51.8555  -24.0223   19.0066 C.3       10 UNK        -0.1976 
     37 N         -50.6908  -24.5954   16.8959 N.am      10 UNK        -0.4242 
     38 C         -50.2414  -25.8602   16.9660 C.2       10 UNK         0.5072 
     39 O         -50.8073  -26.7513   17.6009 O.2       10 UNK        -0.5224 
     40 CA        -48.9550  -26.1994   16.1898 C.3       9 UNK         0.0343 
     41 CB        -49.0790  -27.5510   15.4655 C.3       9 UNK        -0.2003 
     42 N         -48.6309  -25.1637   15.2061 N.am      9 UNK        -0.4272 
     43 C         -47.5531  -24.3678   15.2422 C.2       9 UNK         0.4988 
     44 O         -46.6523  -24.4689   16.0760 O.2       9 UNK        -0.5108 
     45 CA        -47.4671  -23.2447   14.1879 C.3       8 UNK         0.0248 
     46 CB        -46.6314  -23.7133   12.9861 C.3       8 UNK        -0.2001 
     47 N         -48.7691  -22.7648   13.7103 N.am      8 UNK        -0.4140 
     48 C         -49.7325  -22.2315   14.4780 C.2       8 UNK         0.5028 
     49 O         -49.6083  -22.0291   15.6857 O.2       8 UNK        -0.5428 
     50 CA        -51.0960  -21.9502   13.8152 C.3       7 UNK         0.0264 
     51 CB        -51.1843  -20.4809   13.3746 C.3       7 UNK        -0.1988 
     52 N         -51.4166  -22.8171   12.6737 N.am      7 UNK        -0.4454 
     53 C         -51.4091  -24.1584   12.6758 C.2       7 UNK         0.5027 
     54 O         -51.1424  -24.8167   13.6858 O.2       7 UNK        -0.5083 
     55 CA        -51.7248  -24.8717   11.3406 C.3       6 UNK         0.0844 
     56 C56       -51.5565  -23.9664   10.0850 C.3       14 UNK        -0.0967 
     57 S57       -53.0947  -23.0965    9.6324 S.3       14 UNK        -0.2604 
     58 C58       -53.4133  -23.7303    7.9478 C.3       14 UNK         0.0134 
     59 N         -50.9182  -26.0830   11.2085 N.am      6 UNK        -0.4116 
     60 C         -51.1776  -27.2771   11.7569 C.2       5 UNK         0.5034 
     61 O         -52.1388  -27.5045   12.4934 O.2       5 UNK        -0.5045 
     62 CA        -50.2120  -28.4270   11.4172 C.3       5 UNK         0.0224 
     63 CB        -50.9492  -29.5231   10.6301 C.3       5 UNK        -0.1978 
     64 N         -49.0442  -27.9839   10.6446 N.am      5 UNK        -0.4737 
     65 C         -47.9104  -27.5242   11.1912 C.2       4 UNK         0.5027 
     66 O         -47.7064  -27.4764   12.4018 O.2       4 UNK        -0.5211 
     67 CA        -46.8257  -27.0064   10.2322 C.3       4 UNK         0.0297 
     68 CB        -45.9132  -28.1600    9.7900 C.3       4 UNK        -0.1993 
     69 N         -47.3495  -26.3043    9.0544 N.am      4 UNK        -0.4486 
     70 C         -48.0611  -25.1662    9.1022 C.2       3 UNK         0.4961 
     71 O         -48.4184  -24.6444   10.1589 O.2       3 UNK        -0.5105 
     72 CA        -48.4997  -24.5096    7.7758 C.3       3 UNK         0.0299 
     73 CB        -48.3774  -22.9718    7.8191 C.3       3 UNK        -0.1972 
     74 N         -47.8671  -25.0580    6.5721 N.am      3 UNK        -0.4305 
     75 C         -46.5759  -25.0062    6.2076 C.2       2 UNK         0.5006 
     76 O         -45.7008  -24.4146    6.8410 O.2       2 UNK        -0.5106 
     77 CA        -46.2147  -25.7855    4.9230 C.3       2 UNK         0.0296 
     78 CB        -44.7088  -26.1117    4.8223 C.3       2 UNK        -0.2002 
     79 N         -47.0280  -27.0010    4.7519 N.am      2 UNK        -0.4032 
     80 C         -47.1163  -28.0262    5.6143 C.2       1 UNK         0.5000 
     81 O         -46.4341  -28.1248    6.6356 O.2       1 UNK        -0.5238 
     82 H82       -46.9010  -32.0892    2.2096 H         1 UNK         0.0889 
     83 H83       -46.3368  -32.3551    3.8603 H         1 UNK         0.0889 
     84 H84       -45.3574  -31.4119    2.7354 H         1 UNK         0.0889 
     85 H85       -47.3706  -31.0446    5.3547 H         1 UNK         0.3028 
     86 H86       -48.8809  -28.6941    4.5769 H         1 UNK         0.0864 
     87 H87       -49.7181  -30.2754    6.3113 H         1 UNK         0.0720 
     88 H88       -48.3591  -29.9153    7.3313 H         1 UNK         0.0720 
     89 H89       -51.8380  -29.2603    6.4439 H         1 UNK         0.0814 
     90 H90       -51.4435  -27.8626    5.4707 H         1 UNK         0.0814 
     91 H91       -51.7374  -25.5006    6.6993 H         1 UNK         0.1469 
     92 H92       -55.2983  -25.3334    9.0859 H         1 UNK         0.1381 
     93 H93       -53.6589  -29.1253    7.9388 H         1 UNK         0.1206 
     94 H94       -55.6929  -29.0880    9.1268 H         1 UNK         0.0813 
     95 H95       -56.6935  -27.6628    8.9510 H         1 UNK         0.0813 
     96 H96       -57.3556  -28.5603   12.5060 H         1 UNK         0.0638 
     97 H97       -57.3961  -29.3719   10.9742 H         1 UNK         0.0638 
     98 H98       -56.6789  -30.7779   13.0016 H         1 UNK         0.0568 
     99 H99       -57.2314  -31.8621   10.8275 H         1 UNK         0.3450 
    100 H100      -55.8843  -32.5951    9.9980 H         1 UNK         0.3450 
    101 H101      -54.5608  -28.8084   13.1107 H         1 UNK         0.2987 
    102 H102      -53.5771  -29.7634   16.2694 H         1 UNK         0.0766 
    103 H103      -51.6789  -29.9928   13.8686 H         1 UNK         0.0798 
    104 H104      -51.9149  -31.2251   15.0998 H         1 UNK         0.0798 
    105 H105      -51.2075  -29.6817   15.5409 H         1 UNK         0.0798 
    106 H106      -52.7105  -27.8113   14.2626 H         1 UNK         0.3198 
    107 H107      -53.8516  -25.9066   13.8601 H         1 UNK         0.0843 
    108 H108      -56.0078  -25.0430   15.8542 H         1 UNK         0.0831 
    109 H109      -56.2709  -25.6507   14.2293 H         1 UNK         0.0831 
    110 H110      -55.4523  -24.1137   14.4625 H         1 UNK         0.0831 
    111 H111      -52.3409  -24.9245   15.1121 H         1 UNK         0.3133 
    112 H112      -52.0038  -23.0296   17.1169 H         1 UNK         0.0566 
    113 H113      -50.9637  -23.4951   19.3453 H         1 UNK         0.0814 
    114 H114      -52.7167  -23.5036   19.4295 H         1 UNK         0.0814 
    115 H115      -51.8370  -25.0244   19.4363 H         1 UNK         0.0814 
    116 H116      -50.1321  -23.9212   16.3834 H         1 UNK         0.3091 
    117 H117      -48.1598  -26.2856   16.9326 H         1 UNK         0.0702 
    118 H118      -49.2942  -28.3573   16.1671 H         1 UNK         0.0785 
    119 H119      -49.8749  -27.5359   14.7197 H         1 UNK         0.0785 
    120 H120      -48.1489  -27.8114   14.9617 H         1 UNK         0.0785 
    121 H121      -49.3354  -25.0073   14.4909 H         1 UNK         0.2998 
    122 H122      -46.9585  -22.3974   14.6523 H         1 UNK         0.0697 
    123 H123      -47.0868  -24.5742   12.4953 H         1 UNK         0.0825 
    124 H124      -45.6301  -24.0120   13.2995 H         1 UNK         0.0825 
    125 H125      -46.5167  -22.9242   12.2427 H         1 UNK         0.0825 
    126 H126      -48.9657  -22.9061   12.7298 H         1 UNK         0.3029 
    127 H127      -51.8615  -22.1249   14.5741 H         1 UNK         0.0897 
    128 H128      -50.4676  -20.2519   12.5848 H         1 UNK         0.0792 
    129 H129      -50.9753  -19.8096   14.2091 H         1 UNK         0.0792 
    130 H130      -52.1807  -20.2348   13.0069 H         1 UNK         0.0792 
    131 H131      -51.6831  -22.3502   11.8173 H         1 UNK         0.3086 
    132 H132      -52.7681  -25.1900   11.3994 H         1 UNK         0.0583 
    133 H133      -50.7413  -23.2483   10.1870 H         1 UNK         0.1020 
    134 H134      -51.2601  -24.5771    9.2346 H         1 UNK         0.1020 
    135 H135      -54.3476  -23.3037    7.5803 H         1 UNK         0.0694 
    136 H136      -52.6283  -23.3697    7.2812 H         1 UNK         0.0694 
    137 H137      -50.0448  -25.9743   10.7106 H         1 UNK         0.2989 
    138 H138      -49.8764  -28.8563   12.3639 H         1 UNK         0.1055 
    139 H139      -51.7680  -29.9400   11.2182 H         1 UNK         0.0806 
    140 H140      -50.2844  -30.3472   10.3714 H         1 UNK         0.0806 
    141 H141      -51.3839  -29.1366    9.7081 H         1 UNK         0.0806 
    142 H142      -49.1323  -27.9920    9.6359 H         1 UNK         0.3061 
    143 H143      -46.2158  -26.2907   10.7876 H         1 UNK         0.0734 
    144 H144      -45.0981  -27.8040    9.1595 H         1 UNK         0.0832 
    145 H145      -45.4642  -28.6548   10.6522 H         1 UNK         0.0832 
    146 H146      -46.4638  -28.9172    9.2303 H         1 UNK         0.0832 
    147 H147      -47.1065  -26.6977    8.1521 H         1 UNK         0.3156 
    148 H148      -49.5578  -24.7464    7.6694 H         1 UNK         0.0589 
    149 H149      -47.3493  -22.6520    7.9901 H         1 UNK         0.0808 
    150 H150      -48.7198  -22.5196    6.8884 H         1 UNK         0.0808 
    151 H151      -48.9818  -22.5490    8.6218 H         1 UNK         0.0808 
    152 H152      -48.4869  -25.5819    5.9706 H         1 UNK         0.3098 
    153 H153      -46.4654  -25.1273    4.0898 H         1 UNK         0.0720 
    154 H154      -44.4823  -26.6595    3.9076 H         1 UNK         0.0791 
    155 H155      -44.3658  -26.7115    5.6660 H         1 UNK         0.0791 
    156 H156      -44.1110  -25.1995    4.8091 H         1 UNK         0.0791 
    157 H157      -47.5934  -27.0364    3.9136 H         1 UNK         0.3028 
@<TRIPOS>BOND
     1    1    2 1    
     2    1   82 1    
     3    1   83 1    
     4    1   84 1    
     5    2    3 2    
     6    2    4 am   BACKBONE|DICT|INTERRES
     7    4    5 1    
     8    4   85 1    
     9    5    6 1    
    10    5   80 1    
    11    5   86 1    
    12    6    7 1    
    13    6   87 1    
    14    6   88 1    
    15    7    8 1    
    16    8    9 1    
    17    8   89 1    
    18    8   90 1    
    19    9   10 ar   
    20    9   14 ar   
    21   10   11 ar   
    22   10   91 1    
    23   11   12 ar   
    24   11   58 1    
    25   12   13 ar   
    26   12   92 1    
    27   13   14 ar   
    28   13   15 1    
    29   14   93 1    
    30   15   16 1    
    31   15   94 1    
    32   15   95 1    
    33   16   17 1    
    34   17   18 1    
    35   17   96 1    
    36   17   97 1    
    37   18   19 1    
    38   18   22 1    
    39   18   98 1    
    40   19   20 am   BACKBONE|DICT|INTERRES
    41   19   21 2    
    42   20   99 1    
    43   20  100 1    
    44   22   23 am   BACKBONE|DICT|INTERRES
    45   22  101 1    
    46   23   24 2    
    47   23   25 1    
    48   25   26 1    
    49   25   27 1    
    50   25  102 1    
    51   26  103 1    
    52   26  104 1    
    53   26  105 1    
    54   27   28 am   BACKBONE|DICT|INTERRES
    55   27  106 1    
    56   28   29 2    
    57   28   30 1    
    58   30   31 1    
    59   30   32 1    
    60   30  107 1    
    61   31  108 1    
    62   31  109 1    
    63   31  110 1    
    64   32   33 am   BACKBONE|DICT|INTERRES
    65   32  111 1    
    66   33   34 2    
    67   33   35 1    
    68   35   36 1    
    69   35   37 1    
    70   35  112 1    
    71   36  113 1    
    72   36  114 1    
    73   36  115 1    
    74   37   38 am   BACKBONE|DICT|INTERRES
    75   37  116 1    
    76   38   39 2    
    77   38   40 1    
    78   40   41 1    
    79   40   42 1    
    80   40  117 1    
    81   41  118 1    
    82   41  119 1    
    83   41  120 1    
    84   42   43 am   BACKBONE|DICT|INTERRES
    85   42  121 1    
    86   43   44 2    
    87   43   45 1    
    88   45   46 1    
    89   45   47 1    
    90   45  122 1    
    91   46  123 1    
    92   46  124 1    
    93   46  125 1    
    94   47   48 am   BACKBONE|DICT|INTERRES
    95   47  126 1    
    96   48   49 2    
    97   48   50 1    
    98   50   51 1    
    99   50   52 1    
   100   50  127 1    
   101   51  128 1    
   102   51  129 1    
   103   51  130 1    
   104   52   53 am   BACKBONE|DICT|INTERRES
   105   52  131 1    
   106   53   54 2    
   107   53   55 1    
   108   55   56 1    
   109   55   59 1    
   110   55  132 1    
   111   56   57 1    
   112   56  133 1    
   113   56  134 1    
   114   57   58 1    
   115   58  135 1    
   116   58  136 1    
   117   59   60 am   BACKBONE|DICT|INTERRES
   118   59  137 1    
   119   60   61 2    
   120   60   62 1    
   121   62   63 1    
   122   62   64 1    
   123   62  138 1    
   124   63  139 1    
   125   63  140 1    
   126   63  141 1    
   127   64   65 am   BACKBONE|DICT|INTERRES
   128   64  142 1    
   129   65   66 2    
   130   65   67 1    
   131   67   68 1    
   132   67   69 1    
   133   67  143 1    
   134   68  144 1    
   135   68  145 1    
   136   68  146 1    
   137   69   70 am   BACKBONE|DICT|INTERRES
   138   69  147 1    
   139   70   71 2    
   140   70   72 1    
   141   72   73 1    
   142   72   74 1    
   143   72  148 1    
   144   73  149 1    
   145   73  150 1    
   146   73  151 1    
   147   74   75 am   BACKBONE|DICT|INTERRES
   148   74  152 1    
   149   75   76 2    
   150   75   77 1    
   151   77   78 1    
   152   77   79 1    
   153   77  153 1    
   154   78  154 1    
   155   78  155 1    
   156   78  156 1    
   157   79   80 am   BACKBONE|DICT|INTERRES
   158   79  157 1    
   159   80   81 2    
@<TRIPOS>SUBSTRUCTURE
     1 UNK         1 GROUP             0       ****    0 ROOT    
