@<TRIPOS>MOLECULE
3R207
157   159    1
SMALL
USER_CHARGES


@<TRIPOS>ATOM
      1 CA        -44.3880  -31.0424    6.9704 C.3       0 UNK        -0.1975 
      2 C         -45.5265  -30.5317    6.1000 C.2       0 UNK         0.4852 
      3 O         -45.4404  -30.6045    4.8738 O.2       0 UNK        -0.5216 
      4 N         -46.5913  -30.0124    6.7260 N.am      1 UNK        -0.4461 
      5 CA        -47.7936  -29.4894    6.0597 C.3       1 UNK         0.0864 
      6 C6        -48.9491  -29.2431    7.0611 C.3       14 UNK        -0.0898 
      7 S7        -49.3364  -30.6614    8.1405 S.3       14 UNK        -0.2598 
      8 C8        -49.9678  -29.8052    9.6222 C.3       14 UNK         0.0286 
      9 C9        -51.3505  -29.2105    9.3880 C.ar      14 UNK        -0.0844 
     10 C10       -51.4884  -27.9648    8.7679 C.ar      14 UNK        -0.0881 
     11 C11       -52.7514  -27.4089    8.5511 C.ar      14 UNK        -0.0643 
     12 C12       -53.8871  -28.1064    8.9731 C.ar      14 UNK        -0.0930 
     13 C13       -53.7656  -29.3563    9.5886 C.ar      14 UNK        -0.0827 
     14 C14       -52.4952  -29.9038    9.7933 C.ar      14 UNK        -0.1249 
     15 C15       -55.0089  -30.1259   10.0051 C.3       14 UNK         0.0141 
     16 S16       -55.3746  -29.9018   11.7718 S.3       14 UNK        -0.2313 
     17 C17       -57.0316  -30.6597   11.8637 C.3       14 UNK        -0.0915 
     18 CA        -58.1478  -29.5931   12.0055 C.3       13 UNK         0.0968 
     19 C         -59.5521  -30.2360   11.8462 C.2       13 UNK         0.5732 
     20 N         -60.0595  -30.3226   10.6243 N.am      13 UNK        -0.7310 
     21 O         -60.1652  -30.6911   12.8108 O.2       13 UNK        -0.5035 
     22 N         -58.0159  -28.8631   13.2721 N.am      13 UNK        -0.4233 
     23 C         -58.6346  -27.7166   13.5779 C.2       13 UNK         0.4989 
     24 O         -59.3373  -27.0881   12.7849 O.2       13 UNK        -0.4996 
     25 CA        -58.4559  -27.1753   15.0113 C.3       12 UNK         0.0216 
     26 CB        -59.7917  -27.2214   15.7736 C.3       12 UNK        -0.1964 
     27 N         -57.4418  -27.8969   15.7898 N.am      12 UNK        -0.4276 
     28 C         -56.1204  -27.7119   15.6787 C.2       12 UNK         0.5020 
     29 O         -55.6012  -26.8887   14.9220 O.2       12 UNK        -0.5489 
     30 CA        -55.2374  -28.6530   16.5156 C.3       11 UNK         0.0294 
     31 CB        -54.9062  -29.9246   15.7156 C.3       11 UNK        -0.2019 
     32 N         -53.9869  -28.0175   16.9315 N.am      11 UNK        -0.4493 
     33 C         -53.8853  -27.0373   17.8399 C.2       11 UNK         0.4932 
     34 O         -54.8483  -26.5733   18.4523 O.2       11 UNK        -0.5029 
     35 CA        -52.4741  -26.5045   18.1532 C.3       10 UNK         0.0280 
     36 CB        -52.0260  -26.9671   19.5502 C.3       10 UNK        -0.1976 
     37 N         -51.4682  -26.9236   17.1716 N.am      10 UNK        -0.4242 
     38 C         -51.2152  -26.2841   16.0227 C.2       10 UNK         0.5072 
     39 O         -51.7908  -25.2547   15.6651 O.2       10 UNK        -0.5224 
     40 CA        -50.1531  -26.9251   15.1113 C.3       9 UNK         0.0343 
     41 CB        -50.8103  -27.5497   13.8679 C.3       9 UNK        -0.2003 
     42 N         -49.1255  -25.9690   14.6935 N.am      9 UNK        -0.4272 
     43 C         -48.2772  -25.3404   15.5205 C.2       9 UNK         0.4988 
     44 O         -48.2486  -25.5213   16.7390 O.2       9 UNK        -0.5108 
     45 CA        -47.2658  -24.3646   14.8929 C.3       8 UNK         0.0248 
     46 CB        -45.9766  -25.1075   14.5079 C.3       8 UNK        -0.2001 
     47 N         -47.7858  -23.6456   13.7269 N.am      8 UNK        -0.4140 
     48 C         -48.7253  -22.6901   13.7813 C.2       8 UNK         0.5028 
     49 O         -49.2288  -22.2833   14.8292 O.2       8 UNK        -0.5428 
     50 CA        -49.1795  -22.0749   12.4450 C.3       7 UNK         0.0264 
     51 CB        -48.2323  -20.9429   12.0156 C.3       7 UNK        -0.1988 
     52 N         -49.2896  -23.0580   11.3647 N.am      7 UNK        -0.4454 
     53 C         -50.1914  -24.0506   11.3316 C.2       7 UNK         0.5027 
     54 O         -51.0614  -24.2078   12.1875 O.2       7 UNK        -0.5083 
     55 CA        -50.0795  -25.0600   10.1678 C.3       6 UNK         0.0844 
     56 C56       -50.7504  -24.5320    8.8746 C.3       14 UNK        -0.0967 
     57 S57       -52.5718  -24.6559    8.9206 S.3       14 UNK        -0.2604 
     58 C58       -52.8929  -26.0765    7.8274 C.3       14 UNK         0.0134 
     59 N         -48.6935  -25.4725    9.9263 N.am      6 UNK        -0.4116 
     60 C         -47.9088  -26.0937   10.8184 C.2       5 UNK         0.5034 
     61 O         -48.2887  -26.4718   11.9246 O.2       5 UNK        -0.5045 
     62 CA        -46.4314  -26.2689   10.4351 C.3       5 UNK         0.0224 
     63 CB        -46.2204  -27.5360    9.5910 C.3       5 UNK        -0.1978 
     64 N         -45.9090  -25.0953    9.7291 N.am      5 UNK        -0.4737 
     65 C         -45.7019  -23.9047   10.3104 C.2       4 UNK         0.5027 
     66 O         -45.8795  -23.6934   11.5086 O.2       4 UNK        -0.5211 
     67 CA        -45.2699  -22.7456    9.3962 C.3       4 UNK         0.0297 
     68 CB        -43.7512  -22.7784    9.1646 C.3       4 UNK        -0.1993 
     69 N         -45.9656  -22.7507    8.1068 N.am      4 UNK        -0.4486 
     70 C         -47.2851  -22.5661    7.9535 C.2       3 UNK         0.4961 
     71 O         -48.0528  -22.3143    8.8812 O.2       3 UNK        -0.5105 
     72 CA        -47.8538  -22.7565    6.5347 C.3       3 UNK         0.0299 
     73 CB        -47.7914  -21.4386    5.7473 C.3       3 UNK        -0.1972 
     74 N         -47.1832  -23.8205    5.7759 N.am      3 UNK        -0.4305 
     75 C         -47.1283  -25.1029    6.1605 C.2       2 UNK         0.5006 
     76 O         -47.6655  -25.5258    7.1889 O.2       2 UNK        -0.5106 
     77 CA        -46.2696  -26.0429    5.2955 C.3       2 UNK         0.0296 
     78 CB        -44.7744  -25.7294    5.4825 C.3       2 UNK        -0.2002 
     79 N         -46.4989  -27.4359    5.6746 N.am      2 UNK        -0.4032 
     80 C         -47.5407  -28.1794    5.2794 C.2       1 UNK         0.5000 
     81 O         -48.3146  -27.8499    4.3780 O.2       1 UNK        -0.5238 
     82 H82       -44.2289  -32.1057    6.7931 H         1 UNK         0.0889 
     83 H83       -44.5909  -30.9025    8.0321 H         1 UNK         0.0889 
     84 H84       -43.4656  -30.5148    6.7294 H         1 UNK         0.0889 
     85 H85       -46.6280  -30.0261    7.7352 H         1 UNK         0.3028 
     86 H86       -48.1224  -30.2385    5.3360 H         1 UNK         0.0864 
     87 H87       -49.8626  -28.9790    6.5242 H         1 UNK         0.0720 
     88 H88       -48.7078  -28.3874    7.6932 H         1 UNK         0.0720 
     89 H89       -49.2697  -29.0262    9.9331 H         1 UNK         0.0814 
     90 H90       -50.0051  -30.5185   10.4470 H         1 UNK         0.0814 
     91 H91       -50.6111  -27.4245    8.4466 H         1 UNK         0.1469 
     92 H92       -54.8685  -27.6826    8.8086 H         1 UNK         0.1381 
     93 H93       -52.3997  -30.8710   10.2679 H         1 UNK         0.1206 
     94 H94       -54.8761  -31.1884    9.7952 H         1 UNK         0.0813 
     95 H95       -55.8660  -29.7999    9.4135 H         1 UNK         0.0813 
     96 H96       -57.1916  -31.2732   10.9749 H         1 UNK         0.0638 
     97 H97       -57.0488  -31.3489   12.7100 H         1 UNK         0.0638 
     98 H98       -58.0270  -28.8674   11.1984 H         1 UNK         0.0568 
     99 H99       -59.5622  -29.9626    9.8247 H         1 UNK         0.3450 
    100 H100      -60.9637  -30.7505   10.4998 H         1 UNK         0.3450 
    101 H101      -57.4659  -29.3149   13.9844 H         1 UNK         0.2987 
    102 H102      -58.1504  -26.1302   14.9248 H         1 UNK         0.0766 
    103 H103      -59.6965  -26.7884   16.7696 H         1 UNK         0.0798 
    104 H104      -60.1602  -28.2423   15.8829 H         1 UNK         0.0798 
    105 H105      -60.5614  -26.6529   15.2494 H         1 UNK         0.0798 
    106 H106      -57.7839  -28.5965   16.4344 H         1 UNK         0.3198 
    107 H107      -55.7840  -28.9395   17.4171 H         1 UNK         0.0843 
    108 H108      -54.3563  -29.6940   14.8017 H         1 UNK         0.0831 
    109 H109      -55.8131  -30.4550   15.4228 H         1 UNK         0.0831 
    110 H110      -54.3052  -30.6193   16.3027 H         1 UNK         0.0831 
    111 H111      -53.1496  -28.3073   16.4507 H         1 UNK         0.3133 
    112 H112      -52.5315  -25.4138   18.1630 H         1 UNK         0.0566 
    113 H113      -51.0518  -26.5533   19.8117 H         1 UNK         0.0814 
    114 H114      -52.7305  -26.6381   20.3156 H         1 UNK         0.0814 
    115 H115      -51.9592  -28.0539   19.6156 H         1 UNK         0.0814 
    116 H116      -50.9352  -27.7521   17.3965 H         1 UNK         0.3091 
    117 H117      -49.6488  -27.7219   15.6620 H         1 UNK         0.0702 
    118 H118      -51.5823  -28.2677   14.1475 H         1 UNK         0.0785 
    119 H119      -50.0808  -28.0811   13.2565 H         1 UNK         0.0785 
    120 H120      -51.2821  -26.7922   13.2404 H         1 UNK         0.0785 
    121 H121      -49.0399  -25.8065   13.6960 H         1 UNK         0.2998 
    122 H122      -47.0111  -23.6235   15.6535 H         1 UNK         0.0697 
    123 H123      -46.1601  -25.8596   13.7404 H         1 UNK         0.0825 
    124 H124      -45.5482  -25.6196   15.3706 H         1 UNK         0.0825 
    125 H125      -45.2192  -24.4203   14.1304 H         1 UNK         0.0825 
    126 H126      -47.3536  -23.8533   12.8314 H         1 UNK         0.3029 
    127 H127      -50.1709  -21.6448   12.6030 H         1 UNK         0.0897 
    128 H128      -48.5855  -20.4534   11.1077 H         1 UNK         0.0792 
    129 H129      -47.2233  -21.3099   11.8256 H         1 UNK         0.0792 
    130 H130      -48.1614  -20.1785   12.7906 H         1 UNK         0.0792 
    131 H131      -48.6571  -22.9446   10.5758 H         1 UNK         0.3086 
    132 H132      -50.6073  -25.9611   10.4861 H         1 UNK         0.0583 
    133 H133      -50.4787  -23.4917    8.6867 H         1 UNK         0.1020 
    134 H134      -50.3833  -25.0799    8.0057 H         1 UNK         0.1020 
    135 H135      -53.9040  -25.9773    7.4295 H         1 UNK         0.0694 
    136 H136      -52.2305  -26.0459    6.9611 H         1 UNK         0.0694 
    137 H137      -48.2963  -25.2445    9.0198 H         1 UNK         0.2989 
    138 H138      -45.8646  -26.3856   11.3614 H         1 UNK         0.1055 
    139 H139      -46.7490  -27.4832    8.6416 H         1 UNK         0.0806 
    140 H140      -46.5848  -28.4186   10.1186 H         1 UNK         0.0806 
    141 H141      -45.1635  -27.6991    9.3796 H         1 UNK         0.0806 
    142 H142      -45.7989  -25.1725    8.7289 H         1 UNK         0.3061 
    143 H143      -45.5176  -21.8123    9.9066 H         1 UNK         0.0734 
    144 H144      -43.4185  -21.9150    8.5881 H         1 UNK         0.0832 
    145 H145      -43.2131  -22.7579   10.1135 H         1 UNK         0.0832 
    146 H146      -43.4393  -23.6787    8.6335 H         1 UNK         0.0832 
    147 H147      -45.4107  -22.9415    7.2858 H         1 UNK         0.3156 
    148 H148      -48.9032  -23.0401    6.6387 H         1 UNK         0.0589 
    149 H149      -46.7638  -21.1134    5.5799 H         1 UNK         0.0808 
    150 H150      -48.2773  -21.5327    4.7760 H         1 UNK         0.0808 
    151 H151      -48.3022  -20.6390    6.2860 H         1 UNK         0.0808 
    152 H152      -46.7185  -23.5465    4.9217 H         1 UNK         0.3098 
    153 H153      -46.5392  -25.9014    4.2468 H         1 UNK         0.0720 
    154 H154      -44.1543  -26.4049    4.8924 H         1 UNK         0.0791 
    155 H155      -44.4660  -25.8208    6.5249 H         1 UNK         0.0791 
    156 H156      -44.5362  -24.7157    5.1584 H         1 UNK         0.0791 
    157 H157      -45.9343  -27.7937    6.4294 H         1 UNK         0.3028 
@<TRIPOS>BOND
     1    1    2 1    
     2    1   82 1    
     3    1   83 1    
     4    1   84 1    
     5    2    3 2    
     6    2    4 am   BACKBONE|DICT|INTERRES
     7    4    5 1    
     8    4   85 1    
     9    5    6 1    
    10    5   80 1    
    11    5   86 1    
    12    6    7 1    
    13    6   87 1    
    14    6   88 1    
    15    7    8 1    
    16    8    9 1    
    17    8   89 1    
    18    8   90 1    
    19    9   10 ar   
    20    9   14 ar   
    21   10   11 ar   
    22   10   91 1    
    23   11   12 ar   
    24   11   58 1    
    25   12   13 ar   
    26   12   92 1    
    27   13   14 ar   
    28   13   15 1    
    29   14   93 1    
    30   15   16 1    
    31   15   94 1    
    32   15   95 1    
    33   16   17 1    
    34   17   18 1    
    35   17   96 1    
    36   17   97 1    
    37   18   19 1    
    38   18   22 1    
    39   18   98 1    
    40   19   20 am   BACKBONE|DICT|INTERRES
    41   19   21 2    
    42   20   99 1    
    43   20  100 1    
    44   22   23 am   BACKBONE|DICT|INTERRES
    45   22  101 1    
    46   23   24 2    
    47   23   25 1    
    48   25   26 1    
    49   25   27 1    
    50   25  102 1    
    51   26  103 1    
    52   26  104 1    
    53   26  105 1    
    54   27   28 am   BACKBONE|DICT|INTERRES
    55   27  106 1    
    56   28   29 2    
    57   28   30 1    
    58   30   31 1    
    59   30   32 1    
    60   30  107 1    
    61   31  108 1    
    62   31  109 1    
    63   31  110 1    
    64   32   33 am   BACKBONE|DICT|INTERRES
    65   32  111 1    
    66   33   34 2    
    67   33   35 1    
    68   35   36 1    
    69   35   37 1    
    70   35  112 1    
    71   36  113 1    
    72   36  114 1    
    73   36  115 1    
    74   37   38 am   BACKBONE|DICT|INTERRES
    75   37  116 1    
    76   38   39 2    
    77   38   40 1    
    78   40   41 1    
    79   40   42 1    
    80   40  117 1    
    81   41  118 1    
    82   41  119 1    
    83   41  120 1    
    84   42   43 am   BACKBONE|DICT|INTERRES
    85   42  121 1    
    86   43   44 2    
    87   43   45 1    
    88   45   46 1    
    89   45   47 1    
    90   45  122 1    
    91   46  123 1    
    92   46  124 1    
    93   46  125 1    
    94   47   48 am   BACKBONE|DICT|INTERRES
    95   47  126 1    
    96   48   49 2    
    97   48   50 1    
    98   50   51 1    
    99   50   52 1    
   100   50  127 1    
   101   51  128 1    
   102   51  129 1    
   103   51  130 1    
   104   52   53 am   BACKBONE|DICT|INTERRES
   105   52  131 1    
   106   53   54 2    
   107   53   55 1    
   108   55   56 1    
   109   55   59 1    
   110   55  132 1    
   111   56   57 1    
   112   56  133 1    
   113   56  134 1    
   114   57   58 1    
   115   58  135 1    
   116   58  136 1    
   117   59   60 am   BACKBONE|DICT|INTERRES
   118   59  137 1    
   119   60   61 2    
   120   60   62 1    
   121   62   63 1    
   122   62   64 1    
   123   62  138 1    
   124   63  139 1    
   125   63  140 1    
   126   63  141 1    
   127   64   65 am   BACKBONE|DICT|INTERRES
   128   64  142 1    
   129   65   66 2    
   130   65   67 1    
   131   67   68 1    
   132   67   69 1    
   133   67  143 1    
   134   68  144 1    
   135   68  145 1    
   136   68  146 1    
   137   69   70 am   BACKBONE|DICT|INTERRES
   138   69  147 1    
   139   70   71 2    
   140   70   72 1    
   141   72   73 1    
   142   72   74 1    
   143   72  148 1    
   144   73  149 1    
   145   73  150 1    
   146   73  151 1    
   147   74   75 am   BACKBONE|DICT|INTERRES
   148   74  152 1    
   149   75   76 2    
   150   75   77 1    
   151   77   78 1    
   152   77   79 1    
   153   77  153 1    
   154   78  154 1    
   155   78  155 1    
   156   78  156 1    
   157   79   80 am   BACKBONE|DICT|INTERRES
   158   79  157 1    
   159   80   81 2    
@<TRIPOS>SUBSTRUCTURE
     1 UNK         1 GROUP             0       ****    0 ROOT    
