@<TRIPOS>MOLECULE
3R207
157   159    1
SMALL
USER_CHARGES


@<TRIPOS>ATOM
      1 CA        -47.9999  -32.1616    9.3528 C.3       0 UNK        -0.1975 
      2 C         -48.4486  -30.9978    8.4820 C.2       0 UNK         0.4852 
      3 O         -48.6728  -29.9048    9.0001 O.2       0 UNK        -0.5216 
      4 N         -48.5729  -31.2234    7.1655 N.am      1 UNK        -0.4461 
      5 CA        -48.9838  -30.2657    6.1285 C.3       1 UNK         0.0864 
      6 C6        -50.4050  -29.6800    6.3605 C.3       14 UNK        -0.0898 
      7 S7        -51.0628  -28.7999    4.9019 S.3       14 UNK        -0.2598 
      8 C8        -52.8537  -29.0825    5.0695 C.3       14 UNK         0.0286 
      9 C9        -53.4130  -28.5330    6.3760 C.ar      14 UNK        -0.0844 
     10 C10       -53.3464  -27.1632    6.6578 C.ar      14 UNK        -0.0881 
     11 C11       -53.8751  -26.6527    7.8482 C.ar      14 UNK        -0.0643 
     12 C12       -54.4834  -27.5297    8.7520 C.ar      14 UNK        -0.0930 
     13 C13       -54.5586  -28.8988    8.4826 C.ar      14 UNK        -0.0827 
     14 C14       -54.0196  -29.3961    7.2938 C.ar      14 UNK        -0.1249 
     15 C15       -55.2179  -29.8304    9.4869 C.3       14 UNK         0.0141 
     16 S16       -57.0183  -29.5724    9.5331 S.3       14 UNK        -0.2313 
     17 C17       -57.4302  -30.1553   11.2119 C.3       14 UNK        -0.0915 
     18 CA        -57.6765  -28.9732   12.1980 C.3       13 UNK         0.0968 
     19 C         -58.3867  -29.4121   13.5174 C.2       13 UNK         0.5732 
     20 N         -58.1784  -28.7276   14.6361 N.am      13 UNK        -0.7310 
     21 O         -59.1674  -30.3614   13.5268 O.2       13 UNK        -0.5035 
     22 N         -56.4804  -28.1263   12.3845 N.am      13 UNK        -0.4233 
     23 C         -55.3480  -28.4895   13.0026 C.2       13 UNK         0.4989 
     24 O         -55.1760  -29.5860   13.5413 O.2       13 UNK        -0.4996 
     25 CA        -54.2282  -27.4336   13.0387 C.3       12 UNK         0.0216 
     26 CB        -54.5485  -26.3253   14.0555 C.3       12 UNK        -0.1964 
     27 N         -52.9380  -28.0442   13.3731 N.am      12 UNK        -0.4276 
     28 C         -52.1797  -28.7174   12.4976 C.2       12 UNK         0.5020 
     29 O         -52.4063  -28.7499   11.2893 O.2       12 UNK        -0.5489 
     30 CA        -50.9714  -29.4761   13.0685 C.3       11 UNK         0.0294 
     31 CB        -49.9590  -29.8888   11.9853 C.3       11 UNK        -0.2019 
     32 N         -50.2968  -28.6762   14.0884 N.am      11 UNK        -0.4493 
     33 C         -49.8180  -29.1427   15.2488 C.2       11 UNK         0.4932 
     34 O         -49.8881  -30.3199   15.6018 O.2       11 UNK        -0.5029 
     35 CA        -49.1579  -28.1151   16.1816 C.3       10 UNK         0.0280 
     36 CB        -47.6581  -27.9861   15.8683 C.3       10 UNK        -0.1976 
     37 N         -49.7905  -26.8026   16.0596 N.am      10 UNK        -0.4242 
     38 C         -50.9335  -26.4418   16.6575 C.2       10 UNK         0.5072 
     39 O         -51.5420  -27.1593   17.4530 O.2       10 UNK        -0.5224 
     40 CA        -51.5139  -25.0674   16.2695 C.3       9 UNK         0.0343 
     41 CB        -52.3600  -24.4276   17.3903 C.3       9 UNK        -0.2003 
     42 N         -50.5122  -24.1309   15.7481 N.am      9 UNK        -0.4272 
     43 C         -49.4734  -23.5949   16.4087 C.2       9 UNK         0.4988 
     44 O         -49.2515  -23.7856   17.6050 O.2       9 UNK        -0.5108 
     45 CA        -48.4822  -22.7302   15.6053 C.3       8 UNK         0.0248 
     46 CB        -47.1106  -23.4242   15.5417 C.3       8 UNK        -0.2001 
     47 N         -48.9245  -22.4238   14.2410 N.am      8 UNK        -0.4140 
     48 C         -49.9003  -21.5602   13.9275 C.2       8 UNK         0.5028 
     49 O         -50.4980  -20.8739   14.7573 O.2       8 UNK        -0.5428 
     50 CA        -50.3038  -21.4678   12.4454 C.3       7 UNK         0.0264 
     51 CB        -49.3893  -20.4825   11.7006 C.3       7 UNK        -0.1988 
     52 N         -50.3148  -22.7581   11.7443 N.am      7 UNK        -0.4454 
     53 C         -51.0923  -23.8048   12.0664 C.2       7 UNK         0.5027 
     54 O         -51.8570  -23.8094   13.0315 O.2       7 UNK        -0.5083 
     55 CA        -50.9503  -25.0838   11.2085 C.3       6 UNK         0.0844 
     56 C56       -51.5704  -24.9426    9.7960 C.3       14 UNK        -0.0967 
     57 S57       -53.3802  -24.7197    9.8330 S.3       14 UNK        -0.2604 
     58 C58       -53.8388  -25.1509    8.1199 C.3       14 UNK         0.0134 
     59 N         -49.5535  -25.5134   11.1420 N.am      6 UNK        -0.4116 
     60 C         -48.8213  -25.8924   12.1980 C.2       5 UNK         0.5034 
     61 O         -49.2747  -26.0467   13.3336 O.2       5 UNK        -0.5045 
     62 CA        -47.3176  -26.0904   11.9571 C.3       5 UNK         0.0224 
     63 CB        -47.0224  -27.5152   11.4644 C.3       5 UNK        -0.1978 
     64 N         -46.7727  -25.1075   11.0144 N.am      5 UNK        -0.4737 
     65 C         -46.6462  -23.8003   11.2873 C.2       4 UNK         0.5027 
     66 O         -46.9576  -23.2967   12.3640 O.2       4 UNK        -0.5211 
     67 CA        -46.1239  -22.8946   10.1609 C.3       4 UNK         0.0297 
     68 CB        -44.5913  -22.9671   10.0748 C.3       4 UNK        -0.1993 
     69 N         -46.7080  -23.2174    8.8585 N.am      4 UNK        -0.4486 
     70 C         -48.0087  -23.0977    8.5554 C.2       3 UNK         0.4961 
     71 O         -48.8588  -22.6603    9.3286 O.2       3 UNK        -0.5105 
     72 CA        -48.4442  -23.6071    7.1723 C.3       3 UNK         0.0299 
     73 CB        -48.2858  -22.5042    6.1143 C.3       3 UNK        -0.1972 
     74 N         -47.7184  -24.8095    6.7502 N.am      3 UNK        -0.4305 
     75 C         -47.7518  -25.9794    7.4018 C.2       2 UNK         0.5006 
     76 O         -48.3875  -26.1709    8.4427 O.2       2 UNK        -0.5106 
     77 CA        -46.8975  -27.1081    6.8211 C.3       2 UNK         0.0296 
     78 CB        -45.5998  -27.2811    7.6276 C.3       2 UNK        -0.2002 
     79 N         -47.6822  -28.3318    6.8919 N.am      2 UNK        -0.4032 
     80 C         -47.9257  -29.1683    5.8797 C.2       1 UNK         0.5000 
     81 O         -47.3670  -29.1003    4.7825 O.2       1 UNK        -0.5238 
     82 H82       -48.7683  -32.3943   10.0895 H         1 UNK         0.0889 
     83 H83       -47.0864  -31.8989    9.8855 H         1 UNK         0.0889 
     84 H84       -47.8061  -33.0602    8.7675 H         1 UNK         0.0889 
     85 H85       -48.3418  -32.1427    6.8143 H         1 UNK         0.3028 
     86 H86       -49.0301  -30.8559    5.2115 H         1 UNK         0.0864 
     87 H87       -51.0914  -30.4903    6.6108 H         1 UNK         0.0720 
     88 H88       -50.4258  -28.9981    7.2127 H         1 UNK         0.0720 
     89 H89       -53.0535  -30.1513    4.9765 H         1 UNK         0.0814 
     90 H90       -53.3662  -28.6027    4.2347 H         1 UNK         0.0814 
     91 H91       -52.8853  -26.4957    5.9425 H         1 UNK         0.1469 
     92 H92       -54.9085  -27.1475    9.6688 H         1 UNK         0.1381 
     93 H93       -54.0773  -30.4550    7.0816 H         1 UNK         0.1206 
     94 H94       -55.0111  -30.8749    9.2496 H         1 UNK         0.0813 
     95 H95       -54.7845  -29.6500   10.4692 H         1 UNK         0.0813 
     96 H96       -58.3282  -30.7669   11.1112 H         1 UNK         0.0638 
     97 H97       -56.6524  -30.8242   11.5832 H         1 UNK         0.0638 
     98 H98       -58.4108  -28.3203   11.7251 H         1 UNK         0.0568 
     99 H99       -58.6500  -29.0103   15.4806 H         1 UNK         0.3450 
    100 H100      -57.5520  -27.9397   14.6464 H         1 UNK         0.3450 
    101 H101      -56.5483  -27.1965   11.9973 H         1 UNK         0.2987 
    102 H102      -54.1591  -26.9799   12.0474 H         1 UNK         0.0766 
    103 H103      -53.8570  -25.4910   13.9459 H         1 UNK         0.0798 
    104 H104      -54.4954  -26.6841   15.0841 H         1 UNK         0.0798 
    105 H105      -55.5487  -25.9181   13.9030 H         1 UNK         0.0798 
    106 H106      -52.7150  -28.1268   14.3541 H         1 UNK         0.3198 
    107 H107      -51.3747  -30.3851   13.5202 H         1 UNK         0.0843 
    108 H108      -49.1019  -30.4107   12.4105 H         1 UNK         0.0831 
    109 H109      -49.5905  -29.0222   11.4359 H         1 UNK         0.0831 
    110 H110      -50.4175  -30.5583   11.2567 H         1 UNK         0.0831 
    111 H111      -50.1569  -27.6936   13.8675 H         1 UNK         0.3133 
    112 H112      -49.2642  -28.4684   17.2095 H         1 UNK         0.0566 
    113 H113      -47.1716  -27.2822   16.5439 H         1 UNK         0.0814 
    114 H114      -47.1532  -28.9463   15.9819 H         1 UNK         0.0814 
    115 H115      -47.4837  -27.6455   14.8473 H         1 UNK         0.0814 
    116 H116      -49.4096  -26.1825   15.3529 H         1 UNK         0.3091 
    117 H117      -52.1810  -25.2635   15.4327 H         1 UNK         0.0702 
    118 H118      -53.2069  -25.0631   17.6516 H         1 UNK         0.0785 
    119 H119      -51.7794  -24.2723   18.2999 H         1 UNK         0.0785 
    120 H120      -52.7640  -23.4640   17.0798 H         1 UNK         0.0785 
    121 H121      -50.6185  -23.9050   14.7650 H         1 UNK         0.2998 
    122 H122      -48.3635  -21.7886   16.1452 H         1 UNK         0.0697 
    123 H123      -47.1649  -24.3724   15.0053 H         1 UNK         0.0825 
    124 H124      -46.7276  -23.6355   16.5410 H         1 UNK         0.0825 
    125 H125      -46.3723  -22.7980   15.0405 H         1 UNK         0.0825 
    126 H126      -48.4173  -22.8836   13.4873 H         1 UNK         0.3029 
    127 H127      -51.3224  -21.0755   12.4122 H         1 UNK         0.0897 
    128 H128      -48.3598  -20.8403   11.6622 H         1 UNK         0.0792 
    129 H129      -49.3798  -19.5083   12.1914 H         1 UNK         0.0792 
    130 H130      -49.7267  -20.3254   10.6759 H         1 UNK         0.0792 
    131 H131      -49.7190  -22.8234   10.9195 H         1 UNK         0.3086 
    132 H132      -51.4942  -25.8775   11.7246 H         1 UNK         0.0583 
    133 H133      -51.1224  -24.1128    9.2478 H         1 UNK         0.1020 
    134 H134      -51.3539  -25.8418    9.2153 H         1 UNK         0.1020 
    135 H135      -54.8309  -24.7456    7.9175 H         1 UNK         0.0694 
    136 H136      -53.1552  -24.6471    7.4345 H         1 UNK         0.0694 
    137 H137      -49.1038  -25.4790   10.2329 H         1 UNK         0.2989 
    138 H138      -46.8123  -25.9513   12.9155 H         1 UNK         0.1055 
    139 H139      -47.3545  -28.2540   12.1948 H         1 UNK         0.0806 
    140 H140      -47.5311  -27.7361   10.5250 H         1 UNK         0.0806 
    141 H141      -45.9543  -27.6713   11.3139 H         1 UNK         0.0806 
    142 H142      -46.5477  -25.4356   10.0868 H         1 UNK         0.3061 
    143 H143      -46.4029  -21.8676   10.4059 H         1 UNK         0.0734 
    144 H144      -44.2011  -22.2643    9.3384 H         1 UNK         0.0832 
    145 H145      -44.1363  -22.7136   11.0335 H         1 UNK         0.0832 
    146 H146      -44.2449  -23.9654    9.8044 H         1 UNK         0.0832 
    147 H147      -46.0853  -23.5834    8.1535 H         1 UNK         0.3156 
    148 H148      -49.5030  -23.8671    7.2363 H         1 UNK         0.0589 
    149 H149      -47.2422  -22.2175    5.9784 H         1 UNK         0.0808 
    150 H150      -48.6764  -22.8222    5.1474 H         1 UNK         0.0808 
    151 H151      -48.8349  -21.6067    6.4032 H         1 UNK         0.0808 
    152 H152      -47.1696  -24.7355    5.9051 H         1 UNK         0.3098 
    153 H153      -46.6485  -26.8710    5.7846 H         1 UNK         0.0720 
    154 H154      -44.9841  -28.0792    7.2124 H         1 UNK         0.0791 
    155 H155      -45.8008  -27.5272    8.6706 H         1 UNK         0.0791 
    156 H156      -45.0019  -26.3691    7.6126 H         1 UNK         0.0791 
    157 H157      -48.1769  -28.4925    7.7675 H         1 UNK         0.3028 
@<TRIPOS>BOND
     1    1    2 1    
     2    1   82 1    
     3    1   83 1    
     4    1   84 1    
     5    2    3 2    
     6    2    4 am   BACKBONE|DICT|INTERRES
     7    4    5 1    
     8    4   85 1    
     9    5    6 1    
    10    5   80 1    
    11    5   86 1    
    12    6    7 1    
    13    6   87 1    
    14    6   88 1    
    15    7    8 1    
    16    8    9 1    
    17    8   89 1    
    18    8   90 1    
    19    9   10 ar   
    20    9   14 ar   
    21   10   11 ar   
    22   10   91 1    
    23   11   12 ar   
    24   11   58 1    
    25   12   13 ar   
    26   12   92 1    
    27   13   14 ar   
    28   13   15 1    
    29   14   93 1    
    30   15   16 1    
    31   15   94 1    
    32   15   95 1    
    33   16   17 1    
    34   17   18 1    
    35   17   96 1    
    36   17   97 1    
    37   18   19 1    
    38   18   22 1    
    39   18   98 1    
    40   19   20 am   BACKBONE|DICT|INTERRES
    41   19   21 2    
    42   20   99 1    
    43   20  100 1    
    44   22   23 am   BACKBONE|DICT|INTERRES
    45   22  101 1    
    46   23   24 2    
    47   23   25 1    
    48   25   26 1    
    49   25   27 1    
    50   25  102 1    
    51   26  103 1    
    52   26  104 1    
    53   26  105 1    
    54   27   28 am   BACKBONE|DICT|INTERRES
    55   27  106 1    
    56   28   29 2    
    57   28   30 1    
    58   30   31 1    
    59   30   32 1    
    60   30  107 1    
    61   31  108 1    
    62   31  109 1    
    63   31  110 1    
    64   32   33 am   BACKBONE|DICT|INTERRES
    65   32  111 1    
    66   33   34 2    
    67   33   35 1    
    68   35   36 1    
    69   35   37 1    
    70   35  112 1    
    71   36  113 1    
    72   36  114 1    
    73   36  115 1    
    74   37   38 am   BACKBONE|DICT|INTERRES
    75   37  116 1    
    76   38   39 2    
    77   38   40 1    
    78   40   41 1    
    79   40   42 1    
    80   40  117 1    
    81   41  118 1    
    82   41  119 1    
    83   41  120 1    
    84   42   43 am   BACKBONE|DICT|INTERRES
    85   42  121 1    
    86   43   44 2    
    87   43   45 1    
    88   45   46 1    
    89   45   47 1    
    90   45  122 1    
    91   46  123 1    
    92   46  124 1    
    93   46  125 1    
    94   47   48 am   BACKBONE|DICT|INTERRES
    95   47  126 1    
    96   48   49 2    
    97   48   50 1    
    98   50   51 1    
    99   50   52 1    
   100   50  127 1    
   101   51  128 1    
   102   51  129 1    
   103   51  130 1    
   104   52   53 am   BACKBONE|DICT|INTERRES
   105   52  131 1    
   106   53   54 2    
   107   53   55 1    
   108   55   56 1    
   109   55   59 1    
   110   55  132 1    
   111   56   57 1    
   112   56  133 1    
   113   56  134 1    
   114   57   58 1    
   115   58  135 1    
   116   58  136 1    
   117   59   60 am   BACKBONE|DICT|INTERRES
   118   59  137 1    
   119   60   61 2    
   120   60   62 1    
   121   62   63 1    
   122   62   64 1    
   123   62  138 1    
   124   63  139 1    
   125   63  140 1    
   126   63  141 1    
   127   64   65 am   BACKBONE|DICT|INTERRES
   128   64  142 1    
   129   65   66 2    
   130   65   67 1    
   131   67   68 1    
   132   67   69 1    
   133   67  143 1    
   134   68  144 1    
   135   68  145 1    
   136   68  146 1    
   137   69   70 am   BACKBONE|DICT|INTERRES
   138   69  147 1    
   139   70   71 2    
   140   70   72 1    
   141   72   73 1    
   142   72   74 1    
   143   72  148 1    
   144   73  149 1    
   145   73  150 1    
   146   73  151 1    
   147   74   75 am   BACKBONE|DICT|INTERRES
   148   74  152 1    
   149   75   76 2    
   150   75   77 1    
   151   77   78 1    
   152   77   79 1    
   153   77  153 1    
   154   78  154 1    
   155   78  155 1    
   156   78  156 1    
   157   79   80 am   BACKBONE|DICT|INTERRES
   158   79  157 1    
   159   80   81 2    
@<TRIPOS>SUBSTRUCTURE
     1 UNK         1 GROUP             0       ****    0 ROOT    
