@<TRIPOS>MOLECULE
3R207
157   159    1
SMALL
USER_CHARGES


@<TRIPOS>ATOM
      1 CA        -51.6848  -24.4812    8.8013 C.3       0 UNK        -0.1975 
      2 C         -53.0090  -24.6532    8.0628 C.2       0 UNK         0.4852 
      3 O         -53.9058  -23.8344    8.2531 O.2       0 UNK        -0.5216 
      4 N         -53.2011  -25.6932    7.2393 N.am      1 UNK        -0.4461 
      5 CA        -52.2327  -26.7170    6.8255 C.3       1 UNK         0.0864 
      6 C6        -52.9495  -27.9187    6.1553 C.3       14 UNK        -0.0898 
      7 S7        -54.0990  -28.7938    7.2689 S.3       14 UNK        -0.2598 
      8 C8        -53.3857  -30.4698    7.3270 C.3       14 UNK         0.0286 
      9 C9        -52.2729  -30.5728    8.3588 C.ar      14 UNK        -0.0844 
     10 C10       -50.9528  -30.2586    8.0179 C.ar      14 UNK        -0.0881 
     11 C11       -49.9410  -30.3197    8.9811 C.ar      14 UNK        -0.0643 
     12 C12       -50.2459  -30.7475   10.2747 C.ar      14 UNK        -0.0930 
     13 C13       -51.5578  -31.0727   10.6230 C.ar      14 UNK        -0.0827 
     14 C14       -52.5698  -30.9785    9.6640 C.ar      14 UNK        -0.1249 
     15 C15       -51.8748  -31.4783   12.0507 C.3       14 UNK         0.0141 
     16 S16       -51.9426  -29.9997   13.1028 S.3       14 UNK        -0.2313 
     17 C17       -53.5713  -30.1646   13.8945 C.3       14 UNK        -0.0915 
     18 CA        -54.7718  -29.8966   12.9489 C.3       13 UNK         0.0968 
     19 C         -56.1066  -29.9763   13.7361 C.2       13 UNK         0.5732 
     20 N         -56.7608  -31.1301   13.7382 N.am      13 UNK        -0.7310 
     21 O         -56.5262  -29.0204   14.3852 O.2       13 UNK        -0.5035 
     22 N         -54.6367  -28.6370   12.2036 N.am      13 UNK        -0.4233 
     23 C         -55.3712  -28.3247   11.1265 C.2       13 UNK         0.4989 
     24 O         -56.2288  -29.0727   10.6519 O.2       13 UNK        -0.4996 
     25 CA        -55.0819  -26.9722   10.4428 C.3       12 UNK         0.0216 
     26 CB        -56.2334  -26.5000    9.5280 C.3       12 UNK        -0.1964 
     27 N         -54.6845  -25.9155   11.3790 N.am      12 UNK        -0.4276 
     28 C         -55.4146  -25.3833   12.3688 C.2       12 UNK         0.5020 
     29 O         -56.5844  -25.6794   12.6194 O.2       12 UNK        -0.5489 
     30 CA        -54.6840  -24.3545   13.2513 C.3       11 UNK         0.0294 
     31 CB        -55.5580  -23.1157   13.5136 C.3       11 UNK        -0.2019 
     32 N         -54.2569  -24.9237   14.5326 N.am      11 UNK        -0.4493 
     33 C         -53.4460  -25.9785   14.6861 C.2       11 UNK         0.4932 
     34 O         -52.9757  -26.6313   13.7506 O.2       11 UNK        -0.5029 
     35 CA        -53.0918  -26.3597   16.1267 C.3       10 UNK         0.0280 
     36 CB        -54.2110  -27.1942   16.7814 C.3       10 UNK        -0.1976 
     37 N         -51.8170  -27.0726   16.0980 N.am      10 UNK        -0.4242 
     38 C         -51.0361  -27.3423   17.1500 C.2       10 UNK         0.5072 
     39 O         -51.3676  -27.1653   18.3232 O.2       10 UNK        -0.5224 
     40 CA        -49.6139  -27.8309   16.8334 C.3       9 UNK         0.0343 
     41 CB        -49.6091  -29.1332   16.0163 C.3       9 UNK        -0.2003 
     42 N         -48.8823  -26.7818   16.1206 N.am      9 UNK        -0.4272 
     43 C         -48.3300  -25.7175   16.7257 C.2       9 UNK         0.4988 
     44 O         -48.2315  -25.6039   17.9484 O.2       9 UNK        -0.5108 
     45 CA        -47.8032  -24.5722   15.8387 C.3       8 UNK         0.0248 
     46 CB        -46.2921  -24.7278   15.6027 C.3       8 UNK        -0.2001 
     47 N         -48.4811  -24.4493   14.5471 N.am      8 UNK        -0.4140 
     48 C         -49.7900  -24.2257   14.3644 C.2       8 UNK         0.5028 
     49 O         -50.5832  -23.9982   15.2778 O.2       8 UNK        -0.5428 
     50 CA        -50.3118  -24.2928   12.9175 C.3       7 UNK         0.0264 
     51 CB        -50.3910  -22.8819   12.3148 C.3       7 UNK        -0.1988 
     52 N         -49.5338  -25.1678   12.0298 N.am      7 UNK        -0.4454 
     53 C         -49.3350  -26.4850   12.2138 C.2       7 UNK         0.5027 
     54 O         -49.7378  -27.1086   13.1956 O.2       7 UNK        -0.5083 
     55 CA        -48.5024  -27.2031   11.1331 C.3       6 UNK         0.0844 
     56 C56       -49.3331  -27.3678    9.8360 C.3       14 UNK        -0.0967 
     57 S57       -48.4082  -28.0626    8.4187 S.3       14 UNK        -0.2604 
     58 C58       -48.5266  -29.8678    8.6544 C.3       14 UNK         0.0134 
     59 N         -47.2489  -26.4786   10.9222 N.am      6 UNK        -0.4116 
     60 C         -46.2109  -26.4940   11.7714 C.2       5 UNK         0.5034 
     61 O         -46.1488  -27.2165   12.7659 O.2       5 UNK        -0.5045 
     62 CA        -45.0530  -25.5185   11.4856 C.3       5 UNK         0.0224 
     63 CB        -43.9554  -26.2155   10.6658 C.3       5 UNK        -0.1978 
     64 N         -45.4742  -24.2995   10.7886 N.am      5 UNK        -0.4737 
     65 C         -46.3387  -23.3956   11.2723 C.2       4 UNK         0.5027 
     66 O         -46.8033  -23.4425   12.4094 O.2       4 UNK        -0.5211 
     67 CA        -46.8146  -22.2917   10.3086 C.3       4 UNK         0.0297 
     68 CB        -46.0156  -21.0001   10.5395 C.3       4 UNK        -0.1993 
     69 N         -46.7419  -22.6669    8.8907 N.am      4 UNK        -0.4486 
     70 C         -47.3840  -23.7023    8.3323 C.2       3 UNK         0.4961 
     71 O         -48.1487  -24.4496    8.9491 O.2       3 UNK        -0.5105 
     72 CA        -47.0527  -23.9841    6.8635 C.3       3 UNK         0.0299 
     73 CB        -45.5795  -24.4205    6.7119 C.3       3 UNK        -0.1972 
     74 N         -47.9305  -25.0359    6.3570 N.am      3 UNK        -0.4305 
     75 C         -48.1487  -25.2986    5.0629 C.2       2 UNK         0.5006 
     76 O         -47.6755  -24.6321    4.1410 O.2       2 UNK        -0.5106 
     77 CA        -49.0165  -26.5210    4.7230 C.3       2 UNK         0.0296 
     78 CB        -48.1325  -27.7646    4.5297 C.3       2 UNK        -0.2002 
     79 N         -50.0474  -26.8149    5.7208 N.am      2 UNK        -0.4032 
     80 C         -51.1982  -26.1389    5.8346 C.2       1 UNK         0.5000 
     81 O         -51.4742  -25.1417    5.1624 O.2       1 UNK        -0.5238 
     82 H82       -50.8224  -24.7026    8.1767 H         1 UNK         0.0889 
     83 H83       -51.6620  -25.1179    9.6843 H         1 UNK         0.0889 
     84 H84       -51.5768  -23.4484    9.1301 H         1 UNK         0.0889 
     85 H85       -54.0948  -25.7608    6.7751 H         1 UNK         0.3028 
     86 H86       -51.7044  -27.0747    7.7118 H         1 UNK         0.0864 
     87 H87       -52.2260  -28.6346    5.7631 H         1 UNK         0.0720 
     88 H88       -53.5235  -27.5829    5.2891 H         1 UNK         0.0720 
     89 H89       -53.0262  -30.7661    6.3405 H         1 UNK         0.0814 
     90 H90       -54.1817  -31.1734    7.5759 H         1 UNK         0.0814 
     91 H91       -50.7138  -29.9378    7.0144 H         1 UNK         0.1469 
     92 H92       -49.4702  -30.7882   11.0273 H         1 UNK         0.1381 
     93 H93       -53.5912  -31.2082    9.9359 H         1 UNK         0.1206 
     94 H94       -52.8119  -32.0343   12.0930 H         1 UNK         0.0813 
     95 H95       -51.1035  -32.1509   12.4284 H         1 UNK         0.0813 
     96 H96       -53.6428  -31.1606   14.3351 H         1 UNK         0.0638 
     97 H97       -53.5793  -29.4643   14.7273 H         1 UNK         0.0638 
     98 H98       -54.7822  -30.6955   12.2055 H         1 UNK         0.0568 
     99 H99       -56.4219  -31.9254   13.2200 H         1 UNK         0.3450 
    100 H100      -57.6198  -31.2027   14.2604 H         1 UNK         0.3450 
    101 H101      -53.9747  -27.9661   12.5794 H         1 UNK         0.2987 
    102 H102      -54.2127  -27.1466    9.8075 H         1 UNK         0.0766 
    103 H103      -56.4194  -27.2208    8.7310 H         1 UNK         0.0798 
    104 H104      -57.1659  -26.3791   10.0798 H         1 UNK         0.0798 
    105 H105      -55.9989  -25.5481    9.0523 H         1 UNK         0.0798 
    106 H106      -53.7163  -25.6350   11.3222 H         1 UNK         0.3198 
    107 H107      -53.7880  -24.0177   12.7257 H         1 UNK         0.0843 
    108 H108      -55.0072  -22.3466   14.0554 H         1 UNK         0.0831 
    109 H109      -56.4488  -23.3632   14.0926 H         1 UNK         0.0831 
    110 H110      -55.8939  -22.6716   12.5755 H         1 UNK         0.0831 
    111 H111      -54.6117  -24.4689   15.3613 H         1 UNK         0.3133 
    112 H112      -52.9477  -25.4395   16.6967 H         1 UNK         0.0566 
    113 H113      -54.3924  -28.1275   16.2532 H         1 UNK         0.0814 
    114 H114      -53.9804  -27.4381   17.8180 H         1 UNK         0.0814 
    115 H115      -55.1529  -26.6445   16.7871 H         1 UNK         0.0814 
    116 H116      -51.4694  -27.2420   15.1587 H         1 UNK         0.3091 
    117 H117      -49.1122  -28.0381   17.7812 H         1 UNK         0.0702 
    118 H118      -48.5972  -29.5222   15.9040 H         1 UNK         0.0785 
    119 H119      -50.0183  -28.9904   15.0178 H         1 UNK         0.0785 
    120 H120      -50.2029  -29.9059   16.5062 H         1 UNK         0.0785 
    121 H121      -48.9549  -26.7878   15.1084 H         1 UNK         0.2998 
    122 H122      -47.9707  -23.6391   16.3802 H         1 UNK         0.0697 
    123 H123      -46.0641  -25.6358   15.0435 H         1 UNK         0.0825 
    124 H124      -45.7520  -24.7828   16.5489 H         1 UNK         0.0825 
    125 H125      -45.8867  -23.8813   15.0479 H         1 UNK         0.0825 
    126 H126      -47.8932  -24.4925   13.7206 H         1 UNK         0.3029 
    127 H127      -51.3219  -24.7008   12.9586 H         1 UNK         0.0897 
    128 H128      -49.4144  -22.3983   12.2960 H         1 UNK         0.0792 
    129 H129      -51.0531  -22.2468   12.9051 H         1 UNK         0.0792 
    130 H130      -50.7817  -22.8972   11.2986 H         1 UNK         0.0792 
    131 H131      -49.1220  -24.7327   11.2148 H         1 UNK         0.3086 
    132 H132      -48.2634  -28.2026   11.5030 H         1 UNK         0.0583 
    133 H133      -50.2314  -27.9539   10.0324 H         1 UNK         0.1020 
    134 H134      -49.7015  -26.4001    9.5038 H         1 UNK         0.1020 
    135 H135      -48.1844  -30.3682    7.7475 H         1 UNK         0.0694 
    136 H136      -47.8346  -30.1613    9.4454 H         1 UNK         0.0694 
    137 H137      -47.2350  -25.8417   10.1344 H         1 UNK         0.2989 
    138 H138      -44.6329  -25.2229   12.4498 H         1 UNK         0.1055 
    139 H139      -43.6019  -27.1145   11.1729 H         1 UNK         0.0806 
    140 H140      -43.0915  -25.5658   10.5242 H         1 UNK         0.0806 
    141 H141      -44.3156  -26.5175    9.6814 H         1 UNK         0.0806 
    142 H142      -45.1334  -24.1712    9.8474 H         1 UNK         0.3061 
    143 H143      -47.8625  -22.0903   10.5365 H         1 UNK         0.0734 
    144 H144      -44.9592  -21.1291   10.3007 H         1 UNK         0.0832 
    145 H145      -46.4010  -20.1795    9.9340 H         1 UNK         0.0832 
    146 H146      -46.0771  -20.6857   11.5825 H         1 UNK         0.0832 
    147 H147      -46.1345  -22.1068    8.3092 H         1 UNK         0.3156 
    148 H148      -47.2286  -23.0672    6.2972 H         1 UNK         0.0589 
    149 H149      -45.3727  -25.3338    7.2716 H         1 UNK         0.0808 
    150 H150      -45.3235  -24.6079    5.6690 H         1 UNK         0.0808 
    151 H151      -44.8920  -23.6532    7.0690 H         1 UNK         0.0808 
    152 H152      -48.3721  -25.5964    7.0750 H         1 UNK         0.3098 
    153 H153      -49.5120  -26.3137    3.7716 H         1 UNK         0.0720 
    154 H154      -48.7218  -28.6277    4.2191 H         1 UNK         0.0791 
    155 H155      -47.6005  -28.0314    5.4437 H         1 UNK         0.0791 
    156 H156      -47.3820  -27.5922    3.7569 H         1 UNK         0.0791 
    157 H157      -49.8706  -27.6051    6.3254 H         1 UNK         0.3028 
@<TRIPOS>BOND
     1    1    2 1    
     2    1   82 1    
     3    1   83 1    
     4    1   84 1    
     5    2    3 2    
     6    2    4 am   BACKBONE|DICT|INTERRES
     7    4    5 1    
     8    4   85 1    
     9    5    6 1    
    10    5   80 1    
    11    5   86 1    
    12    6    7 1    
    13    6   87 1    
    14    6   88 1    
    15    7    8 1    
    16    8    9 1    
    17    8   89 1    
    18    8   90 1    
    19    9   10 ar   
    20    9   14 ar   
    21   10   11 ar   
    22   10   91 1    
    23   11   12 ar   
    24   11   58 1    
    25   12   13 ar   
    26   12   92 1    
    27   13   14 ar   
    28   13   15 1    
    29   14   93 1    
    30   15   16 1    
    31   15   94 1    
    32   15   95 1    
    33   16   17 1    
    34   17   18 1    
    35   17   96 1    
    36   17   97 1    
    37   18   19 1    
    38   18   22 1    
    39   18   98 1    
    40   19   20 am   BACKBONE|DICT|INTERRES
    41   19   21 2    
    42   20   99 1    
    43   20  100 1    
    44   22   23 am   BACKBONE|DICT|INTERRES
    45   22  101 1    
    46   23   24 2    
    47   23   25 1    
    48   25   26 1    
    49   25   27 1    
    50   25  102 1    
    51   26  103 1    
    52   26  104 1    
    53   26  105 1    
    54   27   28 am   BACKBONE|DICT|INTERRES
    55   27  106 1    
    56   28   29 2    
    57   28   30 1    
    58   30   31 1    
    59   30   32 1    
    60   30  107 1    
    61   31  108 1    
    62   31  109 1    
    63   31  110 1    
    64   32   33 am   BACKBONE|DICT|INTERRES
    65   32  111 1    
    66   33   34 2    
    67   33   35 1    
    68   35   36 1    
    69   35   37 1    
    70   35  112 1    
    71   36  113 1    
    72   36  114 1    
    73   36  115 1    
    74   37   38 am   BACKBONE|DICT|INTERRES
    75   37  116 1    
    76   38   39 2    
    77   38   40 1    
    78   40   41 1    
    79   40   42 1    
    80   40  117 1    
    81   41  118 1    
    82   41  119 1    
    83   41  120 1    
    84   42   43 am   BACKBONE|DICT|INTERRES
    85   42  121 1    
    86   43   44 2    
    87   43   45 1    
    88   45   46 1    
    89   45   47 1    
    90   45  122 1    
    91   46  123 1    
    92   46  124 1    
    93   46  125 1    
    94   47   48 am   BACKBONE|DICT|INTERRES
    95   47  126 1    
    96   48   49 2    
    97   48   50 1    
    98   50   51 1    
    99   50   52 1    
   100   50  127 1    
   101   51  128 1    
   102   51  129 1    
   103   51  130 1    
   104   52   53 am   BACKBONE|DICT|INTERRES
   105   52  131 1    
   106   53   54 2    
   107   53   55 1    
   108   55   56 1    
   109   55   59 1    
   110   55  132 1    
   111   56   57 1    
   112   56  133 1    
   113   56  134 1    
   114   57   58 1    
   115   58  135 1    
   116   58  136 1    
   117   59   60 am   BACKBONE|DICT|INTERRES
   118   59  137 1    
   119   60   61 2    
   120   60   62 1    
   121   62   63 1    
   122   62   64 1    
   123   62  138 1    
   124   63  139 1    
   125   63  140 1    
   126   63  141 1    
   127   64   65 am   BACKBONE|DICT|INTERRES
   128   64  142 1    
   129   65   66 2    
   130   65   67 1    
   131   67   68 1    
   132   67   69 1    
   133   67  143 1    
   134   68  144 1    
   135   68  145 1    
   136   68  146 1    
   137   69   70 am   BACKBONE|DICT|INTERRES
   138   69  147 1    
   139   70   71 2    
   140   70   72 1    
   141   72   73 1    
   142   72   74 1    
   143   72  148 1    
   144   73  149 1    
   145   73  150 1    
   146   73  151 1    
   147   74   75 am   BACKBONE|DICT|INTERRES
   148   74  152 1    
   149   75   76 2    
   150   75   77 1    
   151   77   78 1    
   152   77   79 1    
   153   77  153 1    
   154   78  154 1    
   155   78  155 1    
   156   78  156 1    
   157   79   80 am   BACKBONE|DICT|INTERRES
   158   79  157 1    
   159   80   81 2    
@<TRIPOS>SUBSTRUCTURE
     1 UNK         1 GROUP             0       ****    0 ROOT    
