@<TRIPOS>MOLECULE
3R207
157   159    1
SMALL
USER_CHARGES


@<TRIPOS>ATOM
      1 CA        -46.7717  -26.3436    4.1767 C.3       0 UNK        -0.1975 
      2 C         -48.1934  -25.8342    4.3580 C.2       0 UNK         0.4852 
      3 O         -48.4588  -24.6593    4.1001 O.2       0 UNK        -0.5216 
      4 N         -49.1006  -26.6992    4.8320 N.am      1 UNK        -0.4461 
      5 CA        -50.5460  -26.5025    5.0550 C.3       1 UNK         0.0864 
      6 C6        -51.2498  -27.8775    5.2432 C.3       14 UNK        -0.0898 
      7 S7        -50.4700  -28.9285    6.5242 S.3       14 UNK        -0.2598 
      8 C8        -51.8086  -29.0787    7.7594 C.3       14 UNK         0.0286 
      9 C9        -51.4049  -29.6834    9.1086 C.ar      14 UNK        -0.0844 
     10 C10       -50.1140  -30.1574    9.3861 C.ar      14 UNK        -0.0881 
     11 C11       -49.7938  -30.6761   10.6445 C.ar      14 UNK        -0.0643 
     12 C12       -50.7763  -30.7299   11.6365 C.ar      14 UNK        -0.0930 
     13 C13       -52.0701  -30.2681   11.3767 C.ar      14 UNK        -0.0827 
     14 C14       -52.3733  -29.7451   10.1155 C.ar      14 UNK        -0.1249 
     15 C15       -53.1267  -30.2879   12.4713 C.3       14 UNK         0.0141 
     16 S16       -54.5839  -31.2790   12.0232 S.3       14 UNK        -0.2313 
     17 C17       -55.7104  -30.8535   13.3954 C.3       14 UNK        -0.0915 
     18 CA        -56.7638  -29.7877   12.9857 C.3       13 UNK         0.0968 
     19 C         -57.8778  -29.6387   14.0568 C.2       13 UNK         0.5732 
     20 N         -58.6938  -30.6682   14.2422 N.am      13 UNK        -0.7310 
     21 O         -58.0220  -28.6150   14.7221 O.2       13 UNK        -0.5035 
     22 N         -56.1225  -28.4986   12.6888 N.am      13 UNK        -0.4233 
     23 C         -56.1524  -27.8737   11.5049 C.2       13 UNK         0.4989 
     24 O         -56.7556  -28.3094   10.5224 O.2       13 UNK        -0.4996 
     25 CA        -55.3413  -26.5682   11.3573 C.3       12 UNK         0.0216 
     26 CB        -56.0106  -25.5568   10.4023 C.3       12 UNK        -0.1964 
     27 N         -54.9663  -25.9258   12.6218 N.am      12 UNK        -0.4276 
     28 C         -55.7707  -25.4046   13.5570 C.2       12 UNK         0.5020 
     29 O         -56.9988  -25.3644   13.4609 O.2       12 UNK        -0.5489 
     30 CA        -55.0734  -24.8440   14.8163 C.3       11 UNK         0.0294 
     31 CB        -56.0638  -24.5834   15.9706 C.3       11 UNK        -0.2019 
     32 N         -53.9464  -25.6551   15.3046 N.am      11 UNK        -0.4493 
     33 C         -53.9492  -26.9649   15.6026 C.2       11 UNK         0.4932 
     34 O         -54.9049  -27.7100   15.3842 O.2       11 UNK        -0.5029 
     35 CA        -52.6851  -27.5539   16.2603 C.3       10 UNK         0.0280 
     36 CB        -52.3580  -28.9566   15.7255 C.3       10 UNK        -0.1976 
     37 N         -51.5024  -26.7057   16.0983 N.am      10 UNK        -0.4242 
     38 C         -51.0455  -25.8389   17.0111 C.2       10 UNK         0.5072 
     39 O         -51.5827  -25.6401   18.1014 O.2       10 UNK        -0.5224 
     40 CA        -49.7843  -25.0400   16.6380 C.3       9 UNK         0.0343 
     41 CB        -48.5197  -25.8756   16.8926 C.3       9 UNK        -0.2003 
     42 N         -49.7819  -24.5603   15.2534 N.am      9 UNK        -0.4272 
     43 C         -50.6815  -23.7108   14.7351 C.2       9 UNK         0.4988 
     44 O         -51.6325  -23.2447   15.3636 O.2       9 UNK        -0.5108 
     45 CA        -50.5096  -23.3451   13.2527 C.3       8 UNK         0.0248 
     46 CB        -49.3888  -22.3100   13.0620 C.3       8 UNK        -0.2001 
     47 N         -50.2448  -24.5194   12.4224 N.am      8 UNK        -0.4140 
     48 C         -51.1342  -25.4948   12.1938 C.2       8 UNK         0.5028 
     49 O         -52.2780  -25.5016   12.6429 O.2       8 UNK        -0.5428 
     50 CA        -50.6550  -26.6790   11.3450 C.3       7 UNK         0.0264 
     51 CB        -50.5510  -26.2660    9.8711 C.3       7 UNK        -0.1988 
     52 N         -49.3687  -27.2115   11.7856 N.am      7 UNK        -0.4454 
     53 C         -49.0903  -27.6721   13.0138 C.2       7 UNK         0.5027 
     54 O         -49.9090  -27.7460   13.9290 O.2       7 UNK        -0.5083 
     55 CA        -47.6162  -28.0293   13.2860 C.3       6 UNK         0.0844 
     56 C56       -47.3047  -29.5072   12.9381 C.3       14 UNK        -0.0967 
     57 S57       -47.1796  -29.8616   11.1473 S.3       14 UNK        -0.2604 
     58 C58       -48.3906  -31.2026   10.9110 C.3       14 UNK         0.0134 
     59 N         -46.6983  -27.0788   12.6444 N.am      6 UNK        -0.4116 
     60 C         -46.6782  -25.7567   12.8660 C.2       5 UNK         0.5034 
     61 O         -47.3588  -25.1998   13.7284 O.2       5 UNK        -0.5045 
     62 CA        -45.8299  -24.8900   11.9219 C.3       5 UNK         0.0224 
     63 CB        -44.3538  -24.8521   12.3626 C.3       5 UNK        -0.1978 
     64 N         -45.9802  -25.2347   10.4979 N.am      5 UNK        -0.4737 
     65 C         -45.5392  -26.3193    9.8408 C.2       4 UNK         0.5027 
     66 O         -44.9316  -27.2408   10.3844 O.2       4 UNK        -0.5211 
     67 CA        -45.8550  -26.4222    8.3345 C.3       4 UNK         0.0297 
     68 CB        -46.8956  -27.5269    8.0786 C.3       4 UNK        -0.1993 
     69 N         -46.3398  -25.1746    7.7377 N.am      4 UNK        -0.4486 
     70 C         -45.6146  -24.0642    7.5396 C.2       3 UNK         0.4961 
     71 O         -44.4152  -23.9823    7.8037 O.2       3 UNK        -0.5105 
     72 CA        -46.3403  -22.8344    6.9534 C.3       3 UNK         0.0299 
     73 CB        -45.7150  -22.4268    5.6082 C.3       3 UNK        -0.1972 
     74 N         -47.7845  -23.0129    6.7612 N.am      3 UNK        -0.4305 
     75 C         -48.7046  -23.0965    7.7366 C.2       2 UNK         0.5006 
     76 O         -48.4352  -23.0394    8.9365 O.2       2 UNK        -0.5106 
     77 CA        -50.1484  -23.3743    7.2961 C.3       2 UNK         0.0296 
     78 CB        -50.8384  -22.0912    6.8053 C.3       2 UNK        -0.2002 
     79 N         -50.1455  -24.3828    6.2372 N.am      2 UNK        -0.4032 
     80 C         -50.9089  -25.4746    6.1623 C.2       1 UNK         0.5000 
     81 O         -51.8610  -25.6805    6.9153 O.2       1 UNK        -0.5238 
     82 H82       -46.6885  -27.4082    4.3945 H         1 UNK         0.0889 
     83 H83       -46.0904  -25.8079    4.8365 H         1 UNK         0.0889 
     84 H84       -46.4462  -26.1831    3.1493 H         1 UNK         0.0889 
     85 H85       -48.7938  -27.6354    5.0581 H         1 UNK         0.3028 
     86 H86       -50.9436  -26.0684    4.1353 H         1 UNK         0.0864 
     87 H87       -51.2010  -28.4314    4.3045 H         1 UNK         0.0720 
     88 H88       -52.3162  -27.7587    5.4442 H         1 UNK         0.0720 
     89 H89       -52.6094  -29.6812    7.3286 H         1 UNK         0.0814 
     90 H90       -52.2290  -28.0891    7.9411 H         1 UNK         0.0814 
     91 H91       -49.3391  -30.1250    8.6345 H         1 UNK         0.1469 
     92 H92       -50.5310  -31.1271   12.6118 H         1 UNK         0.1381 
     93 H93       -53.3718  -29.3769    9.9213 H         1 UNK         0.1206 
     94 H94       -53.4282  -29.2619   12.6850 H         1 UNK         0.0813 
     95 H95       -52.7147  -30.6997   13.3927 H         1 UNK         0.0813 
     96 H96       -55.1362  -30.5165   14.2606 H         1 UNK         0.0638 
     97 H97       -56.1971  -31.7813   13.7004 H         1 UNK         0.0638 
     98 H98       -57.2731  -30.1532   12.0923 H         1 UNK         0.0568 
     99 H99       -59.4244  -30.5932   14.9326 H         1 UNK         0.3450 
    100 H100      -58.5984  -31.5151   13.7039 H         1 UNK         0.3450 
    101 H101      -55.6911  -28.0426   13.4863 H         1 UNK         0.2987 
    102 H102      -54.3973  -26.8670   10.8988 H         1 UNK         0.0766 
    103 H103      -55.4044  -24.6580   10.2894 H         1 UNK         0.0798 
    104 H104      -56.9963  -25.2557   10.7582 H         1 UNK         0.0798 
    105 H105      -56.1411  -25.9826    9.4067 H         1 UNK         0.0798 
    106 H106      -53.9574  -25.8500   12.7795 H         1 UNK         0.3198 
    107 H107      -54.6478  -23.8836   14.5207 H         1 UNK         0.0843 
    108 H108      -56.5551  -25.5030   16.2911 H         1 UNK         0.0831 
    109 H109      -56.8448  -23.8844   15.6686 H         1 UNK         0.0831 
    110 H110      -55.5614  -24.1509   16.8358 H         1 UNK         0.0831 
    111 H111      -53.0878  -25.1437   15.4658 H         1 UNK         0.3133 
    112 H112      -52.9168  -27.6605   17.3217 H         1 UNK         0.0566 
    113 H113      -52.0980  -28.9156   14.6702 H         1 UNK         0.0814 
    114 H114      -51.5135  -29.3950   16.2572 H         1 UNK         0.0814 
    115 H115      -53.2008  -29.6394   15.8384 H         1 UNK         0.0814 
    116 H116      -50.9721  -26.8400   15.2394 H         1 UNK         0.3091 
    117 H117      -49.7468  -24.1621   17.2862 H         1 UNK         0.0702 
    118 H118      -47.6159  -25.2990   16.6940 H         1 UNK         0.0785 
    119 H119      -48.4928  -26.7660   16.2641 H         1 UNK         0.0785 
    120 H120      -48.4727  -26.2068   17.9308 H         1 UNK         0.0785 
    121 H121      -49.0136  -24.8726   14.6650 H         1 UNK         0.2998 
    122 H122      -51.4451  -22.8976   12.9097 H         1 UNK         0.0697 
    123 H123      -48.4194  -22.6933   13.3820 H         1 UNK         0.0825 
    124 H124      -49.5897  -21.4091   13.6433 H         1 UNK         0.0825 
    125 H125      -49.3013  -22.0082   12.0177 H         1 UNK         0.0825 
    126 H126      -49.3153  -24.6107   12.0417 H         1 UNK         0.3029 
    127 H127      -51.3943  -27.4750   11.4390 H         1 UNK         0.0897 
    128 H128      -51.5125  -25.9004    9.5094 H         1 UNK         0.0792 
    129 H129      -50.2645  -27.1038    9.2378 H         1 UNK         0.0792 
    130 H130      -49.8189  -25.4727    9.7193 H         1 UNK         0.0792 
    131 H131      -48.6264  -27.2322   11.1034 H         1 UNK         0.3086 
    132 H132      -47.4684  -27.9181   14.3619 H         1 UNK         0.0583 
    133 H133      -46.3493  -29.7822   13.3875 H         1 UNK         0.1020 
    134 H134      -48.0385  -30.1687   13.4028 H         1 UNK         0.1020 
    135 H135      -48.0732  -31.8045   10.0582 H         1 UNK         0.0694 
    136 H136      -48.3784  -31.8749   11.7702 H         1 UNK         0.0694 
    137 H137      -46.1022  -27.4422   11.9049 H         1 UNK         0.2989 
    138 H138      -46.2155  -23.8728   12.0141 H         1 UNK         0.1055 
    139 H139      -44.2641  -24.4708   13.3807 H         1 UNK         0.0806 
    140 H140      -43.7654  -24.1982   11.7187 H         1 UNK         0.0806 
    141 H141      -43.8925  -25.8398   12.3484 H         1 UNK         0.0806 
    142 H142      -46.4939  -24.5560    9.9503 H         1 UNK         0.3061 
    143 H143      -44.9273  -26.6999    7.8296 H         1 UNK         0.0734 
    144 H144      -47.0774  -27.6667    7.0137 H         1 UNK         0.0832 
    145 H145      -46.5504  -28.4853    8.4688 H         1 UNK         0.0832 
    146 H146      -47.8505  -27.3081    8.5569 H         1 UNK         0.0832 
    147 H147      -47.3202  -25.1360    7.5064 H         1 UNK         0.3156 
    148 H148      -46.1946  -22.0139    7.6591 H         1 UNK         0.0589 
    149 H149      -45.8417  -23.2023    4.8517 H         1 UNK         0.0808 
    150 H150      -46.1607  -21.5086    5.2251 H         1 UNK         0.0808 
    151 H151      -44.6444  -22.2433    5.7104 H         1 UNK         0.0808 
    152 H152      -48.0887  -23.0622    5.7983 H         1 UNK         0.3098 
    153 H153      -50.6926  -23.7492    8.1652 H         1 UNK         0.0720 
    154 H154      -51.8795  -22.2817    6.5436 H         1 UNK         0.0791 
    155 H155      -50.3450  -21.6731    5.9271 H         1 UNK         0.0791 
    156 H156      -50.8342  -21.3246    7.5813 H         1 UNK         0.0791 
    157 H157      -49.4318  -24.3041    5.5147 H         1 UNK         0.3028 
@<TRIPOS>BOND
     1    1    2 1    
     2    1   82 1    
     3    1   83 1    
     4    1   84 1    
     5    2    3 2    
     6    2    4 am   BACKBONE|DICT|INTERRES
     7    4    5 1    
     8    4   85 1    
     9    5    6 1    
    10    5   80 1    
    11    5   86 1    
    12    6    7 1    
    13    6   87 1    
    14    6   88 1    
    15    7    8 1    
    16    8    9 1    
    17    8   89 1    
    18    8   90 1    
    19    9   10 ar   
    20    9   14 ar   
    21   10   11 ar   
    22   10   91 1    
    23   11   12 ar   
    24   11   58 1    
    25   12   13 ar   
    26   12   92 1    
    27   13   14 ar   
    28   13   15 1    
    29   14   93 1    
    30   15   16 1    
    31   15   94 1    
    32   15   95 1    
    33   16   17 1    
    34   17   18 1    
    35   17   96 1    
    36   17   97 1    
    37   18   19 1    
    38   18   22 1    
    39   18   98 1    
    40   19   20 am   BACKBONE|DICT|INTERRES
    41   19   21 2    
    42   20   99 1    
    43   20  100 1    
    44   22   23 am   BACKBONE|DICT|INTERRES
    45   22  101 1    
    46   23   24 2    
    47   23   25 1    
    48   25   26 1    
    49   25   27 1    
    50   25  102 1    
    51   26  103 1    
    52   26  104 1    
    53   26  105 1    
    54   27   28 am   BACKBONE|DICT|INTERRES
    55   27  106 1    
    56   28   29 2    
    57   28   30 1    
    58   30   31 1    
    59   30   32 1    
    60   30  107 1    
    61   31  108 1    
    62   31  109 1    
    63   31  110 1    
    64   32   33 am   BACKBONE|DICT|INTERRES
    65   32  111 1    
    66   33   34 2    
    67   33   35 1    
    68   35   36 1    
    69   35   37 1    
    70   35  112 1    
    71   36  113 1    
    72   36  114 1    
    73   36  115 1    
    74   37   38 am   BACKBONE|DICT|INTERRES
    75   37  116 1    
    76   38   39 2    
    77   38   40 1    
    78   40   41 1    
    79   40   42 1    
    80   40  117 1    
    81   41  118 1    
    82   41  119 1    
    83   41  120 1    
    84   42   43 am   BACKBONE|DICT|INTERRES
    85   42  121 1    
    86   43   44 2    
    87   43   45 1    
    88   45   46 1    
    89   45   47 1    
    90   45  122 1    
    91   46  123 1    
    92   46  124 1    
    93   46  125 1    
    94   47   48 am   BACKBONE|DICT|INTERRES
    95   47  126 1    
    96   48   49 2    
    97   48   50 1    
    98   50   51 1    
    99   50   52 1    
   100   50  127 1    
   101   51  128 1    
   102   51  129 1    
   103   51  130 1    
   104   52   53 am   BACKBONE|DICT|INTERRES
   105   52  131 1    
   106   53   54 2    
   107   53   55 1    
   108   55   56 1    
   109   55   59 1    
   110   55  132 1    
   111   56   57 1    
   112   56  133 1    
   113   56  134 1    
   114   57   58 1    
   115   58  135 1    
   116   58  136 1    
   117   59   60 am   BACKBONE|DICT|INTERRES
   118   59  137 1    
   119   60   61 2    
   120   60   62 1    
   121   62   63 1    
   122   62   64 1    
   123   62  138 1    
   124   63  139 1    
   125   63  140 1    
   126   63  141 1    
   127   64   65 am   BACKBONE|DICT|INTERRES
   128   64  142 1    
   129   65   66 2    
   130   65   67 1    
   131   67   68 1    
   132   67   69 1    
   133   67  143 1    
   134   68  144 1    
   135   68  145 1    
   136   68  146 1    
   137   69   70 am   BACKBONE|DICT|INTERRES
   138   69  147 1    
   139   70   71 2    
   140   70   72 1    
   141   72   73 1    
   142   72   74 1    
   143   72  148 1    
   144   73  149 1    
   145   73  150 1    
   146   73  151 1    
   147   74   75 am   BACKBONE|DICT|INTERRES
   148   74  152 1    
   149   75   76 2    
   150   75   77 1    
   151   77   78 1    
   152   77   79 1    
   153   77  153 1    
   154   78  154 1    
   155   78  155 1    
   156   78  156 1    
   157   79   80 am   BACKBONE|DICT|INTERRES
   158   79  157 1    
   159   80   81 2    
@<TRIPOS>SUBSTRUCTURE
     1 UNK         1 GROUP             0       ****    0 ROOT    
