@<TRIPOS>MOLECULE
3R207
157   159    1
SMALL
USER_CHARGES


@<TRIPOS>ATOM
      1 CA        -46.6369  -32.0178    8.0383 C.3       0 UNK        -0.1975 
      2 C         -47.8866  -31.5561    8.7846 C.2       0 UNK         0.4852 
      3 O         -47.9647  -31.7505    9.9958 O.2       0 UNK        -0.5216 
      4 N         -48.8926  -30.9577    8.1275 N.am      1 UNK        -0.4461 
      5 CA        -48.9546  -30.5884    6.7063 C.3       1 UNK         0.0864 
      6 C6        -50.3791  -30.1048    6.3389 C.3       14 UNK        -0.0898 
      7 S7        -50.6931  -30.0532    4.5426 S.3       14 UNK        -0.2598 
      8 C8        -52.5112  -29.8974    4.4984 C.3       14 UNK         0.0286 
      9 C9        -53.0195  -28.7444    5.3558 C.ar      14 UNK        -0.0844 
     10 C10       -52.6090  -27.4339    5.0935 C.ar      14 UNK        -0.0881 
     11 C11       -53.0313  -26.3796    5.9082 C.ar      14 UNK        -0.0643 
     12 C12       -53.8942  -26.6391    6.9769 C.ar      14 UNK        -0.0930 
     13 C13       -54.3168  -27.9440    7.2459 C.ar      14 UNK        -0.0827 
     14 C14       -53.8803  -28.9918    6.4296 C.ar      14 UNK        -0.1249 
     15 C15       -55.2264  -28.2248    8.4316 C.3       14 UNK         0.0141 
     16 S16       -54.2835  -28.9573    9.8016 S.3       14 UNK        -0.2313 
     17 C17       -55.4815  -28.8427   11.1701 C.3       14 UNK        -0.0915 
     18 CA        -55.0954  -27.6973   12.1517 C.3       13 UNK         0.0968 
     19 C         -55.7897  -26.3610   11.8004 C.2       13 UNK         0.5732 
     20 N         -55.0591  -25.4024   11.2535 N.am      13 UNK        -0.7310 
     21 O         -56.9902  -26.1991   12.0104 O.2       13 UNK        -0.5035 
     22 N         -55.3354  -28.0195   13.5605 N.am      13 UNK        -0.4233 
     23 C         -54.6102  -28.8918   14.2656 C.2       13 UNK         0.4989 
     24 O         -53.7999  -29.6777   13.7669 O.2       13 UNK        -0.4996 
     25 CA        -54.8183  -28.8859   15.7927 C.3       12 UNK         0.0216 
     26 CB        -55.9206  -29.8797   16.1939 C.3       12 UNK        -0.1964 
     27 N         -53.5776  -29.2266   16.4987 N.am      12 UNK        -0.4276 
     28 C         -52.4493  -28.5066   16.4265 C.2       12 UNK         0.5020 
     29 O         -52.3886  -27.3876   15.9075 O.2       12 UNK        -0.5489 
     30 CA        -51.1663  -29.1491   16.9800 C.3       11 UNK         0.0294 
     31 CB        -51.0295  -30.6272   16.5428 C.3       11 UNK        -0.2019 
     32 N         -50.0557  -28.3492   16.4713 N.am      11 UNK        -0.4493 
     33 C         -48.7527  -28.4687   16.7405 C.2       11 UNK         0.4932 
     34 O         -48.2788  -29.2833   17.5328 O.2       11 UNK        -0.5029 
     35 CA        -47.8146  -27.5165   15.9797 C.3       10 UNK         0.0280 
     36 CB        -47.4517  -28.1156   14.6102 C.3       10 UNK        -0.1976 
     37 N         -48.3801  -26.1764   15.7931 N.am      10 UNK        -0.4242 
     38 C         -48.5474  -25.2796   16.7773 C.2       10 UNK         0.5072 
     39 O         -48.2308  -25.4806   17.9505 O.2       10 UNK        -0.5224 
     40 CA        -49.1682  -23.9295   16.3921 C.3       9 UNK         0.0343 
     41 CB        -48.0935  -22.9832   15.8308 C.3       9 UNK        -0.2003 
     42 N         -50.2215  -24.0986   15.3942 N.am      9 UNK        -0.4272 
     43 C         -51.5343  -24.1498   15.6524 C.2       9 UNK         0.4988 
     44 O         -52.0168  -24.0259   16.7803 O.2       9 UNK        -0.5108 
     45 CA        -52.4519  -24.3467   14.4273 C.3       8 UNK         0.0248 
     46 CB        -53.9439  -24.1070   14.7391 C.3       8 UNK        -0.2001 
     47 N         -52.0189  -23.5535   13.2696 N.am      8 UNK        -0.4140 
     48 C         -51.8814  -22.2193   13.1971 C.2       8 UNK         0.5028 
     49 O         -52.2022  -21.4447   14.0996 O.2       8 UNK        -0.5428 
     50 CA        -51.2420  -21.6348   11.9217 C.3       7 UNK         0.0264 
     51 CB        -49.8392  -21.0895   12.2409 C.3       7 UNK        -0.1988 
     52 N         -51.1279  -22.5903   10.8172 N.am      7 UNK        -0.4454 
     53 C         -52.1463  -23.0180   10.0584 C.2       7 UNK         0.5027 
     54 O         -53.3016  -22.6067   10.1678 O.2       7 UNK        -0.5083 
     55 CA        -51.8239  -24.1246    9.0315 C.3       6 UNK         0.0844 
     56 C56       -51.2912  -23.4935    7.7216 C.3       14 UNK        -0.0967 
     57 S57       -50.9052  -24.7059    6.4156 S.3       14 UNK        -0.2604 
     58 C58       -52.5317  -24.9694    5.6395 C.3       14 UNK         0.0134 
     59 N         -50.9428  -25.1643    9.5855 N.am      6 UNK        -0.4116 
     60 C         -51.2311  -25.9134   10.6622 C.2       5 UNK         0.5034 
     61 O         -52.2817  -25.8213   11.2924 O.2       5 UNK        -0.5045 
     62 CA        -50.1461  -26.8678   11.1764 C.3       5 UNK         0.0224 
     63 CB        -50.1388  -28.1803   10.3749 C.3       5 UNK        -0.1978 
     64 N         -48.8347  -26.2190   11.1273 N.am      5 UNK        -0.4737 
     65 C         -48.3937  -25.3638   12.0607 C.2       4 UNK         0.5027 
     66 O         -48.9807  -25.1630   13.1244 O.2       4 UNK        -0.5211 
     67 CA        -47.0977  -24.5842   11.7702 C.3       4 UNK         0.0297 
     68 CB        -45.8999  -25.2480   12.4643 C.3       4 UNK        -0.1993 
     69 N         -46.8126  -24.4310   10.3407 N.am      4 UNK        -0.4486 
     70 C         -47.5267  -23.6608    9.5081 C.2       3 UNK         0.4961 
     71 O         -48.4771  -22.9683    9.8692 O.2       3 UNK        -0.5105 
     72 CA        -47.1600  -23.7117    8.0127 C.3       3 UNK         0.0299 
     73 CB        -46.0929  -22.6547    7.6888 C.3       3 UNK        -0.1972 
     74 N         -46.7134  -25.0263    7.5300 N.am      3 UNK        -0.4305 
     75 C         -47.3932  -26.1730    7.6687 C.2       2 UNK         0.5006 
     76 O         -48.4538  -26.2668    8.2917 O.2       2 UNK        -0.5106 
     77 CA        -46.7681  -27.4290    7.0502 C.3       2 UNK         0.0296 
     78 CB        -45.4558  -27.8142    7.7589 C.3       2 UNK        -0.2002 
     79 N         -47.7236  -28.5242    7.1783 N.am      2 UNK        -0.4032 
     80 C         -47.8776  -29.5455    6.3298 C.2       1 UNK         0.5000 
     81 O         -47.1846  -29.7147    5.3251 O.2       1 UNK        -0.5238 
     82 H82       -46.8727  -32.4332    7.0598 H         1 UNK         0.0889 
     83 H83       -45.9416  -31.1887    7.9103 H         1 UNK         0.0889 
     84 H84       -46.1258  -32.7957    8.6051 H         1 UNK         0.0889 
     85 H85       -49.7080  -30.7046    8.6661 H         1 UNK         0.3028 
     86 H86       -48.7558  -31.4930    6.1284 H         1 UNK         0.0864 
     87 H87       -51.1191  -30.7787    6.7745 H         1 UNK         0.0720 
     88 H88       -50.5819  -29.1204    6.7666 H         1 UNK         0.0720 
     89 H89       -52.9520  -30.8426    4.8189 H         1 UNK         0.0814 
     90 H90       -52.8302  -29.7442    3.4666 H         1 UNK         0.0814 
     91 H91       -51.9322  -27.2392    4.2726 H         1 UNK         0.1469 
     92 H92       -54.2295  -25.8285    7.6076 H         1 UNK         0.1381 
     93 H93       -54.1967  -30.0029    6.6475 H         1 UNK         0.1206 
     94 H94       -55.7059  -27.3047    8.7697 H         1 UNK         0.0813 
     95 H95       -56.0271  -28.9039    8.1353 H         1 UNK         0.0813 
     96 H96       -55.4665  -29.8104   11.6722 H         1 UNK         0.0638 
     97 H97       -56.4979  -28.7348   10.7865 H         1 UNK         0.0638 
     98 H98       -54.0184  -27.5337   12.0866 H         1 UNK         0.0568 
     99 H99       -55.4845  -24.5221   11.0123 H         1 UNK         0.3450 
    100 H100      -54.0551  -25.5304   11.1482 H         1 UNK         0.3450 
    101 H101      -56.0059  -27.4219   14.0248 H         1 UNK         0.2987 
    102 H102      -55.1158  -27.8819   16.1033 H         1 UNK         0.0766 
    103 H103      -56.8654  -29.6335   15.7073 H         1 UNK         0.0798 
    104 H104      -55.6656  -30.9017   15.9098 H         1 UNK         0.0798 
    105 H105      -56.0988  -29.8636   17.2694 H         1 UNK         0.0798 
    106 H106      -53.5348  -30.1450   16.9146 H         1 UNK         0.3198 
    107 H107      -51.1831  -29.0786   18.0690 H         1 UNK         0.0843 
    108 H108      -51.8211  -31.2459   16.9655 H         1 UNK         0.0831 
    109 H109      -50.0897  -31.0667   16.8750 H         1 UNK         0.0831 
    110 H110      -51.0770  -30.7284   15.4574 H         1 UNK         0.0831 
    111 H111      -50.3707  -27.6050   15.8582 H         1 UNK         0.3133 
    112 H112      -46.8959  -27.4209   16.5623 H         1 UNK         0.0566 
    113 H113      -46.6706  -27.5382   14.1191 H         1 UNK         0.0814 
    114 H114      -47.0748  -29.1339   14.7161 H         1 UNK         0.0814 
    115 H115      -48.3129  -28.1549   13.9417 H         1 UNK         0.0814 
    116 H116      -48.6465  -25.9122   14.8486 H         1 UNK         0.3091 
    117 H117      -49.5802  -23.4761   17.2962 H         1 UNK         0.0702 
    118 H118      -48.5152  -22.0071   15.5898 H         1 UNK         0.0785 
    119 H119      -47.6338  -23.3805   14.9249 H         1 UNK         0.0785 
    120 H120      -47.2970  -22.8223   16.5585 H         1 UNK         0.0785 
    121 H121      -49.9098  -24.2692   14.4408 H         1 UNK         0.2998 
    122 H122      -52.3440  -25.3904   14.1291 H         1 UNK         0.0697 
    123 H123      -54.1232  -23.0972   15.1091 H         1 UNK         0.0825 
    124 H124      -54.2947  -24.8026   15.5025 H         1 UNK         0.0825 
    125 H125      -54.5629  -24.2557   13.8553 H         1 UNK         0.0825 
    126 H126      -51.7616  -24.0981   12.4562 H         1 UNK         0.3029 
    127 H127      -51.8701  -20.8035   11.5944 H         1 UNK         0.0897 
    128 H128      -49.3875  -20.6188   11.3674 H         1 UNK         0.0792 
    129 H129      -49.8793  -20.3368   13.0295 H         1 UNK         0.0792 
    130 H130      -49.1684  -21.8808   12.5787 H         1 UNK         0.0792 
    131 H131      -50.1878  -22.9138   10.5939 H         1 UNK         0.3086 
    132 H132      -52.7694  -24.6155    8.8023 H         1 UNK         0.0583 
    133 H133      -52.0049  -22.7677    7.3265 H         1 UNK         0.1020 
    134 H134      -50.3807  -22.9261    7.9196 H         1 UNK         0.1020 
    135 H135      -53.2567  -24.2353    5.9934 H         1 UNK         0.0694 
    136 H136      -52.4388  -24.8093    4.5643 H         1 UNK         0.0694 
    137 H137      -50.0718  -25.3333    9.0928 H         1 UNK         0.2989 
    138 H138      -50.3809  -27.1147   12.2148 H         1 UNK         0.1055 
    139 H139      -51.0673  -28.7298   10.5377 H         1 UNK         0.0806 
    140 H140      -49.3190  -28.8305   10.6811 H         1 UNK         0.0806 
    141 H141      -50.0572  -28.0085    9.3023 H         1 UNK         0.0806 
    142 H142      -48.3388  -26.2815   10.2446 H         1 UNK         0.3061 
    143 H143      -47.2212  -23.5856   12.1951 H         1 UNK         0.0734 
    144 H144      -46.0569  -25.2993   13.5426 H         1 UNK         0.0832 
    145 H145      -45.7349  -26.2646   12.1051 H         1 UNK         0.0832 
    146 H146      -44.9830  -24.6809   12.3034 H         1 UNK         0.0832 
    147 H147      -46.0493  -24.9716    9.9607 H         1 UNK         0.3156 
    148 H148      -48.0620  -23.4607    7.4521 H         1 UNK         0.0589 
    149 H149      -45.1444  -22.8727    8.1812 H         1 UNK         0.0808 
    150 H150      -45.9090  -22.5905    6.6162 H         1 UNK         0.0808 
    151 H151      -46.4116  -21.6648    8.0192 H         1 UNK         0.0808 
    152 H152      -45.8455  -25.0419    7.0133 H         1 UNK         0.3098 
    153 H153      -46.5773  -27.2262    5.9943 H         1 UNK         0.0720 
    154 H154      -45.0235  -28.7156    7.3240 H         1 UNK         0.0791 
    155 H155      -45.6121  -28.0006    8.8223 H         1 UNK         0.0791 
    156 H156      -44.7063  -27.0272    7.6694 H         1 UNK         0.0791 
    157 H157      -48.3754  -28.4114    7.9432 H         1 UNK         0.3028 
@<TRIPOS>BOND
     1    1    2 1    
     2    1   82 1    
     3    1   83 1    
     4    1   84 1    
     5    2    3 2    
     6    2    4 am   BACKBONE|DICT|INTERRES
     7    4    5 1    
     8    4   85 1    
     9    5    6 1    
    10    5   80 1    
    11    5   86 1    
    12    6    7 1    
    13    6   87 1    
    14    6   88 1    
    15    7    8 1    
    16    8    9 1    
    17    8   89 1    
    18    8   90 1    
    19    9   10 ar   
    20    9   14 ar   
    21   10   11 ar   
    22   10   91 1    
    23   11   12 ar   
    24   11   58 1    
    25   12   13 ar   
    26   12   92 1    
    27   13   14 ar   
    28   13   15 1    
    29   14   93 1    
    30   15   16 1    
    31   15   94 1    
    32   15   95 1    
    33   16   17 1    
    34   17   18 1    
    35   17   96 1    
    36   17   97 1    
    37   18   19 1    
    38   18   22 1    
    39   18   98 1    
    40   19   20 am   BACKBONE|DICT|INTERRES
    41   19   21 2    
    42   20   99 1    
    43   20  100 1    
    44   22   23 am   BACKBONE|DICT|INTERRES
    45   22  101 1    
    46   23   24 2    
    47   23   25 1    
    48   25   26 1    
    49   25   27 1    
    50   25  102 1    
    51   26  103 1    
    52   26  104 1    
    53   26  105 1    
    54   27   28 am   BACKBONE|DICT|INTERRES
    55   27  106 1    
    56   28   29 2    
    57   28   30 1    
    58   30   31 1    
    59   30   32 1    
    60   30  107 1    
    61   31  108 1    
    62   31  109 1    
    63   31  110 1    
    64   32   33 am   BACKBONE|DICT|INTERRES
    65   32  111 1    
    66   33   34 2    
    67   33   35 1    
    68   35   36 1    
    69   35   37 1    
    70   35  112 1    
    71   36  113 1    
    72   36  114 1    
    73   36  115 1    
    74   37   38 am   BACKBONE|DICT|INTERRES
    75   37  116 1    
    76   38   39 2    
    77   38   40 1    
    78   40   41 1    
    79   40   42 1    
    80   40  117 1    
    81   41  118 1    
    82   41  119 1    
    83   41  120 1    
    84   42   43 am   BACKBONE|DICT|INTERRES
    85   42  121 1    
    86   43   44 2    
    87   43   45 1    
    88   45   46 1    
    89   45   47 1    
    90   45  122 1    
    91   46  123 1    
    92   46  124 1    
    93   46  125 1    
    94   47   48 am   BACKBONE|DICT|INTERRES
    95   47  126 1    
    96   48   49 2    
    97   48   50 1    
    98   50   51 1    
    99   50   52 1    
   100   50  127 1    
   101   51  128 1    
   102   51  129 1    
   103   51  130 1    
   104   52   53 am   BACKBONE|DICT|INTERRES
   105   52  131 1    
   106   53   54 2    
   107   53   55 1    
   108   55   56 1    
   109   55   59 1    
   110   55  132 1    
   111   56   57 1    
   112   56  133 1    
   113   56  134 1    
   114   57   58 1    
   115   58  135 1    
   116   58  136 1    
   117   59   60 am   BACKBONE|DICT|INTERRES
   118   59  137 1    
   119   60   61 2    
   120   60   62 1    
   121   62   63 1    
   122   62   64 1    
   123   62  138 1    
   124   63  139 1    
   125   63  140 1    
   126   63  141 1    
   127   64   65 am   BACKBONE|DICT|INTERRES
   128   64  142 1    
   129   65   66 2    
   130   65   67 1    
   131   67   68 1    
   132   67   69 1    
   133   67  143 1    
   134   68  144 1    
   135   68  145 1    
   136   68  146 1    
   137   69   70 am   BACKBONE|DICT|INTERRES
   138   69  147 1    
   139   70   71 2    
   140   70   72 1    
   141   72   73 1    
   142   72   74 1    
   143   72  148 1    
   144   73  149 1    
   145   73  150 1    
   146   73  151 1    
   147   74   75 am   BACKBONE|DICT|INTERRES
   148   74  152 1    
   149   75   76 2    
   150   75   77 1    
   151   77   78 1    
   152   77   79 1    
   153   77  153 1    
   154   78  154 1    
   155   78  155 1    
   156   78  156 1    
   157   79   80 am   BACKBONE|DICT|INTERRES
   158   79  157 1    
   159   80   81 2    
@<TRIPOS>SUBSTRUCTURE
     1 UNK         1 GROUP             0       ****    0 ROOT    
