@<TRIPOS>MOLECULE
3R207
157   159    1
SMALL
USER_CHARGES


@<TRIPOS>ATOM
      1 CA        -53.0743  -25.0053    4.3996 C.3       0 UNK        -0.1975 
      2 C         -51.9702  -25.8662    4.9937 C.2       0 UNK         0.4852 
      3 O         -51.4730  -25.5582    6.0792 O.2       0 UNK        -0.5216 
      4 N         -51.5852  -26.9436    4.2936 N.am      1 UNK        -0.4461 
      5 CA        -50.5475  -27.8921    4.7146 C.3       1 UNK         0.0864 
      6 C6        -50.4341  -29.1242    3.7830 C.3       14 UNK        -0.0898 
      7 S7        -52.0271  -29.9923    3.5694 S.3       14 UNK        -0.2598 
      8 C8        -51.9652  -31.2568    4.8838 C.3       14 UNK         0.0286 
      9 C9        -51.9146  -30.6465    6.2793 C.ar      14 UNK        -0.0844 
     10 C10       -50.8136  -30.8773    7.1107 C.ar      14 UNK        -0.0881 
     11 C11       -50.7563  -30.3048    8.3848 C.ar      14 UNK        -0.0643 
     12 C12       -51.8003  -29.4861    8.8211 C.ar      14 UNK        -0.0930 
     13 C13       -52.9101  -29.2553    8.0056 C.ar      14 UNK        -0.0827 
     14 C14       -52.9653  -29.8445    6.7388 C.ar      14 UNK        -0.1249 
     15 C15       -54.0428  -28.3588    8.4822 C.3       14 UNK         0.0141 
     16 S16       -55.4586  -29.3295    9.0859 S.3       14 UNK        -0.2313 
     17 C17       -54.9525  -29.7625   10.7883 C.3       14 UNK        -0.0915 
     18 CA        -55.7397  -28.9756   11.8726 C.3       13 UNK         0.0968 
     19 C         -57.2079  -29.4810   12.0227 C.2       13 UNK         0.5732 
     20 N         -57.5456  -30.2253   13.0702 N.am      13 UNK        -0.7310 
     21 O         -58.0608  -29.1742   11.1936 O.2       13 UNK        -0.5035 
     22 N         -54.9972  -28.9317   13.1456 N.am      13 UNK        -0.4233 
     23 C         -55.2177  -28.0230   14.1066 C.2       13 UNK         0.4989 
     24 O         -56.0023  -27.0827   13.9714 O.2       13 UNK        -0.4996 
     25 CA        -54.4622  -28.1890   15.4428 C.3       12 UNK         0.0216 
     26 CB        -53.3924  -29.3005   15.4437 C.3       12 UNK        -0.1964 
     27 N         -53.8495  -26.9190   15.8395 N.am      12 UNK        -0.4276 
     28 C         -54.4582  -25.9678   16.5632 C.2       12 UNK         0.5020 
     29 O         -55.5621  -26.1029   17.0945 O.2       12 UNK        -0.5489 
     30 CA        -53.7128  -24.6334   16.7232 C.3       11 UNK         0.0294 
     31 CB        -52.7860  -24.6799   17.9475 C.3       11 UNK        -0.2019 
     32 N         -52.9358  -24.2940   15.5297 N.am      11 UNK        -0.4493 
     33 C         -53.4573  -23.7991   14.3980 C.2       11 UNK         0.4932 
     34 O         -54.6432  -23.4875   14.2775 O.2       11 UNK        -0.5029 
     35 CA        -52.4954  -23.6336   13.2011 C.3       10 UNK         0.0280 
     36 CB        -53.0490  -22.7085   12.0974 C.3       10 UNK        -0.1976 
     37 N         -51.1415  -23.2236   13.5872 N.am      10 UNK        -0.4242 
     38 C         -50.7844  -22.1247   14.2727 C.2       10 UNK         0.5072 
     39 O         -51.5707  -21.2395   14.6151 O.2       10 UNK        -0.5224 
     40 CA        -49.2911  -22.0081   14.6465 C.3       9 UNK         0.0343 
     41 CB        -49.0342  -21.0250   15.8097 C.3       9 UNK        -0.2003 
     42 N         -48.6685  -23.3144   14.9086 N.am      9 UNK        -0.4272 
     43 C         -49.0158  -24.1766   15.8757 C.2       9 UNK         0.4988 
     44 O         -49.8783  -23.9444   16.7230 O.2       9 UNK        -0.5108 
     45 CA        -48.3057  -25.5408   15.8632 C.3       8 UNK         0.0248 
     46 CB        -48.4070  -26.2654   17.2222 C.3       8 UNK        -0.2001 
     47 N         -48.7852  -26.4199   14.7893 N.am      8 UNK        -0.4140 
     48 C         -50.0478  -26.8138   14.5401 C.2       8 UNK         0.5028 
     49 O         -51.0334  -26.4281   15.1706 O.2       8 UNK        -0.5428 
     50 CA        -50.2599  -27.8390   13.4122 C.3       7 UNK         0.0264 
     51 CB        -51.5134  -27.5419   12.5664 C.3       7 UNK        -0.1988 
     52 N         -49.0867  -27.9532   12.5416 N.am      7 UNK        -0.4454 
     53 C         -48.2940  -29.0325   12.4763 C.2       7 UNK         0.5027 
     54 O         -48.5210  -30.0821   13.0801 O.2       7 UNK        -0.5083 
     55 CA        -47.0107  -28.9366   11.6243 C.3       6 UNK         0.0844 
     56 C56       -47.0776  -29.8018   10.3404 C.3       14 UNK        -0.0967 
     57 S57       -48.3211  -29.2683    9.1184 S.3       14 UNK        -0.2604 
     58 C58       -49.5711  -30.5705    9.2962 C.3       14 UNK         0.0134 
     59 N         -46.5437  -27.5666   11.3708 N.am      6 UNK        -0.4116 
     60 C         -45.9985  -26.7795   12.3112 C.2       5 UNK         0.5034 
     61 O         -46.0400  -27.0287   13.5163 O.2       5 UNK        -0.5045 
     62 CA        -45.2809  -25.5108   11.8346 C.3       5 UNK         0.0224 
     63 CB        -44.1462  -25.8430   10.8487 C.3       5 UNK        -0.1978 
     64 N         -46.2243  -24.6004   11.1986 N.am      5 UNK        -0.4737 
     65 C         -46.7786  -23.5360   11.7906 C.2       4 UNK         0.5027 
     66 O         -46.5280  -23.1808   12.9419 O.2       4 UNK        -0.5211 
     67 CA        -47.8312  -22.7615   10.9738 C.3       4 UNK         0.0297 
     68 CB        -47.1568  -21.6872   10.1074 C.3       4 UNK        -0.1993 
     69 N         -48.6531  -23.6294   10.1290 N.am      4 UNK        -0.4486 
     70 C         -49.3918  -24.6494   10.5842 C.2       3 UNK         0.4961 
     71 O         -49.5439  -24.9008   11.7808 O.2       3 UNK        -0.5105 
     72 CA        -50.0249  -25.5811    9.5386 C.3       3 UNK         0.0299 
     73 CB        -51.4947  -25.1973    9.3079 C.3       3 UNK        -0.1972 
     74 N         -49.3317  -25.6681    8.2446 N.am      3 UNK        -0.4305 
     75 C         -48.0374  -25.9883    8.0553 C.2       2 UNK         0.5006 
     76 O         -47.2077  -26.0620    8.9640 O.2       2 UNK        -0.5106 
     77 CA        -47.6253  -26.3655    6.6240 C.3       2 UNK         0.0296 
     78 CB        -46.2430  -27.0421    6.5480 C.3       2 UNK        -0.2002 
     79 N         -48.6478  -27.2639    6.0986 N.am      2 UNK        -0.4032 
     80 C         -49.1945  -27.1762    4.8841 C.2       1 UNK         0.5000 
     81 O         -48.7226  -26.5194    3.9519 O.2       1 UNK        -0.5238 
     82 H82       -52.7091  -23.9927    4.2308 H         1 UNK         0.0889 
     83 H83       -53.9182  -24.9538    5.0870 H         1 UNK         0.0889 
     84 H84       -53.4334  -25.4008    3.4496 H         1 UNK         0.0889 
     85 H85       -52.0221  -27.1473    3.4065 H         1 UNK         0.3028 
     86 H86       -50.8534  -28.2463    5.6994 H         1 UNK         0.0864 
     87 H87       -49.6944  -29.8294    4.1670 H         1 UNK         0.0720 
     88 H88       -50.0825  -28.8223    2.7946 H         1 UNK         0.0720 
     89 H89       -51.1096  -31.9111    4.7093 H         1 UNK         0.0814 
     90 H90       -52.8521  -31.8871    4.8070 H         1 UNK         0.0814 
     91 H91       -49.9986  -31.5005    6.7684 H         1 UNK         0.1469 
     92 H92       -51.7454  -29.0296    9.7974 H         1 UNK         0.1381 
     93 H93       -53.8199  -29.6644    6.1007 H         1 UNK         0.1206 
     94 H94       -54.3744  -27.7291    7.6552 H         1 UNK         0.0813 
     95 H95       -53.7036  -27.6776    9.2641 H         1 UNK         0.0813 
     96 H96       -55.0684  -30.8388   10.9268 H         1 UNK         0.0638 
     97 H97       -53.8846  -29.5672   10.8875 H         1 UNK         0.0638 
     98 H98       -55.8120  -27.9430   11.5245 H         1 UNK         0.0568 
     99 H99       -58.4994  -30.5371   13.1632 H         1 UNK         0.3450 
    100 H100      -56.8620  -30.4833   13.7627 H         1 UNK         0.3450 
    101 H101      -54.3546  -29.6893   13.3206 H         1 UNK         0.2987 
    102 H102      -55.2120  -28.4688   16.1856 H         1 UNK         0.0766 
    103 H103      -52.6347  -29.1496   14.6780 H         1 UNK         0.0798 
    104 H104      -53.8397  -30.2822   15.2830 H         1 UNK         0.0798 
    105 H105      -52.8792  -29.3447   16.4047 H         1 UNK         0.0798 
    106 H106      -52.9176  -26.7190   15.4818 H         1 UNK         0.3198 
    107 H107      -54.4568  -23.8513   16.8894 H         1 UNK         0.0843 
    108 H108      -52.3013  -23.7175   18.1127 H         1 UNK         0.0831 
    109 H109      -52.0036  -25.4315   17.8316 H         1 UNK         0.0831 
    110 H110      -53.3440  -24.9231   18.8526 H         1 UNK         0.0831 
    111 H111      -51.9585  -24.5715   15.5380 H         1 UNK         0.3133 
    112 H112      -52.3905  -24.6285   12.7686 H         1 UNK         0.0566 
    113 H113      -53.9930  -23.0886   11.7050 H         1 UNK         0.0814 
    114 H114      -53.2334  -21.7008   12.4708 H         1 UNK         0.0814 
    115 H115      -52.3570  -22.6347   11.2585 H         1 UNK         0.0814 
    116 H116      -50.4086  -23.8696   13.3096 H         1 UNK         0.3091 
    117 H117      -48.7882  -21.5962   13.7733 H         1 UNK         0.0702 
    118 H118      -47.9736  -20.9690   16.0544 H         1 UNK         0.0785 
    119 H119      -49.5734  -21.3121   16.7129 H         1 UNK         0.0785 
    120 H120      -49.3585  -20.0174   15.5471 H         1 UNK         0.0785 
    121 H121      -47.9245  -23.5684   14.2637 H         1 UNK         0.2998 
    122 H122      -47.2490  -25.3516   15.6664 H         1 UNK         0.0697 
    123 H123      -47.8313  -27.1908   17.2213 H         1 UNK         0.0825 
    124 H124      -48.0175  -25.6405   18.0268 H         1 UNK         0.0825 
    125 H125      -49.4388  -26.5133   17.4745 H         1 UNK         0.0825 
    126 H126      -48.0515  -26.8005   14.2033 H         1 UNK         0.3029 
    127 H127      -50.4371  -28.7842   13.9279 H         1 UNK         0.0897 
    128 H128      -51.7664  -28.3952   11.9409 H         1 UNK         0.0792 
    129 H129      -52.3855  -27.3347   13.1847 H         1 UNK         0.0792 
    130 H130      -51.3767  -26.6798   11.9208 H         1 UNK         0.0792 
    131 H131      -48.8304  -27.1196   12.0278 H         1 UNK         0.3086 
    132 H132      -46.2360  -29.3975   12.2419 H         1 UNK         0.0583 
    133 H133      -46.1047  -29.7892    9.8467 H         1 UNK         0.1020 
    134 H134      -47.2474  -30.8480   10.6026 H         1 UNK         0.1020 
    135 H135      -49.1248  -31.5389    9.0647 H         1 UNK         0.0694 
    136 H136      -49.9032  -30.6200   10.3345 H         1 UNK         0.0694 
    137 H137      -46.5745  -27.2431   10.4081 H         1 UNK         0.2989 
    138 H138      -44.8311  -25.0379   12.7109 H         1 UNK         0.1055 
    139 H139      -44.5195  -26.2694    9.9166 H         1 UNK         0.0806 
    140 H140      -43.4485  -26.5610   11.2821 H         1 UNK         0.0806 
    141 H141      -43.5742  -24.9501   10.5962 H         1 UNK         0.0806 
    142 H142      -46.5629  -24.8790   10.2804 H         1 UNK         0.3061 
    143 H143      -48.5039  -22.2635   11.6710 H         1 UNK         0.0734 
    144 H144      -47.8934  -21.0776    9.5838 H         1 UNK         0.0832 
    145 H145      -46.5579  -21.0125   10.7210 H         1 UNK         0.0832 
    146 H146      -46.4916  -22.1266    9.3629 H         1 UNK         0.0832 
    147 H147      -48.5810  -23.5046    9.1299 H         1 UNK         0.3156 
    148 H148      -50.0032  -26.5867    9.9620 H         1 UNK         0.0589 
    149 H149      -51.5836  -24.2415    8.7902 H         1 UNK         0.0808 
    150 H150      -52.0078  -25.9494    8.7091 H         1 UNK         0.0808 
    151 H151      -52.0392  -25.1097   10.2484 H         1 UNK         0.0808 
    152 H152      -49.9368  -25.6109    7.4291 H         1 UNK         0.3098 
    153 H153      -47.5985  -25.4390    6.0465 H         1 UNK         0.0720 
    154 H154      -45.4618  -26.3802    6.9240 H         1 UNK         0.0791 
    155 H155      -46.2104  -27.9575    7.1403 H         1 UNK         0.0791 
    156 H156      -45.9848  -27.2985    5.5206 H         1 UNK         0.0791 
    157 H157      -49.0984  -27.8437    6.7956 H         1 UNK         0.3028 
@<TRIPOS>BOND
     1    1    2 1    
     2    1   82 1    
     3    1   83 1    
     4    1   84 1    
     5    2    3 2    
     6    2    4 am   BACKBONE|DICT|INTERRES
     7    4    5 1    
     8    4   85 1    
     9    5    6 1    
    10    5   80 1    
    11    5   86 1    
    12    6    7 1    
    13    6   87 1    
    14    6   88 1    
    15    7    8 1    
    16    8    9 1    
    17    8   89 1    
    18    8   90 1    
    19    9   10 ar   
    20    9   14 ar   
    21   10   11 ar   
    22   10   91 1    
    23   11   12 ar   
    24   11   58 1    
    25   12   13 ar   
    26   12   92 1    
    27   13   14 ar   
    28   13   15 1    
    29   14   93 1    
    30   15   16 1    
    31   15   94 1    
    32   15   95 1    
    33   16   17 1    
    34   17   18 1    
    35   17   96 1    
    36   17   97 1    
    37   18   19 1    
    38   18   22 1    
    39   18   98 1    
    40   19   20 am   BACKBONE|DICT|INTERRES
    41   19   21 2    
    42   20   99 1    
    43   20  100 1    
    44   22   23 am   BACKBONE|DICT|INTERRES
    45   22  101 1    
    46   23   24 2    
    47   23   25 1    
    48   25   26 1    
    49   25   27 1    
    50   25  102 1    
    51   26  103 1    
    52   26  104 1    
    53   26  105 1    
    54   27   28 am   BACKBONE|DICT|INTERRES
    55   27  106 1    
    56   28   29 2    
    57   28   30 1    
    58   30   31 1    
    59   30   32 1    
    60   30  107 1    
    61   31  108 1    
    62   31  109 1    
    63   31  110 1    
    64   32   33 am   BACKBONE|DICT|INTERRES
    65   32  111 1    
    66   33   34 2    
    67   33   35 1    
    68   35   36 1    
    69   35   37 1    
    70   35  112 1    
    71   36  113 1    
    72   36  114 1    
    73   36  115 1    
    74   37   38 am   BACKBONE|DICT|INTERRES
    75   37  116 1    
    76   38   39 2    
    77   38   40 1    
    78   40   41 1    
    79   40   42 1    
    80   40  117 1    
    81   41  118 1    
    82   41  119 1    
    83   41  120 1    
    84   42   43 am   BACKBONE|DICT|INTERRES
    85   42  121 1    
    86   43   44 2    
    87   43   45 1    
    88   45   46 1    
    89   45   47 1    
    90   45  122 1    
    91   46  123 1    
    92   46  124 1    
    93   46  125 1    
    94   47   48 am   BACKBONE|DICT|INTERRES
    95   47  126 1    
    96   48   49 2    
    97   48   50 1    
    98   50   51 1    
    99   50   52 1    
   100   50  127 1    
   101   51  128 1    
   102   51  129 1    
   103   51  130 1    
   104   52   53 am   BACKBONE|DICT|INTERRES
   105   52  131 1    
   106   53   54 2    
   107   53   55 1    
   108   55   56 1    
   109   55   59 1    
   110   55  132 1    
   111   56   57 1    
   112   56  133 1    
   113   56  134 1    
   114   57   58 1    
   115   58  135 1    
   116   58  136 1    
   117   59   60 am   BACKBONE|DICT|INTERRES
   118   59  137 1    
   119   60   61 2    
   120   60   62 1    
   121   62   63 1    
   122   62   64 1    
   123   62  138 1    
   124   63  139 1    
   125   63  140 1    
   126   63  141 1    
   127   64   65 am   BACKBONE|DICT|INTERRES
   128   64  142 1    
   129   65   66 2    
   130   65   67 1    
   131   67   68 1    
   132   67   69 1    
   133   67  143 1    
   134   68  144 1    
   135   68  145 1    
   136   68  146 1    
   137   69   70 am   BACKBONE|DICT|INTERRES
   138   69  147 1    
   139   70   71 2    
   140   70   72 1    
   141   72   73 1    
   142   72   74 1    
   143   72  148 1    
   144   73  149 1    
   145   73  150 1    
   146   73  151 1    
   147   74   75 am   BACKBONE|DICT|INTERRES
   148   74  152 1    
   149   75   76 2    
   150   75   77 1    
   151   77   78 1    
   152   77   79 1    
   153   77  153 1    
   154   78  154 1    
   155   78  155 1    
   156   78  156 1    
   157   79   80 am   BACKBONE|DICT|INTERRES
   158   79  157 1    
   159   80   81 2    
@<TRIPOS>SUBSTRUCTURE
     1 UNK         1 GROUP             0       ****    0 ROOT    
