@<TRIPOS>MOLECULE
3R207
157   159    1
SMALL
USER_CHARGES


@<TRIPOS>ATOM
      1 CA        -48.8408  -28.1888    1.8753 C.3       0 UNK        -0.1975 
      2 C         -48.1754  -29.1193    2.8868 C.2       0 UNK         0.4852 
      3 O         -47.4501  -30.0261    2.4824 O.2       0 UNK        -0.5216 
      4 N         -48.3848  -28.9485    4.2013 N.am      1 UNK        -0.4461 
      5 CA        -49.1939  -27.9072    4.8537 C.3       1 UNK         0.0864 
      6 C6        -49.4777  -28.2466    6.3359 C.3       14 UNK        -0.0898 
      7 S7        -50.3215  -29.8511    6.5557 S.3       14 UNK        -0.2598 
      8 C8        -52.0665  -29.3578    6.7463 C.3       14 UNK         0.0286 
      9 C9        -52.3137  -28.5956    8.0409 C.ar      14 UNK        -0.0844 
     10 C10       -52.5644  -27.2208    8.0124 C.ar      14 UNK        -0.0881 
     11 C11       -52.7648  -26.5085    9.1983 C.ar      14 UNK        -0.0643 
     12 C12       -52.7330  -27.1872   10.4192 C.ar      14 UNK        -0.0930 
     13 C13       -52.4866  -28.5620   10.4623 C.ar      14 UNK        -0.0827 
     14 C14       -52.2856  -29.2628    9.2692 C.ar      14 UNK        -0.1249 
     15 C15       -52.3887  -29.2829   11.7973 C.3       14 UNK         0.0141 
     16 S16       -53.9123  -30.1977   12.1787 S.3       14 UNK        -0.2313 
     17 C17       -53.3936  -31.0742   13.6941 C.3       14 UNK        -0.0915 
     18 CA        -54.5376  -31.2533   14.7276 C.3       13 UNK         0.0968 
     19 C         -54.0340  -32.0451   15.9702 C.2       13 UNK         0.5732 
     20 N         -53.9804  -31.4582   17.1601 N.am      13 UNK        -0.7310 
     21 O         -53.6888  -33.2182   15.8500 O.2       13 UNK        -0.5035 
     22 N         -55.2028  -29.9755   15.0250 N.am      13 UNK        -0.4233 
     23 C         -56.3984  -29.8386   15.6136 C.2       13 UNK         0.4989 
     24 O         -57.0735  -30.7796   16.0316 O.2       13 UNK        -0.4996 
     25 CA        -56.9396  -28.4046   15.7525 C.3       12 UNK         0.0216 
     26 CB        -56.6101  -27.8359   17.1426 C.3       12 UNK        -0.1964 
     27 N         -56.4183  -27.4976   14.7263 N.am      12 UNK        -0.4276 
     28 C         -56.7734  -27.5055   13.4335 C.2       12 UNK         0.5020 
     29 O         -57.6366  -28.2550   12.9746 O.2       12 UNK        -0.5489 
     30 CA        -56.0223  -26.5492   12.4834 C.3       11 UNK         0.0294 
     31 CB        -56.9795  -25.7802   11.5497 C.3       11 UNK        -0.2019 
     32 N         -55.0840  -25.6366   13.1536 N.am      11 UNK        -0.4493 
     33 C         -55.3443  -24.6171   13.9824 C.2       11 UNK         0.4932 
     34 O         -56.4779  -24.2806   14.3253 O.2       11 UNK        -0.5029 
     35 CA        -54.1109  -23.8890   14.5556 C.3       10 UNK         0.0280 
     36 CB        -54.4898  -22.6286   15.3555 C.3       10 UNK        -0.1976 
     37 N         -53.2718  -24.7510   15.3990 N.am      10 UNK        -0.4242 
     38 C         -52.4845  -25.7421   14.9605 C.2       10 UNK         0.5072 
     39 O         -52.4499  -26.1170   13.7885 O.2       10 UNK        -0.5224 
     40 CA        -51.6146  -26.4587   15.9943 C.3       9 UNK         0.0343 
     41 CB        -52.0708  -27.9168   16.1849 C.3       9 UNK        -0.2003 
     42 N         -50.2286  -26.4198   15.5337 N.am      9 UNK        -0.4272 
     43 C         -49.1576  -26.4156   16.3379 C.2       9 UNK         0.4988 
     44 O         -49.2237  -26.5137   17.5643 O.2       9 UNK        -0.5108 
     45 CA        -47.7762  -26.2562   15.6777 C.3       8 UNK         0.0248 
     46 CB        -47.3000  -27.5810   15.0594 C.3       8 UNK        -0.2001 
     47 N         -47.7457  -25.1903   14.6728 N.am      8 UNK        -0.4140 
     48 C         -47.8465  -23.8811   14.9505 C.2       8 UNK         0.5028 
     49 O         -47.9149  -23.4254   16.0929 O.2       8 UNK        -0.5428 
     50 CA        -47.8892  -22.9096   13.7570 C.3       7 UNK         0.0264 
     51 CB        -46.4709  -22.5229   13.3077 C.3       7 UNK        -0.1988 
     52 N         -48.6343  -23.4517   12.6207 N.am      7 UNK        -0.4454 
     53 C         -49.9599  -23.6549   12.6115 C.2       7 UNK         0.5027 
     54 O         -50.7098  -23.2919   13.5171 O.2       7 UNK        -0.5083 
     55 CA        -50.5402  -24.3958   11.3905 C.3       6 UNK         0.0844 
     56 C56       -50.9616  -23.3811   10.2970 C.3       14 UNK        -0.0967 
     57 S57       -51.4707  -24.1205    8.7075 S.3       14 UNK        -0.2604 
     58 C58       -53.0011  -25.0064    9.1467 C.3       14 UNK         0.0134 
     59 N         -49.6265  -25.4332   10.9016 N.am      6 UNK        -0.4116 
     60 C         -49.2991  -26.5507   11.5675 C.2       5 UNK         0.5034 
     61 O         -49.7389  -26.8488   12.6758 O.2       5 UNK        -0.5045 
     62 CA        -48.2522  -27.4658   10.9116 C.3       5 UNK         0.0224 
     63 CB        -48.9132  -28.4224    9.9113 C.3       5 UNK        -0.1978 
     64 N         -47.1912  -26.7061   10.2467 N.am      5 UNK        -0.4737 
     65 C         -46.2855  -25.9678   10.9021 C.2       4 UNK         0.5027 
     66 O         -46.2226  -25.8984   12.1293 O.2       4 UNK        -0.5211 
     67 CA        -45.3256  -25.1282   10.0431 C.3       4 UNK         0.0297 
     68 CB        -44.1157  -25.9686    9.6065 C.3       4 UNK        -0.1993 
     69 N         -45.9595  -24.5325    8.8612 N.am      4 UNK        -0.4486 
     70 C         -47.0019  -23.6931    8.8757 C.2       3 UNK         0.4961 
     71 O         -47.5759  -23.3552    9.9103 O.2       3 UNK        -0.5105 
     72 CA        -47.5136  -23.1326    7.5339 C.3       3 UNK         0.0299 
     73 CB        -46.9118  -21.7388    7.2740 C.3       3 UNK        -0.1972 
     74 N         -47.3610  -23.9971    6.3510 N.am      3 UNK        -0.4305 
     75 C         -46.2464  -24.4421    5.7538 C.2       2 UNK         0.5006 
     76 O         -45.1140  -24.2769    6.2104 O.2       2 UNK        -0.5106 
     77 CA        -46.4384  -25.2180    4.4344 C.3       2 UNK         0.0296 
     78 CB        -45.1006  -25.5826    3.7627 C.3       2 UNK        -0.2002 
     79 N         -47.2257  -26.4418    4.6045 N.am      2 UNK        -0.4032 
     80 C         -48.5564  -26.5042    4.7579 C.2       1 UNK         0.5000 
     81 O         -49.2774  -25.5069    4.8190 O.2       1 UNK        -0.5238 
     82 H82       -48.7380  -28.5908    0.8675 H         1 UNK         0.0889 
     83 H83       -48.3733  -27.2049    1.8869 H         1 UNK         0.0889 
     84 H84       -49.9062  -28.0778    2.0722 H         1 UNK         0.0889 
     85 H85       -47.9646  -29.6129    4.8359 H         1 UNK         0.3028 
     86 H86       -50.1572  -27.8541    4.3437 H         1 UNK         0.0864 
     87 H87       -50.0715  -27.4595    6.8024 H         1 UNK         0.0720 
     88 H88       -48.5429  -28.2882    6.8977 H         1 UNK         0.0720 
     89 H89       -52.3706  -28.7676    5.8805 H         1 UNK         0.0814 
     90 H90       -52.6880  -30.2543    6.7365 H         1 UNK         0.0814 
     91 H91       -52.5823  -26.6944    7.0677 H         1 UNK         0.1469 
     92 H92       -52.8784  -26.6441   11.3400 H         1 UNK         0.1381 
     93 H93       -52.0849  -30.3251    9.2976 H         1 UNK         0.1206 
     94 H94       -51.5474  -29.9770   11.7738 H         1 UNK         0.0813 
     95 H95       -52.1777  -28.5733   12.5992 H         1 UNK         0.0813 
     96 H96       -52.5603  -30.5375   14.1504 H         1 UNK         0.0638 
     97 H97       -52.9983  -32.0456   13.3913 H         1 UNK         0.0638 
     98 H98       -55.2915  -31.8913   14.2626 H         1 UNK         0.0568 
     99 H99       -53.6555  -31.9859   17.9546 H         1 UNK         0.3450 
    100 H100      -54.2719  -30.5020   17.2735 H         1 UNK         0.3450 
    101 H101      -54.7323  -29.1497   14.6911 H         1 UNK         0.2987 
    102 H102      -58.0259  -28.4507   15.6488 H         1 UNK         0.0766 
    103 H103      -57.0088  -28.4772   17.9302 H         1 UNK         0.0798 
    104 H104      -57.0496  -26.8476   17.2804 H         1 UNK         0.0798 
    105 H105      -55.5352  -27.7508   17.3050 H         1 UNK         0.0798 
    106 H106      -55.7357  -26.8143   15.0178 H         1 UNK         0.3198 
    107 H107      -55.4059  -27.1939   11.8547 H         1 UNK         0.0843 
    108 H108      -57.6787  -25.1568   12.1074 H         1 UNK         0.0831 
    109 H109      -57.5723  -26.4684   10.9459 H         1 UNK         0.0831 
    110 H110      -56.4305  -25.1387   10.8605 H         1 UNK         0.0831 
    111 H111      -54.0959  -25.8708   13.0565 H         1 UNK         0.3133 
    112 H112      -53.5107  -23.5650   13.7024 H         1 UNK         0.0566 
    113 H113      -55.0707  -22.8725   16.2459 H         1 UNK         0.0814 
    114 H114      -55.0902  -21.9476   14.7507 H         1 UNK         0.0814 
    115 H115      -53.6029  -22.0788   15.6715 H         1 UNK         0.0814 
    116 H116      -53.2619  -24.5300   16.3844 H         1 UNK         0.3091 
    117 H117      -51.6964  -25.9317   16.9474 H         1 UNK         0.0702 
    118 H118      -51.4763  -28.4223   16.9460 H         1 UNK         0.0785 
    119 H119      -51.9799  -28.4856   15.2593 H         1 UNK         0.0785 
    120 H120      -53.1125  -27.9645   16.5022 H         1 UNK         0.0785 
    121 H121      -50.1065  -26.3722   14.5227 H         1 UNK         0.2998 
    122 H122      -47.0662  -25.9855   16.4622 H         1 UNK         0.0697 
    123 H123      -46.3065  -27.4805   14.6219 H         1 UNK         0.0825 
    124 H124      -47.9740  -27.9342   14.2797 H         1 UNK         0.0825 
    125 H125      -47.2440  -28.3637   15.8168 H         1 UNK         0.0825 
    126 H126      -47.6266  -25.4733   13.7068 H         1 UNK         0.3029 
    127 H127      -48.3983  -22.0019   14.0885 H         1 UNK         0.0897 
    128 H128      -45.8989  -23.3895   12.9766 H         1 UNK         0.0792 
    129 H129      -45.9169  -22.0609   14.1259 H         1 UNK         0.0792 
    130 H130      -46.4965  -21.8061   12.4865 H         1 UNK         0.0792 
    131 H131      -48.1053  -23.6866   11.7853 H         1 UNK         0.3086 
    132 H132      -51.4426  -24.9013   11.7312 H         1 UNK         0.0583 
    133 H133      -51.7783  -22.7551   10.6622 H         1 UNK         0.1020 
    134 H134      -50.1424  -22.6940   10.0767 H         1 UNK         0.1020 
    135 H135      -53.3983  -24.6380   10.0939 H         1 UNK         0.0694 
    136 H136      -53.7605  -24.7900    8.3940 H         1 UNK         0.0694 
    137 H137      -49.1895  -25.2499   10.0114 H         1 UNK         0.2989 
    138 H138      -47.7918  -28.0647   11.7008 H         1 UNK         0.1055 
    139 H139      -49.5846  -29.1091   10.4263 H         1 UNK         0.0806 
    140 H140      -48.1783  -29.0301    9.3836 H         1 UNK         0.0806 
    141 H141      -49.5084  -27.8851    9.1731 H         1 UNK         0.0806 
    142 H142      -47.1726  -26.7089    9.2375 H         1 UNK         0.3061 
    143 H143      -44.9646  -24.3074   10.6663 H         1 UNK         0.0734 
    144 H144      -44.4078  -26.7872    8.9476 H         1 UNK         0.0832 
    145 H145      -43.3799  -25.3607    9.0797 H         1 UNK         0.0832 
    146 H146      -43.6135  -26.4073   10.4700 H         1 UNK         0.0832 
    147 H147      -45.5094  -24.6821    7.9606 H         1 UNK         0.3156 
    148 H148      -48.5904  -23.0034    7.6551 H         1 UNK         0.0589 
    149 H149      -47.3454  -21.2788    6.3861 H         1 UNK         0.0808 
    150 H150      -45.8308  -21.7815    7.1366 H         1 UNK         0.0808 
    151 H151      -47.1052  -21.0681    8.1124 H         1 UNK         0.0808 
    152 H152      -48.2340  -24.2710    5.9055 H         1 UNK         0.3098 
    153 H153      -46.9756  -24.5548    3.7528 H         1 UNK         0.0720 
    154 H154      -44.4979  -24.6913    3.5821 H         1 UNK         0.0791 
    155 H155      -45.2591  -26.0636    2.7973 H         1 UNK         0.0791 
    156 H156      -44.5074  -26.2576    4.3811 H         1 UNK         0.0791 
    157 H157      -46.7109  -27.3109    4.5952 H         1 UNK         0.3028 
@<TRIPOS>BOND
     1    1    2 1    
     2    1   82 1    
     3    1   83 1    
     4    1   84 1    
     5    2    3 2    
     6    2    4 am   BACKBONE|DICT|INTERRES
     7    4    5 1    
     8    4   85 1    
     9    5    6 1    
    10    5   80 1    
    11    5   86 1    
    12    6    7 1    
    13    6   87 1    
    14    6   88 1    
    15    7    8 1    
    16    8    9 1    
    17    8   89 1    
    18    8   90 1    
    19    9   10 ar   
    20    9   14 ar   
    21   10   11 ar   
    22   10   91 1    
    23   11   12 ar   
    24   11   58 1    
    25   12   13 ar   
    26   12   92 1    
    27   13   14 ar   
    28   13   15 1    
    29   14   93 1    
    30   15   16 1    
    31   15   94 1    
    32   15   95 1    
    33   16   17 1    
    34   17   18 1    
    35   17   96 1    
    36   17   97 1    
    37   18   19 1    
    38   18   22 1    
    39   18   98 1    
    40   19   20 am   BACKBONE|DICT|INTERRES
    41   19   21 2    
    42   20   99 1    
    43   20  100 1    
    44   22   23 am   BACKBONE|DICT|INTERRES
    45   22  101 1    
    46   23   24 2    
    47   23   25 1    
    48   25   26 1    
    49   25   27 1    
    50   25  102 1    
    51   26  103 1    
    52   26  104 1    
    53   26  105 1    
    54   27   28 am   BACKBONE|DICT|INTERRES
    55   27  106 1    
    56   28   29 2    
    57   28   30 1    
    58   30   31 1    
    59   30   32 1    
    60   30  107 1    
    61   31  108 1    
    62   31  109 1    
    63   31  110 1    
    64   32   33 am   BACKBONE|DICT|INTERRES
    65   32  111 1    
    66   33   34 2    
    67   33   35 1    
    68   35   36 1    
    69   35   37 1    
    70   35  112 1    
    71   36  113 1    
    72   36  114 1    
    73   36  115 1    
    74   37   38 am   BACKBONE|DICT|INTERRES
    75   37  116 1    
    76   38   39 2    
    77   38   40 1    
    78   40   41 1    
    79   40   42 1    
    80   40  117 1    
    81   41  118 1    
    82   41  119 1    
    83   41  120 1    
    84   42   43 am   BACKBONE|DICT|INTERRES
    85   42  121 1    
    86   43   44 2    
    87   43   45 1    
    88   45   46 1    
    89   45   47 1    
    90   45  122 1    
    91   46  123 1    
    92   46  124 1    
    93   46  125 1    
    94   47   48 am   BACKBONE|DICT|INTERRES
    95   47  126 1    
    96   48   49 2    
    97   48   50 1    
    98   50   51 1    
    99   50   52 1    
   100   50  127 1    
   101   51  128 1    
   102   51  129 1    
   103   51  130 1    
   104   52   53 am   BACKBONE|DICT|INTERRES
   105   52  131 1    
   106   53   54 2    
   107   53   55 1    
   108   55   56 1    
   109   55   59 1    
   110   55  132 1    
   111   56   57 1    
   112   56  133 1    
   113   56  134 1    
   114   57   58 1    
   115   58  135 1    
   116   58  136 1    
   117   59   60 am   BACKBONE|DICT|INTERRES
   118   59  137 1    
   119   60   61 2    
   120   60   62 1    
   121   62   63 1    
   122   62   64 1    
   123   62  138 1    
   124   63  139 1    
   125   63  140 1    
   126   63  141 1    
   127   64   65 am   BACKBONE|DICT|INTERRES
   128   64  142 1    
   129   65   66 2    
   130   65   67 1    
   131   67   68 1    
   132   67   69 1    
   133   67  143 1    
   134   68  144 1    
   135   68  145 1    
   136   68  146 1    
   137   69   70 am   BACKBONE|DICT|INTERRES
   138   69  147 1    
   139   70   71 2    
   140   70   72 1    
   141   72   73 1    
   142   72   74 1    
   143   72  148 1    
   144   73  149 1    
   145   73  150 1    
   146   73  151 1    
   147   74   75 am   BACKBONE|DICT|INTERRES
   148   74  152 1    
   149   75   76 2    
   150   75   77 1    
   151   77   78 1    
   152   77   79 1    
   153   77  153 1    
   154   78  154 1    
   155   78  155 1    
   156   78  156 1    
   157   79   80 am   BACKBONE|DICT|INTERRES
   158   79  157 1    
   159   80   81 2    
@<TRIPOS>SUBSTRUCTURE
     1 UNK         1 GROUP             0       ****    0 ROOT    
