@<TRIPOS>MOLECULE
3R207
157   159    1
SMALL
USER_CHARGES


@<TRIPOS>ATOM
      1 CA        -47.9163  -25.5197    2.9478 C.3       0 UNK        -0.1975 
      2 C         -48.1947  -25.6687    4.4353 C.2       0 UNK         0.4852 
      3 O         -47.3701  -26.2336    5.1551 O.2       0 UNK        -0.5216 
      4 N         -49.3371  -25.1461    4.9070 N.am      1 UNK        -0.4461 
      5 CA        -49.8206  -25.2340    6.2947 C.3       1 UNK         0.0864 
      6 C6        -50.3136  -26.6641    6.6524 C.3       14 UNK        -0.0898 
      7 S7        -51.9072  -27.0046    5.8319 S.3       14 UNK        -0.2598 
      8 C8        -52.1896  -28.7566    6.2394 C.3       14 UNK         0.0286 
      9 C9        -52.3445  -28.9942    7.7359 C.ar      14 UNK        -0.0844 
     10 C10       -51.3938  -29.7523    8.4235 C.ar      14 UNK        -0.0881 
     11 C11       -51.5294  -29.9896    9.7937 C.ar      14 UNK        -0.0643 
     12 C12       -52.6145  -29.4448   10.4846 C.ar      14 UNK        -0.0930 
     13 C13       -53.5741  -28.6856    9.8079 C.ar      14 UNK        -0.0827 
     14 C14       -53.4421  -28.4753    8.4312 C.ar      14 UNK        -0.1249 
     15 C15       -54.7345  -28.0714   10.5733 C.3       14 UNK         0.0141 
     16 S16       -56.0539  -29.2826   10.8830 S.3       14 UNK        -0.2313 
     17 C17       -57.3173  -28.2478   11.7075 C.3       14 UNK        -0.0915 
     18 CA        -56.8442  -27.5528   13.0207 C.3       13 UNK         0.0968 
     19 C         -57.9509  -26.6707   13.6757 C.2       13 UNK         0.5732 
     20 N         -57.9729  -26.5110   14.9939 N.am      13 UNK        -0.7310 
     21 O         -58.7817  -26.0915   12.9798 O.2       13 UNK        -0.5035 
     22 N         -56.1538  -28.4719   13.9411 N.am      13 UNK        -0.4233 
     23 C         -56.6945  -29.5031   14.6023 C.2       13 UNK         0.4989 
     24 O         -57.8829  -29.8209   14.5374 O.2       13 UNK        -0.4996 
     25 CA        -55.7186  -30.3187   15.4673 C.3       12 UNK         0.0216 
     26 CB        -56.3351  -31.6354   15.9765 C.3       12 UNK        -0.1964 
     27 N         -54.5160  -30.6295   14.6878 N.am      12 UNK        -0.4276 
     28 C         -53.2589  -30.1873   14.8313 C.2       12 UNK         0.5020 
     29 O         -52.3907  -30.5198   14.0281 O.2       12 UNK        -0.5489 
     30 CA        -52.8785  -29.2230   15.9721 C.3       11 UNK         0.0294 
     31 CB        -51.4043  -29.3944   16.3878 C.3       11 UNK        -0.2019 
     32 N         -53.0551  -27.8469   15.5137 N.am      11 UNK        -0.4493 
     33 C         -53.9374  -26.9650   15.9981 C.2       11 UNK         0.4932 
     34 O         -54.7889  -27.2405   16.8440 O.2       11 UNK        -0.5029 
     35 CA        -53.8553  -25.5408   15.4158 C.3       10 UNK         0.0280 
     36 CB        -54.7917  -24.5374   16.1208 C.3       10 UNK        -0.1976 
     37 N         -52.4789  -25.0349   15.3776 N.am      10 UNK        -0.4242 
     38 C         -51.6393  -24.8472   16.4093 C.2       10 UNK         0.5072 
     39 O         -51.9432  -25.0306   17.5887 O.2       10 UNK        -0.5224 
     40 CA        -50.2016  -24.3948   16.0799 C.3       9 UNK         0.0343 
     41 CB        -49.2224  -25.5624   16.2813 C.3       9 UNK        -0.2003 
     42 N         -50.0451  -23.8723   14.7194 N.am      9 UNK        -0.4272 
     43 C         -50.5101  -22.6884   14.2954 C.2       9 UNK         0.4988 
     44 O         -51.0456  -21.8572   15.0290 O.2       9 UNK        -0.5108 
     45 CA        -50.4003  -22.4074   12.7872 C.3       8 UNK         0.0248 
     46 CB        -49.0270  -21.8135   12.4316 C.3       8 UNK        -0.2001 
     47 N         -50.6491  -23.6061   11.9802 N.am      8 UNK        -0.4140 
     48 C         -51.8414  -24.2100   11.8676 C.2       8 UNK         0.5028 
     49 O         -52.8687  -23.8077   12.4120 O.2       8 UNK        -0.5428 
     50 CA        -51.8915  -25.5006   11.0377 C.3       7 UNK         0.0264 
     51 CB        -51.9975  -25.1689    9.5439 C.3       7 UNK        -0.1988 
     52 N         -50.7467  -26.3810   11.2976 N.am      7 UNK        -0.4454 
     53 C         -50.5872  -27.0583   12.4468 C.2       7 UNK         0.5027 
     54 O         -51.4418  -27.0851   13.3341 O.2       7 UNK        -0.5083 
     55 CA        -49.2361  -27.7613   12.7060 C.3       6 UNK         0.0844 
     56 C56       -49.3063  -29.3009   12.5584 C.3       14 UNK        -0.0967 
     57 S57       -48.9896  -29.9318   10.8738 S.3       14 UNK        -0.2604 
     58 C58       -50.5098  -30.8571   10.5103 C.3       14 UNK         0.0134 
     59 N         -48.1101  -27.1742   11.9778 N.am      6 UNK        -0.4116 
     60 C         -47.6436  -25.9320   12.1364 C.2       5 UNK         0.5034 
     61 O         -48.1221  -25.1326   12.9411 O.2       5 UNK        -0.5045 
     62 CA        -46.4962  -25.4712   11.2241 C.3       5 UNK         0.0224 
     63 CB        -45.1638  -25.3912   11.9928 C.3       5 UNK        -0.1978 
     64 N         -46.3605  -26.2287    9.9711 N.am      5 UNK        -0.4737 
     65 C         -45.9069  -27.4728    9.7586 C.2       4 UNK         0.5027 
     66 O         -45.5767  -28.2480   10.6545 O.2       4 UNK        -0.5211 
     67 CA        -45.8219  -27.9298    8.2893 C.3       4 UNK         0.0297 
     68 CB        -47.1279  -28.6183    7.8639 C.3       4 UNK        -0.1993 
     69 N         -45.5387  -26.8183    7.3759 N.am      4 UNK        -0.4486 
     70 C         -44.3706  -26.1595    7.3242 C.2       3 UNK         0.4961 
     71 O         -43.3595  -26.5025    7.9377 O.2       3 UNK        -0.5105 
     72 CA        -44.3373  -24.8759    6.4792 C.3       3 UNK         0.0299 
     73 CB        -44.0792  -25.1914    4.9966 C.3       3 UNK        -0.1972 
     74 N         -45.5753  -24.1055    6.6258 N.am      3 UNK        -0.4305 
     75 C         -45.8849  -23.3777    7.7104 C.2       2 UNK         0.5006 
     76 O         -45.1218  -23.2094    8.6612 O.2       2 UNK        -0.5106 
     77 CA        -47.2817  -22.7326    7.7611 C.3       2 UNK         0.0296 
     78 CB        -47.2162  -21.2706    7.2908 C.3       2 UNK        -0.2002 
     79 N         -48.2877  -23.4500    6.9742 N.am      2 UNK        -0.4032 
     80 C         -48.8070  -24.6425    7.3020 C.2       1 UNK         0.5000 
     81 O         -48.4982  -25.2575    8.3246 O.2       1 UNK        -0.5238 
     82 H82       -48.7199  -24.9940    2.4323 H         1 UNK         0.0889 
     83 H83       -47.8045  -26.5021    2.4899 H         1 UNK         0.0889 
     84 H84       -46.9915  -24.9646    2.7933 H         1 UNK         0.0889 
     85 H85       -49.9694  -24.6926    4.2617 H         1 UNK         0.3028 
     86 H86       -50.6803  -24.5647    6.3618 H         1 UNK         0.0864 
     87 H87       -49.5852  -27.4181    6.3519 H         1 UNK         0.0720 
     88 H88       -50.4523  -26.7922    7.7254 H         1 UNK         0.0720 
     89 H89       -51.3717  -29.3517    5.8302 H         1 UNK         0.0814 
     90 H90       -53.0947  -29.0936    5.7323 H         1 UNK         0.0814 
     91 H91       -50.5464  -30.1661    7.8939 H         1 UNK         0.1469 
     92 H92       -52.7152  -29.6149   11.5479 H         1 UNK         0.1381 
     93 H93       -54.1805  -27.8887    7.9016 H         1 UNK         0.1206 
     94 H94       -54.3641  -27.6969   11.5271 H         1 UNK         0.0813 
     95 H95       -55.1405  -27.2147   10.0330 H         1 UNK         0.0813 
     96 H96       -58.1807  -28.8832   11.9113 H         1 UNK         0.0638 
     97 H97       -57.6563  -27.5031   10.9852 H         1 UNK         0.0638 
     98 H98       -56.0887  -26.8203   12.7393 H         1 UNK         0.0568 
     99 H99       -58.6876  -25.9319   15.4051 H         1 UNK         0.3450 
    100 H100      -57.2975  -26.9733   15.5814 H         1 UNK         0.3450 
    101 H101      -55.1650  -28.3141   14.0534 H         1 UNK         0.2987 
    102 H102      -55.5016  -29.7065   16.3393 H         1 UNK         0.0766 
    103 H103      -55.6290  -32.1893   16.5955 H         1 UNK         0.0798 
    104 H104      -56.6405  -32.2843   15.1547 H         1 UNK         0.0798 
    105 H105      -57.2180  -31.4447   16.5884 H         1 UNK         0.0798 
    106 H106      -54.6878  -31.2254   13.8902 H         1 UNK         0.3198 
    107 H107      -53.4738  -29.4343   16.8600 H         1 UNK         0.0843 
    108 H108      -50.7190  -29.1580   15.5725 H         1 UNK         0.0831 
    109 H109      -51.2028  -30.4203   16.6985 H         1 UNK         0.0831 
    110 H110      -51.1546  -28.7452   17.2273 H         1 UNK         0.0831 
    111 H111      -52.4296  -27.5491   14.7632 H         1 UNK         0.3133 
    112 H112      -54.1783  -25.6158   14.3764 H         1 UNK         0.0566 
    113 H113      -54.7198  -23.5473   15.6705 H         1 UNK         0.0814 
    114 H114      -55.8326  -24.8521   16.0440 H         1 UNK         0.0814 
    115 H115      -54.5597  -24.4414   17.1819 H         1 UNK         0.0814 
    116 H116      -52.1157  -24.8625   14.4499 H         1 UNK         0.3091 
    117 H117      -49.9365  -23.6005   16.7808 H         1 UNK         0.0702 
    118 H118      -48.2009  -25.2789   16.0261 H         1 UNK         0.0785 
    119 H119      -49.4973  -26.4232   15.6728 H         1 UNK         0.0785 
    120 H120      -49.2189  -25.8913   17.3213 H         1 UNK         0.0785 
    121 H121      -49.5311  -24.4507   14.0597 H         1 UNK         0.2998 
    122 H122      -51.1634  -21.6687   12.5324 H         1 UNK         0.0697 
    123 H123      -48.2110  -22.4963   12.6692 H         1 UNK         0.0825 
    124 H124      -48.8487  -20.8918   12.9871 H         1 UNK         0.0825 
    125 H125      -48.9621  -21.5685   11.3713 H         1 UNK         0.0825 
    126 H126      -49.8466  -24.0311   11.5396 H         1 UNK         0.3029 
    127 H127      -52.7999  -26.0302   11.3253 H         1 UNK         0.0897 
    128 H128      -52.1835  -26.0654    8.9569 H         1 UNK         0.0792 
    129 H129      -52.8293  -24.4894    9.3526 H         1 UNK         0.0792 
    130 H130      -51.0938  -24.6903    9.1698 H         1 UNK         0.0792 
    131 H131      -50.0167  -26.4201   10.6001 H         1 UNK         0.3086 
    132 H132      -49.0270  -27.5762   13.7603 H         1 UNK         0.0583 
    133 H133      -48.5476  -29.7480   13.2025 H         1 UNK         0.1020 
    134 H134      -50.2533  -29.6837   12.9383 H         1 UNK         0.1020 
    135 H135      -50.2536  -31.7060    9.8747 H         1 UNK         0.0694 
    136 H136      -50.9289  -31.2839   11.4230 H         1 UNK         0.0694 
    137 H137      -47.6365  -27.7822   11.3214 H         1 UNK         0.2989 
    138 H138      -46.7526  -24.4559   10.9168 H         1 UNK         0.1055 
    139 H139      -45.2505  -24.7225   12.8503 H         1 UNK         0.0806 
    140 H140      -44.3661  -25.0037   11.3586 H         1 UNK         0.0806 
    141 H141      -44.8506  -26.3638   12.3730 H         1 UNK         0.0806 
    142 H142      -46.7431  -25.7534    9.1593 H         1 UNK         0.3061 
    143 H143      -45.0078  -28.6528    8.2060 H         1 UNK         0.0734 
    144 H144      -47.1174  -28.8825    6.8063 H         1 UNK         0.0832 
    145 H145      -47.2787  -29.5399    8.4265 H         1 UNK         0.0832 
    146 H146      -47.9951  -27.9827    8.0441 H         1 UNK         0.0832 
    147 H147      -46.2955  -26.5146    6.7679 H         1 UNK         0.3156 
    148 H148      -43.5076  -24.2619    6.8367 H         1 UNK         0.0589 
    149 H149      -44.8506  -25.8335    4.5718 H         1 UNK         0.0808 
    150 H150      -44.0326  -24.2811    4.3989 H         1 UNK         0.0808 
    151 H151      -43.1266  -25.7082    4.8728 H         1 UNK         0.0808 
    152 H152      -46.2726  -24.2278    5.9057 H         1 UNK         0.3098 
    153 H153      -47.6041  -22.7381    8.8048 H         1 UNK         0.0720 
    154 H154      -48.1807  -20.7745    7.4005 H         1 UNK         0.0791 
    155 H155      -46.9145  -21.1941    6.2454 H         1 UNK         0.0791 
    156 H156      -46.4942  -20.7034    7.8803 H         1 UNK         0.0791 
    157 H157      -48.5925  -23.0128    6.1161 H         1 UNK         0.3028 
@<TRIPOS>BOND
     1    1    2 1    
     2    1   82 1    
     3    1   83 1    
     4    1   84 1    
     5    2    3 2    
     6    2    4 am   BACKBONE|DICT|INTERRES
     7    4    5 1    
     8    4   85 1    
     9    5    6 1    
    10    5   80 1    
    11    5   86 1    
    12    6    7 1    
    13    6   87 1    
    14    6   88 1    
    15    7    8 1    
    16    8    9 1    
    17    8   89 1    
    18    8   90 1    
    19    9   10 ar   
    20    9   14 ar   
    21   10   11 ar   
    22   10   91 1    
    23   11   12 ar   
    24   11   58 1    
    25   12   13 ar   
    26   12   92 1    
    27   13   14 ar   
    28   13   15 1    
    29   14   93 1    
    30   15   16 1    
    31   15   94 1    
    32   15   95 1    
    33   16   17 1    
    34   17   18 1    
    35   17   96 1    
    36   17   97 1    
    37   18   19 1    
    38   18   22 1    
    39   18   98 1    
    40   19   20 am   BACKBONE|DICT|INTERRES
    41   19   21 2    
    42   20   99 1    
    43   20  100 1    
    44   22   23 am   BACKBONE|DICT|INTERRES
    45   22  101 1    
    46   23   24 2    
    47   23   25 1    
    48   25   26 1    
    49   25   27 1    
    50   25  102 1    
    51   26  103 1    
    52   26  104 1    
    53   26  105 1    
    54   27   28 am   BACKBONE|DICT|INTERRES
    55   27  106 1    
    56   28   29 2    
    57   28   30 1    
    58   30   31 1    
    59   30   32 1    
    60   30  107 1    
    61   31  108 1    
    62   31  109 1    
    63   31  110 1    
    64   32   33 am   BACKBONE|DICT|INTERRES
    65   32  111 1    
    66   33   34 2    
    67   33   35 1    
    68   35   36 1    
    69   35   37 1    
    70   35  112 1    
    71   36  113 1    
    72   36  114 1    
    73   36  115 1    
    74   37   38 am   BACKBONE|DICT|INTERRES
    75   37  116 1    
    76   38   39 2    
    77   38   40 1    
    78   40   41 1    
    79   40   42 1    
    80   40  117 1    
    81   41  118 1    
    82   41  119 1    
    83   41  120 1    
    84   42   43 am   BACKBONE|DICT|INTERRES
    85   42  121 1    
    86   43   44 2    
    87   43   45 1    
    88   45   46 1    
    89   45   47 1    
    90   45  122 1    
    91   46  123 1    
    92   46  124 1    
    93   46  125 1    
    94   47   48 am   BACKBONE|DICT|INTERRES
    95   47  126 1    
    96   48   49 2    
    97   48   50 1    
    98   50   51 1    
    99   50   52 1    
   100   50  127 1    
   101   51  128 1    
   102   51  129 1    
   103   51  130 1    
   104   52   53 am   BACKBONE|DICT|INTERRES
   105   52  131 1    
   106   53   54 2    
   107   53   55 1    
   108   55   56 1    
   109   55   59 1    
   110   55  132 1    
   111   56   57 1    
   112   56  133 1    
   113   56  134 1    
   114   57   58 1    
   115   58  135 1    
   116   58  136 1    
   117   59   60 am   BACKBONE|DICT|INTERRES
   118   59  137 1    
   119   60   61 2    
   120   60   62 1    
   121   62   63 1    
   122   62   64 1    
   123   62  138 1    
   124   63  139 1    
   125   63  140 1    
   126   63  141 1    
   127   64   65 am   BACKBONE|DICT|INTERRES
   128   64  142 1    
   129   65   66 2    
   130   65   67 1    
   131   67   68 1    
   132   67   69 1    
   133   67  143 1    
   134   68  144 1    
   135   68  145 1    
   136   68  146 1    
   137   69   70 am   BACKBONE|DICT|INTERRES
   138   69  147 1    
   139   70   71 2    
   140   70   72 1    
   141   72   73 1    
   142   72   74 1    
   143   72  148 1    
   144   73  149 1    
   145   73  150 1    
   146   73  151 1    
   147   74   75 am   BACKBONE|DICT|INTERRES
   148   74  152 1    
   149   75   76 2    
   150   75   77 1    
   151   77   78 1    
   152   77   79 1    
   153   77  153 1    
   154   78  154 1    
   155   78  155 1    
   156   78  156 1    
   157   79   80 am   BACKBONE|DICT|INTERRES
   158   79  157 1    
   159   80   81 2    
@<TRIPOS>SUBSTRUCTURE
     1 UNK         1 GROUP             0       ****    0 ROOT    
