@<TRIPOS>MOLECULE
3R207
157   159    1
SMALL
USER_CHARGES


@<TRIPOS>ATOM
      1 CA        -49.8936  -27.6886    0.5406 C.3       0 UNK        -0.1975 
      2 C         -49.4136  -28.4334    1.7780 C.2       0 UNK         0.4852 
      3 O         -48.2835  -28.9236    1.7908 O.2       0 UNK        -0.5216 
      4 N         -50.2690  -28.5222    2.8074 N.am      1 UNK        -0.4461 
      5 CA        -50.0062  -29.1440    4.1128 C.3       1 UNK         0.0864 
      6 C6        -49.6789  -30.6614    3.9933 C.3       14 UNK        -0.0898 
      7 S7        -49.9850  -31.6701    5.4847 S.3       14 UNK        -0.2598 
      8 C8        -51.7601  -31.4122    5.8171 C.3       14 UNK         0.0286 
      9 C9        -51.9869  -30.4661    6.9911 C.ar      14 UNK        -0.0844 
     10 C10       -51.4954  -30.8063    8.2574 C.ar      14 UNK        -0.0881 
     11 C11       -51.7307  -29.9800    9.3588 C.ar      14 UNK        -0.0643 
     12 C12       -52.4585  -28.8050    9.1820 C.ar      14 UNK        -0.0930 
     13 C13       -52.9687  -28.4534    7.9329 C.ar      14 UNK        -0.0827 
     14 C14       -52.7246  -29.2848    6.8341 C.ar      14 UNK        -0.1249 
     15 C15       -53.7826  -27.1729    7.7989 C.3       14 UNK         0.0141 
     16 S16       -55.5795  -27.4640    7.6971 S.3       14 UNK        -0.2313 
     17 C17       -55.9812  -28.4343    9.1935 C.3       14 UNK        -0.0915 
     18 CA        -56.6713  -27.6002   10.3165 C.3       13 UNK         0.0968 
     19 C         -57.5078  -28.4942   11.2889 C.2       13 UNK         0.5732 
     20 N         -57.4617  -28.3074   12.6034 N.am      13 UNK        -0.7310 
     21 O         -58.2622  -29.3533   10.8378 O.2       13 UNK        -0.5035 
     22 N         -55.7690  -26.6371   10.9787 N.am      13 UNK        -0.4233 
     23 C         -54.7104  -26.9395   11.7428 C.2       13 UNK         0.4989 
     24 O         -54.2700  -28.0815   11.8821 O.2       13 UNK        -0.4996 
     25 CA        -54.0365  -25.7878   12.5229 C.3       12 UNK         0.0216 
     26 CB        -54.8607  -24.4821   12.5734 C.3       12 UNK        -0.1964 
     27 N         -53.6652  -26.2077   13.8822 N.am      12 UNK        -0.4276 
     28 C         -54.4652  -26.7707   14.8024 C.2       12 UNK         0.5020 
     29 O         -55.6848  -26.8991   14.6769 O.2       12 UNK        -0.5489 
     30 CA        -53.7773  -27.2920   16.0715 C.3       11 UNK         0.0294 
     31 CB        -53.0229  -28.6005   15.7774 C.3       11 UNK        -0.2019 
     32 N         -52.8418  -26.3027   16.6066 N.am      11 UNK        -0.4493 
     33 C         -53.1211  -25.4570   17.6065 C.2       11 UNK         0.4932 
     34 O         -54.1932  -25.4541   18.2142 O.2       11 UNK        -0.5029 
     35 CA        -52.0405  -24.4226   17.9789 C.3       10 UNK         0.0280 
     36 CB        -52.0929  -24.0070   19.4650 C.3       10 UNK        -0.1976 
     37 N         -50.6795  -24.8035   17.5793 N.am      10 UNK        -0.4242 
     38 C         -49.9292  -25.8111   18.0556 C.2       10 UNK         0.5072 
     39 O         -50.3091  -26.5849   18.9354 O.2       10 UNK        -0.5224 
     40 CA        -48.5203  -26.0157   17.4545 C.3       9 UNK         0.0343 
     41 CB        -48.4042  -27.4065   16.8069 C.3       9 UNK        -0.2003 
     42 N         -48.1373  -25.0033   16.4664 N.am      9 UNK        -0.4272 
     43 C         -47.7732  -23.7435   16.7440 C.2       9 UNK         0.4988 
     44 O         -47.6145  -23.3117   17.8859 O.2       9 UNK        -0.5108 
     45 CA        -47.6213  -22.7876   15.5451 C.3       8 UNK         0.0248 
     46 CB        -46.1863  -22.8218   14.9962 C.3       8 UNK        -0.2001 
     47 N         -48.5803  -23.0612   14.4655 N.am      8 UNK        -0.4140 
     48 C         -49.9134  -22.9783   14.6024 C.2       8 UNK         0.5028 
     49 O         -50.4673  -22.6018   15.6341 O.2       8 UNK        -0.5428 
     50 CA        -50.7831  -23.4504   13.4283 C.3       7 UNK         0.0264 
     51 CB        -50.9076  -22.3502   12.3639 C.3       7 UNK        -0.1988 
     52 N         -50.2818  -24.6897   12.8288 N.am      7 UNK        -0.4454 
     53 C         -50.3039  -25.8860   13.4344 C.2       7 UNK         0.5027 
     54 O         -50.8619  -26.0766   14.5167 O.2       7 UNK        -0.5083 
     55 CA        -49.5863  -27.0658   12.7446 C.3       6 UNK         0.0844 
     56 C56       -50.5327  -27.8404   11.8034 C.3       14 UNK        -0.0967 
     57 S57       -49.7843  -29.4165   11.2593 S.3       14 UNK        -0.2604 
     58 C58       -51.2447  -30.3724   10.7468 C.3       14 UNK         0.0134 
     59 N         -48.3643  -26.6444   12.0592 N.am      6 UNK        -0.4116 
     60 C         -47.2759  -26.1712   12.6773 C.2       5 UNK         0.5034 
     61 O         -47.1734  -26.0603   13.8986 O.2       5 UNK        -0.5045 
     62 CA        -46.1315  -25.6930   11.7739 C.3       5 UNK         0.0224 
     63 CB        -45.3068  -26.8817   11.2552 C.3       5 UNK        -0.1978 
     64 N         -46.6267  -24.8993   10.6468 N.am      5 UNK        -0.4737 
     65 C         -47.1652  -23.6781   10.7681 C.2       4 UNK         0.5027 
     66 O         -47.2785  -23.0844   11.8400 O.2       4 UNK        -0.5211 
     67 CA        -47.7019  -23.0277    9.4829 C.3       4 UNK         0.0297 
     68 CB        -46.5583  -22.3892    8.6790 C.3       4 UNK        -0.1993 
     69 N         -48.4407  -23.9662    8.6338 N.am      4 UNK        -0.4486 
     70 C         -49.5939  -24.5519    8.9852 C.2       3 UNK         0.4961 
     71 O         -50.1575  -24.3699   10.0604 O.2       3 UNK        -0.5105 
     72 CA        -50.2116  -25.5385    7.9883 C.3       3 UNK         0.0299 
     73 CB        -51.0089  -24.7895    6.9094 C.3       3 UNK        -0.1972 
     74 N         -49.2428  -26.4265    7.3484 N.am      3 UNK        -0.4305 
     75 C         -48.3920  -27.2579    7.9642 C.2       2 UNK         0.5006 
     76 O         -48.1969  -27.2516    9.1811 O.2       2 UNK        -0.5106 
     77 CA        -47.6428  -28.2649    7.0625 C.3       2 UNK         0.0296 
     78 CB        -46.9504  -29.3718    7.8793 C.3       2 UNK        -0.2002 
     79 N         -48.5181  -28.8967    6.0652 N.am      2 UNK        -0.4032 
     80 C         -48.9948  -28.3254    4.9510 C.2       1 UNK         0.5000 
     81 O         -48.7242  -27.1628    4.6336 O.2       1 UNK        -0.5238 
     82 H82       -49.2449  -26.8359    0.3419 H         1 UNK         0.0889 
     83 H83       -50.9127  -27.3197    0.6548 H         1 UNK         0.0889 
     84 H84       -49.8670  -28.3469   -0.3274 H         1 UNK         0.0889 
     85 H85       -51.1673  -28.0663    2.7277 H         1 UNK         0.3028 
     86 H86       -50.9506  -29.0419    4.6436 H         1 UNK         0.0864 
     87 H87       -48.6404  -30.8070    3.6907 H         1 UNK         0.0720 
     88 H88       -50.2778  -31.1028    3.1948 H         1 UNK         0.0720 
     89 H89       -52.2097  -32.3762    6.0591 H         1 UNK         0.0814 
     90 H90       -52.2684  -31.0624    4.9174 H         1 UNK         0.0814 
     91 H91       -50.9400  -31.7254    8.3863 H         1 UNK         0.1469 
     92 H92       -52.6513  -28.1693   10.0296 H         1 UNK         0.1381 
     93 H93       -53.1292  -29.0204    5.8667 H         1 UNK         0.1206 
     94 H94       -53.4705  -26.6428    6.8990 H         1 UNK         0.0813 
     95 H95       -53.5814  -26.4980    8.6324 H         1 UNK         0.0813 
     96 H96       -55.1055  -28.9561    9.5731 H         1 UNK         0.0638 
     97 H97       -56.6458  -29.2252    8.8427 H         1 UNK         0.0638 
     98 H98       -57.4275  -26.9812    9.8328 H         1 UNK         0.0568 
     99 H99       -56.8282  -27.6410   13.0274 H         1 UNK         0.3450 
    100 H100      -58.0313  -28.8908   13.1945 H         1 UNK         0.3450 
    101 H101      -56.0697  -25.6745   10.9422 H         1 UNK         0.2987 
    102 H102      -53.1046  -25.5722   11.9985 H         1 UNK         0.0766 
    103 H103      -54.3440  -23.7179   13.1542 H         1 UNK         0.0798 
    104 H104      -55.8394  -24.6340   13.0309 H         1 UNK         0.0798 
    105 H105      -55.0146  -24.0665   11.5769 H         1 UNK         0.0798 
    106 H106      -52.6741  -26.1671   14.1013 H         1 UNK         0.3198 
    107 H107      -54.5544  -27.5135   16.8064 H         1 UNK         0.0843 
    108 H108      -52.2195  -28.4588   15.0535 H         1 UNK         0.0831 
    109 H109      -53.6977  -29.3548   15.3699 H         1 UNK         0.0831 
    110 H110      -52.5837  -29.0143   16.6852 H         1 UNK         0.0831 
    111 H111      -51.9515  -26.2091   16.1259 H         1 UNK         0.3133 
    112 H112      -52.2788  -23.5349   17.3921 H         1 UNK         0.0566 
    113 H113      -51.3261  -23.2680   19.6973 H         1 UNK         0.0814 
    114 H114      -53.0562  -23.5597   19.7129 H         1 UNK         0.0814 
    115 H115      -51.9521  -24.8590   20.1306 H         1 UNK         0.0814 
    116 H116      -50.2846  -24.2164   16.8519 H         1 UNK         0.3091 
    117 H117      -47.8095  -25.9679   18.2819 H         1 UNK         0.0702 
    118 H118      -47.4076  -27.5731   16.3975 H         1 UNK         0.0785 
    119 H119      -49.1241  -27.5359   15.9991 H         1 UNK         0.0785 
    120 H120      -48.5900  -28.1958   17.5364 H         1 UNK         0.0785 
    121 H121      -48.1474  -25.2938   15.4938 H         1 UNK         0.2998 
    122 H122      -47.8192  -21.7766   15.9072 H         1 UNK         0.0697 
    123 H123      -45.9258  -23.8040   14.6024 H         1 UNK         0.0825 
    124 H124      -45.4641  -22.5821   15.7777 H         1 UNK         0.0825 
    125 H125      -46.0507  -22.0944   14.1956 H         1 UNK         0.0825 
    126 H126      -48.1911  -23.3162   13.5614 H         1 UNK         0.3029 
    127 H127      -51.7830  -23.6471   13.8213 H         1 UNK         0.0897 
    128 H128      -51.6132  -22.6351   11.5833 H         1 UNK         0.0792 
    129 H129      -51.2705  -21.4199   12.8029 H         1 UNK         0.0792 
    130 H130      -49.9498  -22.1367   11.8884 H         1 UNK         0.0792 
    131 H131      -49.9163  -24.6157   11.8812 H         1 UNK         0.3086 
    132 H132      -49.2865  -27.7476   13.5433 H         1 UNK         0.0583 
    133 H133      -51.4783  -28.0597   12.3038 H         1 UNK         0.1020 
    134 H134      -50.7679  -27.2355   10.9262 H         1 UNK         0.1020 
    135 H135      -50.9861  -31.4321   10.7668 H         1 UNK         0.0694 
    136 H136      -52.0491  -30.2446   11.4730 H         1 UNK         0.0694 
    137 H137      -48.3479  -26.7526   11.0477 H         1 UNK         0.2989 
    138 H138      -45.4768  -25.0589   12.3759 H         1 UNK         0.1055 
    139 H139      -44.9025  -27.4645   12.0840 H         1 UNK         0.0806 
    140 H140      -44.4621  -26.5466   10.6532 H         1 UNK         0.0806 
    141 H141      -45.9068  -27.5581   10.6456 H         1 UNK         0.0806 
    142 H142      -46.6377  -25.3460    9.7408 H         1 UNK         0.3061 
    143 H143      -48.3915  -22.2344    9.7797 H         1 UNK         0.0734 
    144 H144      -46.9366  -21.8462    7.8128 H         1 UNK         0.0832 
    145 H145      -46.0056  -21.6744    9.2905 H         1 UNK         0.0832 
    146 H146      -45.8446  -23.1339    8.3245 H         1 UNK         0.0832 
    147 H147      -48.0453  -24.1875    7.7315 H         1 UNK         0.3156 
    148 H148      -50.9033  -26.1747    8.5435 H         1 UNK         0.0589 
    149 H149      -50.3722  -24.1245    6.3245 H         1 UNK         0.0808 
    150 H150      -51.4894  -25.4802    6.2168 H         1 UNK         0.0808 
    151 H151      -51.7941  -24.1794    7.3583 H         1 UNK         0.0808 
    152 H152      -49.2687  -26.4787    6.3339 H         1 UNK         0.3098 
    153 H153      -46.8690  -27.7044    6.5342 H         1 UNK         0.0720 
    154 H154      -46.4147  -30.0681    7.2340 H         1 UNK         0.0791 
    155 H155      -47.6693  -29.9430    8.4692 H         1 UNK         0.0791 
    156 H156      -46.2215  -28.9507    8.5726 H         1 UNK         0.0791 
    157 H157      -48.8340  -29.8355    6.2762 H         1 UNK         0.3028 
@<TRIPOS>BOND
     1    1    2 1    
     2    1   82 1    
     3    1   83 1    
     4    1   84 1    
     5    2    3 2    
     6    2    4 am   BACKBONE|DICT|INTERRES
     7    4    5 1    
     8    4   85 1    
     9    5    6 1    
    10    5   80 1    
    11    5   86 1    
    12    6    7 1    
    13    6   87 1    
    14    6   88 1    
    15    7    8 1    
    16    8    9 1    
    17    8   89 1    
    18    8   90 1    
    19    9   10 ar   
    20    9   14 ar   
    21   10   11 ar   
    22   10   91 1    
    23   11   12 ar   
    24   11   58 1    
    25   12   13 ar   
    26   12   92 1    
    27   13   14 ar   
    28   13   15 1    
    29   14   93 1    
    30   15   16 1    
    31   15   94 1    
    32   15   95 1    
    33   16   17 1    
    34   17   18 1    
    35   17   96 1    
    36   17   97 1    
    37   18   19 1    
    38   18   22 1    
    39   18   98 1    
    40   19   20 am   BACKBONE|DICT|INTERRES
    41   19   21 2    
    42   20   99 1    
    43   20  100 1    
    44   22   23 am   BACKBONE|DICT|INTERRES
    45   22  101 1    
    46   23   24 2    
    47   23   25 1    
    48   25   26 1    
    49   25   27 1    
    50   25  102 1    
    51   26  103 1    
    52   26  104 1    
    53   26  105 1    
    54   27   28 am   BACKBONE|DICT|INTERRES
    55   27  106 1    
    56   28   29 2    
    57   28   30 1    
    58   30   31 1    
    59   30   32 1    
    60   30  107 1    
    61   31  108 1    
    62   31  109 1    
    63   31  110 1    
    64   32   33 am   BACKBONE|DICT|INTERRES
    65   32  111 1    
    66   33   34 2    
    67   33   35 1    
    68   35   36 1    
    69   35   37 1    
    70   35  112 1    
    71   36  113 1    
    72   36  114 1    
    73   36  115 1    
    74   37   38 am   BACKBONE|DICT|INTERRES
    75   37  116 1    
    76   38   39 2    
    77   38   40 1    
    78   40   41 1    
    79   40   42 1    
    80   40  117 1    
    81   41  118 1    
    82   41  119 1    
    83   41  120 1    
    84   42   43 am   BACKBONE|DICT|INTERRES
    85   42  121 1    
    86   43   44 2    
    87   43   45 1    
    88   45   46 1    
    89   45   47 1    
    90   45  122 1    
    91   46  123 1    
    92   46  124 1    
    93   46  125 1    
    94   47   48 am   BACKBONE|DICT|INTERRES
    95   47  126 1    
    96   48   49 2    
    97   48   50 1    
    98   50   51 1    
    99   50   52 1    
   100   50  127 1    
   101   51  128 1    
   102   51  129 1    
   103   51  130 1    
   104   52   53 am   BACKBONE|DICT|INTERRES
   105   52  131 1    
   106   53   54 2    
   107   53   55 1    
   108   55   56 1    
   109   55   59 1    
   110   55  132 1    
   111   56   57 1    
   112   56  133 1    
   113   56  134 1    
   114   57   58 1    
   115   58  135 1    
   116   58  136 1    
   117   59   60 am   BACKBONE|DICT|INTERRES
   118   59  137 1    
   119   60   61 2    
   120   60   62 1    
   121   62   63 1    
   122   62   64 1    
   123   62  138 1    
   124   63  139 1    
   125   63  140 1    
   126   63  141 1    
   127   64   65 am   BACKBONE|DICT|INTERRES
   128   64  142 1    
   129   65   66 2    
   130   65   67 1    
   131   67   68 1    
   132   67   69 1    
   133   67  143 1    
   134   68  144 1    
   135   68  145 1    
   136   68  146 1    
   137   69   70 am   BACKBONE|DICT|INTERRES
   138   69  147 1    
   139   70   71 2    
   140   70   72 1    
   141   72   73 1    
   142   72   74 1    
   143   72  148 1    
   144   73  149 1    
   145   73  150 1    
   146   73  151 1    
   147   74   75 am   BACKBONE|DICT|INTERRES
   148   74  152 1    
   149   75   76 2    
   150   75   77 1    
   151   77   78 1    
   152   77   79 1    
   153   77  153 1    
   154   78  154 1    
   155   78  155 1    
   156   78  156 1    
   157   79   80 am   BACKBONE|DICT|INTERRES
   158   79  157 1    
   159   80   81 2    
@<TRIPOS>SUBSTRUCTURE
     1 UNK         1 GROUP             0       ****    0 ROOT    
