@<TRIPOS>MOLECULE
3R207
157   159    1
SMALL
USER_CHARGES


@<TRIPOS>ATOM
      1 CA        -48.0827  -27.5314   11.3261 C.3       0 UNK        -0.1975 
      2 C         -48.2424  -27.8088    9.8393 C.2       0 UNK         0.4852 
      3 O         -48.2444  -26.8711    9.0395 O.2       0 UNK        -0.5216 
      4 N         -48.3324  -29.0954    9.4646 N.am      1 UNK        -0.4461 
      5 CA        -48.5728  -29.6223    8.1063 C.3       1 UNK         0.0864 
      6 C6        -49.9756  -29.2357    7.5606 C.3       14 UNK        -0.0898 
      7 S7        -51.3223  -29.9676    8.5443 S.3       14 UNK        -0.2598 
      8 C8        -52.7675  -29.5335    7.5258 C.3       14 UNK         0.0286 
      9 C9        -53.3292  -28.1695    7.8977 C.ar      14 UNK        -0.0844 
     10 C10       -52.8120  -27.0017    7.3279 C.ar      14 UNK        -0.0881 
     11 C11       -53.3287  -25.7506    7.6804 C.ar      14 UNK        -0.0643 
     12 C12       -54.3839  -25.6750    8.5969 C.ar      14 UNK        -0.0930 
     13 C13       -54.9131  -26.8368    9.1667 C.ar      14 UNK        -0.0827 
     14 C14       -54.3815  -28.0793    8.8126 C.ar      14 UNK        -0.1249 
     15 C15       -56.0644  -26.7605   10.1573 C.3       14 UNK         0.0141 
     16 S16       -55.4689  -26.4697   11.8505 S.3       14 UNK        -0.2313 
     17 C17       -56.9863  -26.8285   12.7965 C.3       14 UNK        -0.0915 
     18 CA        -56.7046  -27.1600   14.2910 C.3       13 UNK         0.0968 
     19 C         -58.0080  -27.2950   15.1360 C.2       13 UNK         0.5732 
     20 N         -58.0413  -28.1262   16.1711 N.am      13 UNK        -0.7310 
     21 O         -58.9965  -26.6123   14.8768 O.2       13 UNK        -0.5035 
     22 N         -55.7366  -28.2563   14.4785 N.am      13 UNK        -0.4233 
     23 C         -55.8783  -29.5322   14.0970 C.2       13 UNK         0.4989 
     24 O         -56.8746  -29.9848   13.5299 O.2       13 UNK        -0.4996 
     25 CA        -54.6816  -30.4442   14.4251 C.3       12 UNK         0.0216 
     26 CB        -54.8861  -31.9146   13.9993 C.3       12 UNK        -0.1964 
     27 N         -53.4277  -29.8908   13.8969 N.am      12 UNK        -0.4276 
     28 C         -53.0779  -29.7314   12.6105 C.2       12 UNK         0.5020 
     29 O         -53.7536  -30.1268   11.6607 O.2       12 UNK        -0.5489 
     30 CA        -51.7466  -29.0075   12.3247 C.3       11 UNK         0.0294 
     31 CB        -52.0023  -27.6065   11.7465 C.3       11 UNK        -0.2019 
     32 N         -50.8768  -28.8716   13.4954 N.am      11 UNK        -0.4493 
     33 C         -50.1397  -29.8539   14.0308 C.2       11 UNK         0.4932 
     34 O         -50.1142  -31.0054   13.5978 O.2       11 UNK        -0.5029 
     35 CA        -49.2927  -29.4912   15.2596 C.3       10 UNK         0.0280 
     36 CB        -47.9764  -28.8198   14.8348 C.3       10 UNK        -0.1976 
     37 N         -50.0185  -28.5940   16.1598 N.am      10 UNK        -0.4242 
     38 C         -50.6478  -28.9774   17.2790 C.2       10 UNK         0.5072 
     39 O         -50.6693  -30.1378   17.6915 O.2       10 UNK        -0.5224 
     40 CA        -51.3748  -27.8873   18.0901 C.3       9 UNK         0.0343 
     41 CB        -50.4659  -27.3606   19.2125 C.3       9 UNK        -0.2003 
     42 N         -51.8408  -26.7583   17.2812 N.am      9 UNK        -0.4272 
     43 C         -52.8176  -26.8326   16.3679 C.2       9 UNK         0.4988 
     44 O         -53.4549  -27.8567   16.1239 O.2       9 UNK        -0.5108 
     45 CA        -53.1235  -25.5617   15.5599 C.3       8 UNK         0.0248 
     46 CB        -54.1873  -24.7187   16.2816 C.3       8 UNK        -0.2001 
     47 N         -51.9654  -24.7167   15.2428 N.am      8 UNK        -0.4140 
     48 C         -50.8314  -25.1224   14.6555 C.2       8 UNK         0.5028 
     49 O         -50.5382  -26.3016   14.4473 O.2       8 UNK        -0.5428 
     50 CA        -49.8563  -24.0266   14.2032 C.3       7 UNK         0.0264 
     51 CB        -48.4847  -24.2070   14.8745 C.3       7 UNK        -0.1988 
     52 N         -49.6902  -24.0555   12.7488 N.am      7 UNK        -0.4454 
     53 C         -50.6668  -23.8158   11.8587 C.2       7 UNK         0.5027 
     54 O         -51.8070  -23.4717   12.1765 O.2       7 UNK        -0.5083 
     55 CA        -50.2801  -23.9571   10.3682 C.3       6 UNK         0.0844 
     56 C56       -51.4540  -23.6086    9.4113 C.3       14 UNK        -0.0967 
     57 S57       -51.0985  -24.0730    7.6846 S.3       14 UNK        -0.2604 
     58 C58       -52.7591  -24.4836    7.0544 C.3       14 UNK         0.0134 
     59 N         -49.0332  -23.2289   10.0800 N.am      6 UNK        -0.4116 
     60 C         -48.8503  -21.9020   10.2018 C.2       5 UNK         0.5034 
     61 O         -49.7430  -21.1057   10.4928 O.2       5 UNK        -0.5045 
     62 CA        -47.4309  -21.3591    9.9896 C.3       5 UNK         0.0224 
     63 CB        -46.6452  -21.3690   11.3152 C.3       5 UNK        -0.1978 
     64 N         -46.6972  -22.0926    8.9566 N.am      5 UNK        -0.4737 
     65 C         -45.6857  -21.5919    8.2352 C.2       4 UNK         0.5027 
     66 O         -45.2526  -20.4469    8.3683 O.2       4 UNK        -0.5211 
     67 CA        -45.0312  -22.5237    7.1983 C.3       4 UNK         0.0297 
     68 CB        -43.6548  -22.9962    7.6954 C.3       4 UNK        -0.1993 
     69 N         -45.8499  -23.6985    6.8906 N.am      4 UNK        -0.4486 
     70 C         -46.9056  -23.7081    6.0657 C.2       3 UNK         0.4961 
     71 O         -47.2836  -22.7197    5.4356 O.2       3 UNK        -0.5105 
     72 CA        -47.6937  -25.0282    5.9624 C.3       3 UNK         0.0299 
     73 CB        -48.2582  -25.2813    4.5489 C.3       3 UNK        -0.1972 
     74 N         -46.9740  -26.2021    6.4729 N.am      3 UNK        -0.4305 
     75 C         -45.8820  -26.7913    5.9534 C.2       2 UNK         0.5006 
     76 O         -45.2859  -26.3806    4.9577 O.2       2 UNK        -0.5106 
     77 CA        -45.3476  -28.0475    6.6736 C.3       2 UNK         0.0296 
     78 CB        -44.1174  -27.6932    7.5258 C.3       2 UNK        -0.2002 
     79 N         -46.3524  -28.6879    7.5262 N.am      2 UNK        -0.4032 
     80 C         -47.4636  -29.2896    7.0771 C.2       1 UNK         0.5000 
     81 O         -47.6379  -29.5645    5.8880 O.2       1 UNK        -0.5238 
     82 H82       -47.0686  -27.1957   11.5398 H         1 UNK         0.0889 
     83 H83       -48.2813  -28.4226   11.9193 H         1 UNK         0.0889 
     84 H84       -48.7729  -26.7540   11.6481 H         1 UNK         0.0889 
     85 H85       -48.2926  -29.8075   10.1808 H         1 UNK         0.3028 
     86 H86       -48.5437  -30.7091    8.2000 H         1 UNK         0.0864 
     87 H87       -50.0956  -28.1519    7.5359 H         1 UNK         0.0720 
     88 H88       -50.1060  -29.5830    6.5341 H         1 UNK         0.0720 
     89 H89       -53.5319  -30.2987    7.6696 H         1 UNK         0.0814 
     90 H90       -52.5107  -29.5634    6.4660 H         1 UNK         0.0814 
     91 H91       -52.0008  -27.0617    6.6157 H         1 UNK         0.1469 
     92 H92       -54.7925  -24.7122    8.8719 H         1 UNK         0.1381 
     93 H93       -54.7785  -28.9793    9.2633 H         1 UNK         0.1206 
     94 H94       -56.6365  -27.6892   10.1264 H         1 UNK         0.0813 
     95 H95       -56.7539  -25.9638    9.8743 H         1 UNK         0.0813 
     96 H96       -57.5225  -27.6526   12.3239 H         1 UNK         0.0638 
     97 H97       -57.6335  -25.9540   12.7110 H         1 UNK         0.0638 
     98 H98       -56.2139  -26.2828   14.7104 H         1 UNK         0.0568 
     99 H99       -58.8845  -28.1980   16.7181 H         1 UNK         0.3450 
    100 H100      -57.2360  -28.6823   16.4077 H         1 UNK         0.3450 
    101 H101      -54.8929  -28.0161   14.9924 H         1 UNK         0.2987 
    102 H102      -54.5803  -30.4359   15.5115 H         1 UNK         0.0766 
    103 H103      -55.7503  -32.3470   14.5049 H         1 UNK         0.0798 
    104 H104      -54.0204  -32.5253   14.2552 H         1 UNK         0.0798 
    105 H105      -55.0600  -32.0110   12.9273 H         1 UNK         0.0798 
    106 H106      -52.8176  -29.4776   14.5904 H         1 UNK         0.3198 
    107 H107      -51.2171  -29.5942   11.5713 H         1 UNK         0.0843 
    108 H108      -52.5099  -26.9596   12.4624 H         1 UNK         0.0831 
    109 H109      -52.6275  -27.6619   10.8567 H         1 UNK         0.0831 
    110 H110      -51.0762  -27.1183   11.4509 H         1 UNK         0.0831 
    111 H111      -50.7969  -27.9321   13.8874 H         1 UNK         0.3133 
    112 H112      -49.0404  -30.4201   15.7755 H         1 UNK         0.0566 
    113 H113      -47.3311  -28.6420   15.6952 H         1 UNK         0.0814 
    114 H114      -48.1488  -27.8599   14.3468 H         1 UNK         0.0814 
    115 H115      -47.4207  -29.4503   14.1395 H         1 UNK         0.0814 
    116 H116      -50.1050  -27.6288   15.8571 H         1 UNK         0.3091 
    117 H117      -52.2494  -28.3527   18.5498 H         1 UNK         0.0702 
    118 H118      -50.9928  -26.6506   19.8503 H         1 UNK         0.0785 
    119 H119      -49.5794  -26.8642   18.8155 H         1 UNK         0.0785 
    120 H120      -50.1239  -28.1756   19.8522 H         1 UNK         0.0785 
    121 H121      -51.3705  -25.8745   17.4110 H         1 UNK         0.2998 
    122 H122      -53.5414  -25.8883   14.6053 H         1 UNK         0.0697 
    123 H123      -53.7921  -24.2628   17.1902 H         1 UNK         0.0825 
    124 H124      -55.0448  -25.3262   16.5744 H         1 UNK         0.0825 
    125 H125      -54.5626  -23.9205   15.6407 H         1 UNK         0.0825 
    126 H126      -52.1042  -23.7232   15.3602 H         1 UNK         0.3029 
    127 H127      -50.2535  -23.0482   14.4820 H         1 UNK         0.0897 
    128 H128      -48.0249  -25.1603   14.6098 H         1 UNK         0.0792 
    129 H129      -48.5760  -24.1813   15.9612 H         1 UNK         0.0792 
    130 H130      -47.7955  -23.4116   14.5899 H         1 UNK         0.0792 
    131 H131      -48.7820  -24.3316   12.4088 H         1 UNK         0.3086 
    132 H132      -50.0542  -25.0151   10.2264 H         1 UNK         0.0583 
    133 H133      -52.3550  -24.1342    9.7293 H         1 UNK         0.1020 
    134 H134      -51.6983  -22.5463    9.4521 H         1 UNK         0.1020 
    135 H135      -53.4245  -23.6346    7.2193 H         1 UNK         0.0694 
    136 H136      -52.6988  -24.6168    5.9733 H         1 UNK         0.0694 
    137 H137      -48.2412  -23.8148    9.8679 H         1 UNK         0.2989 
    138 H138      -47.5427  -20.3221    9.6631 H         1 UNK         0.1055 
    139 H139      -47.1948  -20.8478   12.1005 H         1 UNK         0.0806 
    140 H140      -45.6829  -20.8675   11.2109 H         1 UNK         0.0806 
    141 H141      -46.4566  -22.3841   11.6661 H         1 UNK         0.0806 
    142 H142      -47.0212  -23.0182    8.7235 H         1 UNK         0.3061 
    143 H143      -44.8852  -21.9467    6.2825 H         1 UNK         0.0734 
    144 H144      -43.0010  -22.1466    7.8977 H         1 UNK         0.0832 
    145 H145      -43.7324  -23.5731    8.6179 H         1 UNK         0.0832 
    146 H146      -43.1548  -23.6164    6.9510 H         1 UNK         0.0832 
    147 H147      -45.6022  -24.5620    7.3507 H         1 UNK         0.3156 
    148 H148      -48.5452  -24.9102    6.6312 H         1 UNK         0.0589 
    149 H149      -48.8253  -26.2114    4.5102 H         1 UNK         0.0808 
    150 H150      -48.9342  -24.4795    4.2494 H         1 UNK         0.0808 
    151 H151      -47.4684  -25.3362    3.7994 H         1 UNK         0.0808 
    152 H152      -47.3702  -26.5951    7.3243 H         1 UNK         0.3098 
    153 H153      -45.0432  -28.7625    5.9063 H         1 UNK         0.0720 
    154 H154      -43.3390  -27.2326    6.9155 H         1 UNK         0.0791 
    155 H155      -43.6827  -28.5823    7.9831 H         1 UNK         0.0791 
    156 H156      -44.3642  -26.9913    8.3235 H         1 UNK         0.0791 
    157 H157      -46.2851  -28.5155    8.5186 H         1 UNK         0.3028 
@<TRIPOS>BOND
     1    1    2 1    
     2    1   82 1    
     3    1   83 1    
     4    1   84 1    
     5    2    3 2    
     6    2    4 am   BACKBONE|DICT|INTERRES
     7    4    5 1    
     8    4   85 1    
     9    5    6 1    
    10    5   80 1    
    11    5   86 1    
    12    6    7 1    
    13    6   87 1    
    14    6   88 1    
    15    7    8 1    
    16    8    9 1    
    17    8   89 1    
    18    8   90 1    
    19    9   10 ar   
    20    9   14 ar   
    21   10   11 ar   
    22   10   91 1    
    23   11   12 ar   
    24   11   58 1    
    25   12   13 ar   
    26   12   92 1    
    27   13   14 ar   
    28   13   15 1    
    29   14   93 1    
    30   15   16 1    
    31   15   94 1    
    32   15   95 1    
    33   16   17 1    
    34   17   18 1    
    35   17   96 1    
    36   17   97 1    
    37   18   19 1    
    38   18   22 1    
    39   18   98 1    
    40   19   20 am   BACKBONE|DICT|INTERRES
    41   19   21 2    
    42   20   99 1    
    43   20  100 1    
    44   22   23 am   BACKBONE|DICT|INTERRES
    45   22  101 1    
    46   23   24 2    
    47   23   25 1    
    48   25   26 1    
    49   25   27 1    
    50   25  102 1    
    51   26  103 1    
    52   26  104 1    
    53   26  105 1    
    54   27   28 am   BACKBONE|DICT|INTERRES
    55   27  106 1    
    56   28   29 2    
    57   28   30 1    
    58   30   31 1    
    59   30   32 1    
    60   30  107 1    
    61   31  108 1    
    62   31  109 1    
    63   31  110 1    
    64   32   33 am   BACKBONE|DICT|INTERRES
    65   32  111 1    
    66   33   34 2    
    67   33   35 1    
    68   35   36 1    
    69   35   37 1    
    70   35  112 1    
    71   36  113 1    
    72   36  114 1    
    73   36  115 1    
    74   37   38 am   BACKBONE|DICT|INTERRES
    75   37  116 1    
    76   38   39 2    
    77   38   40 1    
    78   40   41 1    
    79   40   42 1    
    80   40  117 1    
    81   41  118 1    
    82   41  119 1    
    83   41  120 1    
    84   42   43 am   BACKBONE|DICT|INTERRES
    85   42  121 1    
    86   43   44 2    
    87   43   45 1    
    88   45   46 1    
    89   45   47 1    
    90   45  122 1    
    91   46  123 1    
    92   46  124 1    
    93   46  125 1    
    94   47   48 am   BACKBONE|DICT|INTERRES
    95   47  126 1    
    96   48   49 2    
    97   48   50 1    
    98   50   51 1    
    99   50   52 1    
   100   50  127 1    
   101   51  128 1    
   102   51  129 1    
   103   51  130 1    
   104   52   53 am   BACKBONE|DICT|INTERRES
   105   52  131 1    
   106   53   54 2    
   107   53   55 1    
   108   55   56 1    
   109   55   59 1    
   110   55  132 1    
   111   56   57 1    
   112   56  133 1    
   113   56  134 1    
   114   57   58 1    
   115   58  135 1    
   116   58  136 1    
   117   59   60 am   BACKBONE|DICT|INTERRES
   118   59  137 1    
   119   60   61 2    
   120   60   62 1    
   121   62   63 1    
   122   62   64 1    
   123   62  138 1    
   124   63  139 1    
   125   63  140 1    
   126   63  141 1    
   127   64   65 am   BACKBONE|DICT|INTERRES
   128   64  142 1    
   129   65   66 2    
   130   65   67 1    
   131   67   68 1    
   132   67   69 1    
   133   67  143 1    
   134   68  144 1    
   135   68  145 1    
   136   68  146 1    
   137   69   70 am   BACKBONE|DICT|INTERRES
   138   69  147 1    
   139   70   71 2    
   140   70   72 1    
   141   72   73 1    
   142   72   74 1    
   143   72  148 1    
   144   73  149 1    
   145   73  150 1    
   146   73  151 1    
   147   74   75 am   BACKBONE|DICT|INTERRES
   148   74  152 1    
   149   75   76 2    
   150   75   77 1    
   151   77   78 1    
   152   77   79 1    
   153   77  153 1    
   154   78  154 1    
   155   78  155 1    
   156   78  156 1    
   157   79   80 am   BACKBONE|DICT|INTERRES
   158   79  157 1    
   159   80   81 2    
@<TRIPOS>SUBSTRUCTURE
     1 UNK         1 GROUP             0       ****    0 ROOT    
