@<TRIPOS>MOLECULE
3R207
157   159    1
SMALL
USER_CHARGES


@<TRIPOS>ATOM
      1 CA        -49.9379  -30.2306    2.6725 C.3       0 UNK        -0.1975 
      2 C         -49.1759  -29.0590    3.2736 C.2       0 UNK         0.4852 
      3 O         -48.2493  -28.5448    2.6464 O.2       0 UNK        -0.5216 
      4 N         -49.5564  -28.6358    4.4867 N.am      1 UNK        -0.4461 
      5 CA        -48.9344  -27.5276    5.2248 C.3       1 UNK         0.0864 
      6 C6        -49.8900  -26.9526    6.2979 C.3       14 UNK        -0.0898 
      7 S7        -50.4143  -28.1631    7.5676 S.3       14 UNK        -0.2598 
      8 C8        -52.2236  -28.1794    7.3521 C.3       14 UNK         0.0286 
      9 C9        -52.8857  -26.9723    8.0031 C.ar      14 UNK        -0.0844 
     10 C10       -53.1086  -25.8028    7.2718 C.ar      14 UNK        -0.0881 
     11 C11       -53.7039  -24.6908    7.8727 C.ar      14 UNK        -0.0643 
     12 C12       -54.1317  -24.7713    9.2022 C.ar      14 UNK        -0.0930 
     13 C13       -53.9146  -25.9353    9.9460 C.ar      14 UNK        -0.0827 
     14 C14       -53.2798  -27.0265    9.3426 C.ar      14 UNK        -0.1249 
     15 C15       -54.3211  -25.9911   11.4128 C.3       14 UNK         0.0141 
     16 S16       -56.0662  -26.4538   11.6486 S.3       14 UNK        -0.2313 
     17 C17       -56.0464  -28.2278   11.2170 C.3       14 UNK        -0.0915 
     18 CA        -56.1562  -29.1855   12.4325 C.3       13 UNK         0.0968 
     19 C         -56.1463  -30.6629   11.9391 C.2       13 UNK         0.5732 
     20 N         -55.0519  -31.4031   12.0910 N.am      13 UNK        -0.7310 
     21 O         -57.1480  -31.1416   11.4128 O.2       13 UNK        -0.5035 
     22 N         -55.1439  -28.9123   13.4658 N.am      13 UNK        -0.4233 
     23 C         -55.1829  -29.4191   14.7048 C.2       13 UNK         0.4989 
     24 O         -56.1679  -30.0025   15.1614 O.2       13 UNK        -0.4996 
     25 CA        -53.9321  -29.2698   15.5965 C.3       12 UNK         0.0216 
     26 CB        -53.5465  -30.6140   16.2501 C.3       12 UNK        -0.1964 
     27 N         -52.7487  -28.6585   14.9664 N.am      12 UNK        -0.4276 
     28 C         -52.0386  -29.1207   13.9253 C.2       12 UNK         0.5020 
     29 O         -52.3851  -30.0879   13.2448 O.2       12 UNK        -0.5489 
     30 CA        -50.7347  -28.3867   13.5602 C.3       11 UNK         0.0294 
     31 CB        -50.8906  -27.5603   12.2736 C.3       11 UNK        -0.2019 
     32 N         -50.2027  -27.5245   14.6190 N.am      11 UNK        -0.4493 
     33 C         -49.5061  -27.9658   15.6761 C.2       11 UNK         0.4932 
     34 O         -49.3138  -29.1567   15.9211 O.2       11 UNK        -0.5029 
     35 CA        -48.9120  -26.9016   16.6100 C.3       10 UNK         0.0280 
     36 CB        -47.6953  -26.2270   15.9533 C.3       10 UNK        -0.1976 
     37 N         -49.9053  -25.8827   16.9457 N.am      10 UNK        -0.4242 
     38 C         -50.5431  -25.7872   18.1214 C.2       10 UNK         0.5072 
     39 O         -50.3274  -26.5273   19.0823 O.2       10 UNK        -0.5224 
     40 CA        -51.6062  -24.6776   18.2639 C.3       9 UNK         0.0343 
     41 CB        -50.9999  -23.4401   18.9452 C.3       9 UNK        -0.2003 
     42 N         -52.2161  -24.2741   16.9939 N.am      9 UNK        -0.4272 
     43 C         -52.9541  -25.0776   16.2154 C.2       9 UNK         0.4988 
     44 O         -53.2728  -26.2217   16.5299 O.2       9 UNK        -0.5108 
     45 CA        -53.3515  -24.5540   14.8245 C.3       8 UNK         0.0248 
     46 CB        -54.7828  -23.9960   14.8441 C.3       8 UNK        -0.2001 
     47 N         -52.4381  -23.5508   14.2633 N.am      8 UNK        -0.4140 
     48 C         -51.1275  -23.7304   14.0517 C.2       8 UNK         0.5028 
     49 O         -50.5251  -24.7695   14.3312 O.2       8 UNK        -0.5428 
     50 CA        -50.3698  -22.5647   13.4040 C.3       7 UNK         0.0264 
     51 CB        -48.9255  -22.4605   13.9247 C.3       7 UNK        -0.1988 
     52 N         -50.3568  -22.7456   11.9546 N.am      7 UNK        -0.4454 
     53 C         -51.3886  -22.4587   11.1473 C.2       7 UNK         0.5027 
     54 O         -52.4358  -21.9553   11.5600 O.2       7 UNK        -0.5083 
     55 CA        -51.2515  -22.8186    9.6490 C.3       6 UNK         0.0844 
     56 C56       -52.0992  -21.8870    8.7357 C.3       14 UNK        -0.0967 
     57 S57       -52.2465  -22.5004    7.0227 S.3       14 UNK        -0.2604 
     58 C58       -53.8373  -23.3938    7.0895 C.3       14 UNK         0.0134 
     59 N         -49.8614  -22.9885    9.2110 N.am      6 UNK        -0.4116 
     60 C         -48.8921  -22.0672    9.1633 C.2       5 UNK         0.5034 
     61 O         -49.0518  -20.8856    9.4738 O.2       5 UNK        -0.5045 
     62 CA        -47.4976  -22.5791    8.7389 C.3       5 UNK         0.0224 
     63 CB        -46.4538  -21.4490    8.6567 C.3       5 UNK        -0.1978 
     64 N         -46.9838  -23.6333    9.6266 N.am      5 UNK        -0.4737 
     65 C         -47.4146  -24.9007    9.6523 C.2       4 UNK         0.5027 
     66 O         -48.3288  -25.3193    8.9393 O.2       4 UNK        -0.5211 
     67 CA        -46.7601  -25.8439   10.6673 C.3       4 UNK         0.0297 
     68 CB        -47.2377  -25.5166   12.0969 C.3       4 UNK        -0.1993 
     69 N         -47.1216  -27.2070   10.2881 N.am      4 UNK        -0.4486 
     70 C         -46.6328  -28.3422   10.7973 C.2       3 UNK         0.4961 
     71 O         -45.8097  -28.3940   11.7117 O.2       3 UNK        -0.5105 
     72 CA        -47.1322  -29.6464   10.1542 C.3       3 UNK         0.0299 
     73 CB        -48.5745  -29.9601   10.5828 C.3       3 UNK        -0.1972 
     74 N         -47.0448  -29.6248    8.6917 N.am      3 UNK        -0.4305 
     75 C         -45.8945  -29.6553    8.0007 C.2       2 UNK         0.5006 
     76 O         -44.7809  -29.6828    8.5264 O.2       2 UNK        -0.5106 
     77 CA        -45.9858  -29.6985    6.4650 C.3       2 UNK         0.0296 
     78 CB        -45.7877  -31.1367    5.9575 C.3       2 UNK        -0.2002 
     79 N         -47.2495  -29.1802    5.9395 N.am      2 UNK        -0.4032 
     80 C         -47.5500  -27.8791    5.8163 C.2       1 UNK         0.5000 
     81 O         -46.7817  -26.9715    6.1393 O.2       1 UNK        -0.5238 
     82 H82       -49.2589  -31.0609    2.4804 H         1 UNK         0.0889 
     83 H83       -50.3925  -29.9363    1.7269 H         1 UNK         0.0889 
     84 H84       -50.7292  -30.5852    3.3328 H         1 UNK         0.0889 
     85 H85       -50.3242  -29.0928    4.9583 H         1 UNK         0.3028 
     86 H86       -48.7503  -26.7258    4.5060 H         1 UNK         0.0864 
     87 H87       -50.7666  -26.5498    5.7938 H         1 UNK         0.0720 
     88 H88       -49.4350  -26.0967    6.7959 H         1 UNK         0.0720 
     89 H89       -52.6177  -29.0946    7.7964 H         1 UNK         0.0814 
     90 H90       -52.4740  -28.2294    6.2914 H         1 UNK         0.0814 
     91 H91       -52.7986  -25.7409    6.2387 H         1 UNK         0.1469 
     92 H92       -54.5975  -23.9152    9.6711 H         1 UNK         0.1381 
     93 H93       -53.0897  -27.9249    9.9119 H         1 UNK         0.1206 
     94 H94       -54.1515  -25.0149   11.8688 H         1 UNK         0.0813 
     95 H95       -53.6947  -26.6954   11.9572 H         1 UNK         0.0813 
     96 H96       -55.1526  -28.4596   10.6415 H         1 UNK         0.0638 
     97 H97       -56.8829  -28.3963   10.5363 H         1 UNK         0.0638 
     98 H98       -57.1340  -29.0185   12.8883 H         1 UNK         0.0568 
     99 H99       -55.0545  -32.3582   11.7712 H         1 UNK         0.3450 
    100 H100      -54.2155  -31.0107   12.5069 H         1 UNK         0.3450 
    101 H101      -54.2875  -28.4838   13.1547 H         1 UNK         0.2987 
    102 H102      -54.2300  -28.5972   16.4008 H         1 UNK         0.0766 
    103 H103      -54.3676  -31.0137   16.8466 H         1 UNK         0.0798 
    104 H104      -52.6920  -30.4991   16.9171 H         1 UNK         0.0798 
    105 H105      -53.2908  -31.3677   15.5045 H         1 UNK         0.0798 
    106 H106      -52.4223  -27.8189   15.4320 H         1 UNK         0.3198 
    107 H107      -49.9993  -29.1680   13.3613 H         1 UNK         0.0843 
    108 H108      -51.4750  -26.6560   12.4377 H         1 UNK         0.0831 
    109 H109      -51.3754  -28.1397   11.4877 H         1 UNK         0.0831 
    110 H110      -49.9191  -27.2559   11.8859 H         1 UNK         0.0831 
    111 H111      -50.3011  -26.5181   14.4815 H         1 UNK         0.3133 
    112 H112      -48.5645  -27.4074   17.5133 H         1 UNK         0.0566 
    113 H113      -47.2110  -25.5337   16.6410 H         1 UNK         0.0814 
    114 H114      -47.9733  -25.6676   15.0595 H         1 UNK         0.0814 
    115 H115      -46.9490  -26.9659   15.6581 H         1 UNK         0.0814 
    116 H116      -50.1727  -25.2579   16.1915 H         1 UNK         0.3091 
    117 H117      -52.4000  -25.0676   18.9046 H         1 UNK         0.0702 
    118 H118      -51.7567  -22.6779   19.1317 H         1 UNK         0.0785 
    119 H119      -50.2108  -22.9915   18.3401 H         1 UNK         0.0785 
    120 H120      -50.5619  -23.7013   19.9098 H         1 UNK         0.0785 
    121 H121      -52.0071  -23.3443   16.6616 H         1 UNK         0.2998 
    122 H122      -53.3320  -25.4145   14.1539 H         1 UNK         0.0697 
    123 H123      -54.8650  -23.1169   15.4844 H         1 UNK         0.0825 
    124 H124      -55.4864  -24.7407   15.2196 H         1 UNK         0.0825 
    125 H125      -55.1165  -23.7167   13.8445 H         1 UNK         0.0825 
    126 H126      -52.8548  -22.6835   13.9516 H         1 UNK         0.3029 
    127 H127      -50.8794  -21.6298   13.6485 H         1 UNK         0.0897 
    128 H128      -48.3604  -23.3753   13.7537 H         1 UNK         0.0792 
    129 H129      -48.9149  -22.2743   14.9994 H         1 UNK         0.0792 
    130 H130      -48.3892  -21.6397   13.4482 H         1 UNK         0.0792 
    131 H131      -49.5419  -23.1864   11.5563 H         1 UNK         0.3086 
    132 H132      -51.6681  -23.8215    9.5809 H         1 UNK         0.0583 
    133 H133      -53.1079  -21.7575    9.1313 H         1 UNK         0.1020 
    134 H134      -51.6661  -20.8859    8.7093 H         1 UNK         0.1020 
    135 H135      -54.6082  -22.7531    7.5204 H         1 UNK         0.0694 
    136 H136      -54.1601  -23.6159    6.0713 H         1 UNK         0.0694 
    137 H137      -49.5907  -23.9396    8.9686 H         1 UNK         0.2989 
    138 H138      -47.6091  -22.9981    7.7358 H         1 UNK         0.1055 
    139 H139      -46.2810  -20.9859    9.6291 H         1 UNK         0.0806 
    140 H140      -46.7812  -20.6630    7.9747 H         1 UNK         0.0806 
    141 H141      -45.4976  -21.8177    8.2849 H         1 UNK         0.0806 
    142 H142      -46.2504  -23.3595   10.2655 H         1 UNK         0.3061 
    143 H143      -45.6754  -25.7401   10.6008 H         1 UNK         0.0734 
    144 H144      -48.3252  -25.5213   12.1766 H         1 UNK         0.0832 
    145 H145      -46.8482  -26.2227   12.8295 H         1 UNK         0.0832 
    146 H146      -46.8889  -24.5296   12.3990 H         1 UNK         0.0832 
    147 H147      -47.7810  -27.2401    9.5178 H         1 UNK         0.3156 
    148 H148      -46.4960  -30.4581   10.5138 H         1 UNK         0.0589 
    149 H149      -49.2748  -29.1893   10.2600 H         1 UNK         0.0808 
    150 H150      -48.6443  -30.0348   11.6678 H         1 UNK         0.0808 
    151 H151      -48.9132  -30.9120   10.1737 H         1 UNK         0.0808 
    152 H152      -47.9148  -29.5929    8.1805 H         1 UNK         0.3098 
    153 H153      -45.1707  -29.0864    6.0725 H         1 UNK         0.0720 
    154 H154      -44.8361  -31.5445    6.3019 H         1 UNK         0.0791 
    155 H155      -45.7785  -31.1753    4.8680 H         1 UNK         0.0791 
    156 H156      -46.5748  -31.8036    6.3118 H         1 UNK         0.0791 
    157 H157      -47.9355  -29.8569    5.6386 H         1 UNK         0.3028 
@<TRIPOS>BOND
     1    1    2 1    
     2    1   82 1    
     3    1   83 1    
     4    1   84 1    
     5    2    3 2    
     6    2    4 am   BACKBONE|DICT|INTERRES
     7    4    5 1    
     8    4   85 1    
     9    5    6 1    
    10    5   80 1    
    11    5   86 1    
    12    6    7 1    
    13    6   87 1    
    14    6   88 1    
    15    7    8 1    
    16    8    9 1    
    17    8   89 1    
    18    8   90 1    
    19    9   10 ar   
    20    9   14 ar   
    21   10   11 ar   
    22   10   91 1    
    23   11   12 ar   
    24   11   58 1    
    25   12   13 ar   
    26   12   92 1    
    27   13   14 ar   
    28   13   15 1    
    29   14   93 1    
    30   15   16 1    
    31   15   94 1    
    32   15   95 1    
    33   16   17 1    
    34   17   18 1    
    35   17   96 1    
    36   17   97 1    
    37   18   19 1    
    38   18   22 1    
    39   18   98 1    
    40   19   20 am   BACKBONE|DICT|INTERRES
    41   19   21 2    
    42   20   99 1    
    43   20  100 1    
    44   22   23 am   BACKBONE|DICT|INTERRES
    45   22  101 1    
    46   23   24 2    
    47   23   25 1    
    48   25   26 1    
    49   25   27 1    
    50   25  102 1    
    51   26  103 1    
    52   26  104 1    
    53   26  105 1    
    54   27   28 am   BACKBONE|DICT|INTERRES
    55   27  106 1    
    56   28   29 2    
    57   28   30 1    
    58   30   31 1    
    59   30   32 1    
    60   30  107 1    
    61   31  108 1    
    62   31  109 1    
    63   31  110 1    
    64   32   33 am   BACKBONE|DICT|INTERRES
    65   32  111 1    
    66   33   34 2    
    67   33   35 1    
    68   35   36 1    
    69   35   37 1    
    70   35  112 1    
    71   36  113 1    
    72   36  114 1    
    73   36  115 1    
    74   37   38 am   BACKBONE|DICT|INTERRES
    75   37  116 1    
    76   38   39 2    
    77   38   40 1    
    78   40   41 1    
    79   40   42 1    
    80   40  117 1    
    81   41  118 1    
    82   41  119 1    
    83   41  120 1    
    84   42   43 am   BACKBONE|DICT|INTERRES
    85   42  121 1    
    86   43   44 2    
    87   43   45 1    
    88   45   46 1    
    89   45   47 1    
    90   45  122 1    
    91   46  123 1    
    92   46  124 1    
    93   46  125 1    
    94   47   48 am   BACKBONE|DICT|INTERRES
    95   47  126 1    
    96   48   49 2    
    97   48   50 1    
    98   50   51 1    
    99   50   52 1    
   100   50  127 1    
   101   51  128 1    
   102   51  129 1    
   103   51  130 1    
   104   52   53 am   BACKBONE|DICT|INTERRES
   105   52  131 1    
   106   53   54 2    
   107   53   55 1    
   108   55   56 1    
   109   55   59 1    
   110   55  132 1    
   111   56   57 1    
   112   56  133 1    
   113   56  134 1    
   114   57   58 1    
   115   58  135 1    
   116   58  136 1    
   117   59   60 am   BACKBONE|DICT|INTERRES
   118   59  137 1    
   119   60   61 2    
   120   60   62 1    
   121   62   63 1    
   122   62   64 1    
   123   62  138 1    
   124   63  139 1    
   125   63  140 1    
   126   63  141 1    
   127   64   65 am   BACKBONE|DICT|INTERRES
   128   64  142 1    
   129   65   66 2    
   130   65   67 1    
   131   67   68 1    
   132   67   69 1    
   133   67  143 1    
   134   68  144 1    
   135   68  145 1    
   136   68  146 1    
   137   69   70 am   BACKBONE|DICT|INTERRES
   138   69  147 1    
   139   70   71 2    
   140   70   72 1    
   141   72   73 1    
   142   72   74 1    
   143   72  148 1    
   144   73  149 1    
   145   73  150 1    
   146   73  151 1    
   147   74   75 am   BACKBONE|DICT|INTERRES
   148   74  152 1    
   149   75   76 2    
   150   75   77 1    
   151   77   78 1    
   152   77   79 1    
   153   77  153 1    
   154   78  154 1    
   155   78  155 1    
   156   78  156 1    
   157   79   80 am   BACKBONE|DICT|INTERRES
   158   79  157 1    
   159   80   81 2    
@<TRIPOS>SUBSTRUCTURE
     1 UNK         1 GROUP             0       ****    0 ROOT    
