@<TRIPOS>MOLECULE
3R207
157   159    1
SMALL
USER_CHARGES


@<TRIPOS>ATOM
      1 CA        -46.0656  -29.0866   11.0541 C.3       0 UNK        -0.1975 
      2 C         -46.6556  -28.8463    9.6725 C.2       0 UNK         0.4852 
      3 O         -45.9180  -28.8406    8.6862 O.2       0 UNK        -0.5216 
      4 N         -47.9805  -28.6568    9.5911 N.am      1 UNK        -0.4461 
      5 CA        -48.7251  -28.4696    8.3416 C.3       1 UNK         0.0864 
      6 C6        -50.2522  -28.4313    8.5863 C.3       14 UNK        -0.0898 
      7 S7        -51.1847  -28.7977    7.0629 S.3       14 UNK        -0.2598 
      8 C8        -52.8795  -28.9559    7.7066 C.3       14 UNK         0.0286 
      9 C9        -53.3972  -27.6652    8.3286 C.ar      14 UNK        -0.0844 
     10 C10       -53.4373  -26.4821    7.5834 C.ar      14 UNK        -0.0881 
     11 C11       -53.9332  -25.3035    8.1476 C.ar      14 UNK        -0.0643 
     12 C12       -54.4193  -25.3211    9.4588 C.ar      14 UNK        -0.0930 
     13 C13       -54.3965  -26.4997   10.2096 C.ar      14 UNK        -0.0827 
     14 C14       -53.8672  -27.6635    9.6447 C.ar      14 UNK        -0.1249 
     15 C15       -54.9477  -26.5089   11.6278 C.3       14 UNK         0.0141 
     16 S16       -56.7551  -26.7259   11.6597 S.3       14 UNK        -0.2313 
     17 C17       -56.9337  -28.5125   11.3282 C.3       14 UNK        -0.0915 
     18 CA        -57.3240  -29.3263   12.5888 C.3       13 UNK         0.0968 
     19 C         -57.5655  -30.8148   12.2166 C.2       13 UNK         0.5732 
     20 N         -58.8115  -31.2034   11.9817 N.am      13 UNK        -0.7310 
     21 O         -56.6309  -31.6035   12.0912 O.2       13 UNK        -0.5035 
     22 N         -56.3350  -29.1581   13.6632 N.am      13 UNK        -0.4233 
     23 C         -56.4568  -29.6148   14.9153 C.2       13 UNK         0.4989 
     24 O         -57.4420  -30.2310   15.3261 O.2       13 UNK        -0.4996 
     25 CA        -55.3060  -29.2793   15.8853 C.3       12 UNK         0.0216 
     26 CB        -55.2199  -30.2568   17.0775 C.3       12 UNK        -0.1964 
     27 N         -53.9992  -29.1211   15.2324 N.am      12 UNK        -0.4276 
     28 C         -53.2678  -30.0630   14.6159 C.2       12 UNK         0.5020 
     29 O         -53.6273  -31.2300   14.4622 O.2       12 UNK        -0.5489 
     30 CA        -51.8836  -29.6315   14.1015 C.3       11 UNK         0.0294 
     31 CB        -51.9782  -29.0125   12.6963 C.3       11 UNK        -0.2019 
     32 N         -51.2419  -28.6918   15.0264 N.am      11 UNK        -0.4493 
     33 C         -50.4864  -29.0657   16.0706 C.2       11 UNK         0.4932 
     34 O         -50.1247  -30.2252   16.2724 O.2       11 UNK        -0.5029 
     35 CA        -50.0803  -27.9758   17.0807 C.3       10 UNK         0.0280 
     36 CB        -48.6867  -27.4142   16.7648 C.3       10 UNK        -0.1976 
     37 N         -51.0546  -26.8831   17.1568 N.am      10 UNK        -0.4242 
     38 C         -52.2407  -26.9933   17.7763 C.2       10 UNK         0.5072 
     39 O         -52.5828  -27.9888   18.4147 O.2       10 UNK        -0.5224 
     40 CA        -53.2310  -25.8182   17.6649 C.3       9 UNK         0.0343 
     41 CB        -53.2169  -24.9819   18.9548 C.3       9 UNK        -0.2003 
     42 N         -53.0137  -24.9311   16.5190 N.am      9 UNK        -0.4272 
     43 C         -53.0622  -25.2895   15.2294 C.2       9 UNK         0.4988 
     44 O         -53.2711  -26.4438   14.8488 O.2       9 UNK        -0.5108 
     45 CA        -52.7975  -24.1946   14.1795 C.3       8 UNK         0.0248 
     46 CB        -52.5976  -22.7776   14.7665 C.3       8 UNK        -0.2001 
     47 N         -51.6711  -24.5515   13.3103 N.am      8 UNK        -0.4140 
     48 C         -50.4095  -24.8043   13.6921 C.2       8 UNK         0.5028 
     49 O         -50.0475  -24.8255   14.8703 O.2       8 UNK        -0.5428 
     50 CA        -49.3695  -25.1067   12.5926 C.3       7 UNK         0.0264 
     51 CB        -48.8289  -26.5380   12.7493 C.3       7 UNK        -0.1988 
     52 N         -49.8405  -24.9306   11.2124 N.am      7 UNK        -0.4454 
     53 C         -50.1352  -23.7593   10.6296 C.2       7 UNK         0.5027 
     54 O         -50.1289  -22.6783   11.2195 O.2       7 UNK        -0.5083 
     55 CA        -50.4850  -23.8283    9.1330 C.3       6 UNK         0.0844 
     56 C56       -51.7398  -22.9876    8.7687 C.3       14 UNK        -0.0967 
     57 S57       -52.3003  -23.3214    7.0633 S.3       14 UNK        -0.2604 
     58 C58       -53.9638  -24.0171    7.3334 C.3       14 UNK         0.0134 
     59 N         -49.2793  -23.5380    8.3496 N.am      6 UNK        -0.4116 
     60 C         -48.7075  -22.3437    8.1249 C.2       5 UNK         0.5034 
     61 O         -49.1853  -21.2593    8.4626 O.2       5 UNK        -0.5045 
     62 CA        -47.3479  -22.3821    7.4001 C.3       5 UNK         0.0224 
     63 CB        -46.6863  -20.9940    7.2603 C.3       5 UNK        -0.1978 
     64 N         -46.4236  -23.3411    8.0151 N.am      5 UNK        -0.4737 
     65 C         -45.9688  -23.3501    9.2788 C.2       4 UNK         0.5027 
     66 O         -46.2046  -22.4637   10.0995 O.2       4 UNK        -0.5211 
     67 CA        -45.1296  -24.5638    9.7226 C.3       4 UNK         0.0297 
     68 CB        -45.8325  -25.3005   10.8727 C.3       4 UNK        -0.1993 
     69 N         -44.8971  -25.5147    8.6330 N.am      4 UNK        -0.4486 
     70 C         -43.8646  -25.4685    7.7805 C.2       3 UNK         0.4961 
     71 O         -42.9220  -24.6838    7.8848 O.2       3 UNK        -0.5105 
     72 CA        -43.9117  -26.4354    6.5832 C.3       3 UNK         0.0299 
     73 CB        -43.1238  -27.7194    6.8873 C.3       3 UNK        -0.1972 
     74 N         -45.2815  -26.7741    6.1773 N.am      3 UNK        -0.4305 
     75 C         -46.1297  -25.9068    5.6015 C.2       2 UNK         0.5006 
     76 O         -45.8303  -24.7447    5.3305 O.2       2 UNK        -0.5106 
     77 CA        -47.5648  -26.3820    5.3174 C.3       2 UNK         0.0296 
     78 CB        -47.6847  -26.8986    3.8750 C.3       2 UNK        -0.2002 
     79 N         -48.0408  -27.4108    6.2432 N.am      2 UNK        -0.4032 
     80 C         -48.2441  -27.2310    7.5552 C.2       1 UNK         0.5000 
     81 O         -48.0670  -26.1577    8.1407 O.2       1 UNK        -0.5238 
     82 H82       -46.7675  -28.8372   11.8501 H         1 UNK         0.0889 
     83 H83       -45.1667  -28.4860   11.1913 H         1 UNK         0.0889 
     84 H84       -45.7883  -30.1356   11.1607 H         1 UNK         0.0889 
     85 H85       -48.5340  -28.6776   10.4339 H         1 UNK         0.3028 
     86 H86       -48.5044  -29.3560    7.7420 H         1 UNK         0.0864 
     87 H87       -50.5332  -29.1814    9.3277 H         1 UNK         0.0720 
     88 H88       -50.5703  -27.4683    8.9900 H         1 UNK         0.0720 
     89 H89       -52.9093  -29.7771    8.4245 H         1 UNK         0.0814 
     90 H90       -53.5413  -29.2410    6.8878 H         1 UNK         0.0814 
     91 H91       -53.0735  -26.4757    6.5648 H         1 UNK         0.1469 
     92 H92       -54.8263  -24.4188    9.8944 H         1 UNK         0.1381 
     93 H93       -53.8410  -28.5765   10.2219 H         1 UNK         0.1206 
     94 H94       -54.7096  -25.5637   12.1124 H         1 UNK         0.0813 
     95 H95       -54.4733  -27.2842   12.2275 H         1 UNK         0.0813 
     96 H96       -56.0171  -28.9066   10.8905 H         1 UNK         0.0638 
     97 H97       -57.7009  -28.6200   10.5593 H         1 UNK         0.0638 
     98 H98       -58.2645  -28.9214   12.9679 H         1 UNK         0.0568 
     99 H99       -58.9841  -32.1618   11.7216 H         1 UNK         0.3450 
    100 H100      -59.5840  -30.5613   12.0682 H         1 UNK         0.3450 
    101 H101      -55.4892  -28.6723   13.4145 H         1 UNK         0.2987 
    102 H102      -55.5469  -28.2966   16.2934 H         1 UNK         0.0766 
    103 H103      -56.1405  -30.2451   17.6620 H         1 UNK         0.0798 
    104 H104      -54.4072  -29.9883   17.7524 H         1 UNK         0.0798 
    105 H105      -55.0576  -31.2836   16.7487 H         1 UNK         0.0798 
    106 H106      -53.6397  -28.1674   15.2209 H         1 UNK         0.3198 
    107 H107      -51.2774  -30.5367   14.0192 H         1 UNK         0.0843 
    108 H108      -52.3443  -27.9870   12.7226 H         1 UNK         0.0831 
    109 H109      -52.6463  -29.5906   12.0566 H         1 UNK         0.0831 
    110 H110      -51.0054  -29.0071   12.2067 H         1 UNK         0.0831 
    111 H111      -51.5281  -27.7231   14.9614 H         1 UNK         0.3133 
    112 H112      -50.0232  -28.4519   18.0621 H         1 UNK         0.0566 
    113 H113      -48.3512  -26.7288   17.5432 H         1 UNK         0.0814 
    114 H114      -48.6740  -26.8751   15.8204 H         1 UNK         0.0814 
    115 H115      -47.9478  -28.2137   16.6960 H         1 UNK         0.0814 
    116 H116      -50.8382  -26.0354   16.6442 H         1 UNK         0.3091 
    117 H117      -54.2265  -26.2527   17.5524 H         1 UNK         0.0702 
    118 H118      -53.9868  -24.2101   18.9372 H         1 UNK         0.0785 
    119 H119      -52.2534  -24.4942   19.1087 H         1 UNK         0.0785 
    120 H120      -53.4090  -25.6068   19.8283 H         1 UNK         0.0785 
    121 H121      -52.8036  -23.9667   16.7320 H         1 UNK         0.2998 
    122 H122      -53.6845  -24.1566   13.5487 H         1 UNK         0.0697 
    123 H123      -52.4582  -22.0460   13.9702 H         1 UNK         0.0825 
    124 H124      -51.7250  -22.7159   15.4180 H         1 UNK         0.0825 
    125 H125      -53.4692  -22.4569   15.3389 H         1 UNK         0.0825 
    126 H126      -51.8732  -24.5985   12.3233 H         1 UNK         0.3029 
    127 H127      -48.5403  -24.4113   12.7406 H         1 UNK         0.0897 
    128 H128      -49.6327  -27.2656   12.8482 H         1 UNK         0.0792 
    129 H129      -48.2044  -26.6183   13.6378 H         1 UNK         0.0792 
    130 H130      -48.2103  -26.8353   11.9061 H         1 UNK         0.0792 
    131 H131      -49.8694  -25.7639   10.6438 H         1 UNK         0.3086 
    132 H132      -50.7312  -24.8681    8.9091 H         1 UNK         0.0583 
    133 H133      -52.5518  -23.2041    9.4633 H         1 UNK         0.1020 
    134 H134      -51.5570  -21.9186    8.8780 H         1 UNK         0.1020 
    135 H135      -54.5905  -23.2657    7.8164 H         1 UNK         0.0694 
    136 H136      -54.4223  -24.2178    6.3641 H         1 UNK         0.0694 
    137 H137      -48.7533  -24.3671    8.0855 H         1 UNK         0.2989 
    138 H138      -47.5517  -22.7491    6.3926 H         1 UNK         0.1055 
    139 H139      -46.4873  -20.5378    8.2304 H         1 UNK         0.0806 
    140 H140      -47.3302  -20.3098    6.7063 H         1 UNK         0.0806 
    141 H141      -45.7421  -21.0586    6.7196 H         1 UNK         0.0806 
    142 H142      -46.1396  -24.1036    7.4133 H         1 UNK         0.3061 
    143 H143      -44.1745  -24.1843   10.0920 H         1 UNK         0.0734 
    144 H144      -45.2197  -26.1156   11.2546 H         1 UNK         0.0832 
    145 H145      -46.0327  -24.6307   11.7100 H         1 UNK         0.0832 
    146 H146      -46.7876  -25.7105   10.5467 H         1 UNK         0.0832 
    147 H147      -45.6296  -26.1924    8.4640 H         1 UNK         0.3156 
    148 H148      -43.4270  -25.9373    5.7407 H         1 UNK         0.0589 
    149 H149      -43.5387  -28.2604    7.7377 H         1 UNK         0.0808 
    150 H150      -42.0850  -27.4887    7.1274 H         1 UNK         0.0808 
    151 H151      -43.1149  -28.3936    6.0308 H         1 UNK         0.0808 
    152 H152      -45.6080  -27.7034    6.4076 H         1 UNK         0.3098 
    153 H153      -48.2211  -25.5154    5.4233 H         1 UNK         0.0720 
    154 H154      -48.7155  -27.1552    3.6296 H         1 UNK         0.0791 
    155 H155      -47.0684  -27.7830    3.7087 H         1 UNK         0.0791 
    156 H156      -47.3638  -26.1388    3.1607 H         1 UNK         0.0791 
    157 H157      -48.2326  -28.3190    5.8447 H         1 UNK         0.3028 
@<TRIPOS>BOND
     1    1    2 1    
     2    1   82 1    
     3    1   83 1    
     4    1   84 1    
     5    2    3 2    
     6    2    4 am   BACKBONE|DICT|INTERRES
     7    4    5 1    
     8    4   85 1    
     9    5    6 1    
    10    5   80 1    
    11    5   86 1    
    12    6    7 1    
    13    6   87 1    
    14    6   88 1    
    15    7    8 1    
    16    8    9 1    
    17    8   89 1    
    18    8   90 1    
    19    9   10 ar   
    20    9   14 ar   
    21   10   11 ar   
    22   10   91 1    
    23   11   12 ar   
    24   11   58 1    
    25   12   13 ar   
    26   12   92 1    
    27   13   14 ar   
    28   13   15 1    
    29   14   93 1    
    30   15   16 1    
    31   15   94 1    
    32   15   95 1    
    33   16   17 1    
    34   17   18 1    
    35   17   96 1    
    36   17   97 1    
    37   18   19 1    
    38   18   22 1    
    39   18   98 1    
    40   19   20 am   BACKBONE|DICT|INTERRES
    41   19   21 2    
    42   20   99 1    
    43   20  100 1    
    44   22   23 am   BACKBONE|DICT|INTERRES
    45   22  101 1    
    46   23   24 2    
    47   23   25 1    
    48   25   26 1    
    49   25   27 1    
    50   25  102 1    
    51   26  103 1    
    52   26  104 1    
    53   26  105 1    
    54   27   28 am   BACKBONE|DICT|INTERRES
    55   27  106 1    
    56   28   29 2    
    57   28   30 1    
    58   30   31 1    
    59   30   32 1    
    60   30  107 1    
    61   31  108 1    
    62   31  109 1    
    63   31  110 1    
    64   32   33 am   BACKBONE|DICT|INTERRES
    65   32  111 1    
    66   33   34 2    
    67   33   35 1    
    68   35   36 1    
    69   35   37 1    
    70   35  112 1    
    71   36  113 1    
    72   36  114 1    
    73   36  115 1    
    74   37   38 am   BACKBONE|DICT|INTERRES
    75   37  116 1    
    76   38   39 2    
    77   38   40 1    
    78   40   41 1    
    79   40   42 1    
    80   40  117 1    
    81   41  118 1    
    82   41  119 1    
    83   41  120 1    
    84   42   43 am   BACKBONE|DICT|INTERRES
    85   42  121 1    
    86   43   44 2    
    87   43   45 1    
    88   45   46 1    
    89   45   47 1    
    90   45  122 1    
    91   46  123 1    
    92   46  124 1    
    93   46  125 1    
    94   47   48 am   BACKBONE|DICT|INTERRES
    95   47  126 1    
    96   48   49 2    
    97   48   50 1    
    98   50   51 1    
    99   50   52 1    
   100   50  127 1    
   101   51  128 1    
   102   51  129 1    
   103   51  130 1    
   104   52   53 am   BACKBONE|DICT|INTERRES
   105   52  131 1    
   106   53   54 2    
   107   53   55 1    
   108   55   56 1    
   109   55   59 1    
   110   55  132 1    
   111   56   57 1    
   112   56  133 1    
   113   56  134 1    
   114   57   58 1    
   115   58  135 1    
   116   58  136 1    
   117   59   60 am   BACKBONE|DICT|INTERRES
   118   59  137 1    
   119   60   61 2    
   120   60   62 1    
   121   62   63 1    
   122   62   64 1    
   123   62  138 1    
   124   63  139 1    
   125   63  140 1    
   126   63  141 1    
   127   64   65 am   BACKBONE|DICT|INTERRES
   128   64  142 1    
   129   65   66 2    
   130   65   67 1    
   131   67   68 1    
   132   67   69 1    
   133   67  143 1    
   134   68  144 1    
   135   68  145 1    
   136   68  146 1    
   137   69   70 am   BACKBONE|DICT|INTERRES
   138   69  147 1    
   139   70   71 2    
   140   70   72 1    
   141   72   73 1    
   142   72   74 1    
   143   72  148 1    
   144   73  149 1    
   145   73  150 1    
   146   73  151 1    
   147   74   75 am   BACKBONE|DICT|INTERRES
   148   74  152 1    
   149   75   76 2    
   150   75   77 1    
   151   77   78 1    
   152   77   79 1    
   153   77  153 1    
   154   78  154 1    
   155   78  155 1    
   156   78  156 1    
   157   79   80 am   BACKBONE|DICT|INTERRES
   158   79  157 1    
   159   80   81 2    
@<TRIPOS>SUBSTRUCTURE
     1 UNK         1 GROUP             0       ****    0 ROOT    
