@<TRIPOS>MOLECULE
3R207
157   159    1
SMALL
USER_CHARGES


@<TRIPOS>ATOM
      1 CA        -45.1226  -29.6280    9.1476 C.3       0 UNK        -0.1975 
      2 C         -45.8153  -29.9419    7.8295 C.2       0 UNK         0.4852 
      3 O         -45.6682  -31.0476    7.3072 O.2       0 UNK        -0.5216 
      4 N         -46.5615  -28.9745    7.2902 N.am      1 UNK        -0.4461 
      5 CA        -47.3404  -29.0807    6.0556 C.3       1 UNK         0.0864 
      6 C6        -48.8253  -29.4667    6.3119 C.3       14 UNK        -0.0898 
      7 S7        -49.6462  -28.5566    7.6705 S.3       14 UNK        -0.2598 
      8 C8        -51.2249  -28.0864    6.9001 C.3       14 UNK         0.0286 
      9 C9        -52.2410  -27.6437    7.9445 C.ar      14 UNK        -0.0844 
     10 C10       -52.6725  -26.3141    8.0111 C.ar      14 UNK        -0.0881 
     11 C11       -53.6363  -25.9264    8.9498 C.ar      14 UNK        -0.0643 
     12 C12       -54.1566  -26.8789    9.8309 C.ar      14 UNK        -0.0930 
     13 C13       -53.7296  -28.2069    9.7792 C.ar      14 UNK        -0.0827 
     14 C14       -52.7777  -28.5843    8.8292 C.ar      14 UNK        -0.1249 
     15 C15       -54.2847  -29.2291   10.7602 C.3       14 UNK         0.0141 
     16 S16       -55.5574  -30.2930   10.0080 S.3       14 UNK        -0.2313 
     17 C17       -56.9794  -29.1558    9.8360 C.3       14 UNK        -0.0915 
     18 CA        -58.1653  -29.3631   10.8278 C.3       13 UNK         0.0968 
     19 C         -58.8092  -30.7844   10.7880 C.2       13 UNK         0.5732 
     20 N         -59.3015  -31.3234   11.8964 N.am      13 UNK        -0.7310 
     21 O         -58.9183  -31.3880    9.7229 O.2       13 UNK        -0.5035 
     22 N         -57.9316  -28.7640   12.1570 N.am      13 UNK        -0.4233 
     23 C         -57.1728  -29.2374   13.1530 C.2       13 UNK         0.4989 
     24 O         -56.5740  -30.3142   13.1322 O.2       13 UNK        -0.4996 
     25 CA        -57.1106  -28.3726   14.4211 C.3       12 UNK         0.0216 
     26 CB        -58.1680  -28.8313   15.4391 C.3       12 UNK        -0.1964 
     27 N         -55.7831  -28.4757   15.0263 N.am      12 UNK        -0.4276 
     28 C         -54.7318  -27.7352   14.6599 C.2       12 UNK         0.5020 
     29 O         -54.7924  -26.8039   13.8538 O.2       12 UNK        -0.5489 
     30 CA        -53.3741  -28.1495   15.2475 C.3       11 UNK         0.0294 
     31 CB        -52.6052  -29.0108   14.2338 C.3       11 UNK        -0.2019 
     32 N         -52.5570  -26.9914   15.6099 N.am      11 UNK        -0.4493 
     33 C         -52.7658  -26.2190   16.6855 C.2       11 UNK         0.4932 
     34 O         -53.6916  -26.3965   17.4797 O.2       11 UNK        -0.5029 
     35 CA        -51.7574  -25.0729   16.9216 C.3       10 UNK         0.0280 
     36 CB        -51.7848  -24.5271   18.3654 C.3       10 UNK        -0.1976 
     37 N         -50.3904  -25.4238   16.5123 N.am      10 UNK        -0.4242 
     38 C         -49.6271  -26.4168   16.9963 C.2       10 UNK         0.5072 
     39 O         -49.9317  -27.1014   17.9740 O.2       10 UNK        -0.5224 
     40 CA        -48.3133  -26.7321   16.2590 C.3       9 UNK         0.0343 
     41 CB        -48.3576  -28.1524   15.6651 C.3       9 UNK        -0.2003 
     42 N         -48.0144  -25.7870   15.1759 N.am      9 UNK        -0.4272 
     43 C         -46.8683  -25.1014   15.0624 C.2       9 UNK         0.4988 
     44 O         -45.9611  -25.1388   15.8948 O.2       9 UNK        -0.5108 
     45 CA        -46.6746  -24.2414   13.8018 C.3       8 UNK         0.0248 
     46 CB        -46.0531  -25.0727   12.6664 C.3       8 UNK        -0.2001 
     47 N         -47.8948  -23.5940   13.3170 N.am      8 UNK        -0.4140 
     48 C         -48.5019  -22.5640   13.9238 C.2       8 UNK         0.5028 
     49 O         -48.1639  -22.1158   15.0194 O.2       8 UNK        -0.5428 
     50 CA        -49.6775  -21.9176   13.1781 C.3       7 UNK         0.0264 
     51 CB        -49.1719  -21.0439   12.0173 C.3       7 UNK        -0.1988 
     52 N         -50.5842  -22.9385   12.6570 N.am      7 UNK        -0.4454 
     53 C         -51.7488  -23.2793   13.2253 C.2       7 UNK         0.5027 
     54 O         -52.2169  -22.7062   14.2094 O.2       7 UNK        -0.5083 
     55 CA        -52.5313  -24.4642   12.6155 C.3       6 UNK         0.0844 
     56 C56       -53.7073  -23.9636   11.7400 C.3       14 UNK        -0.0967 
     57 S57       -53.1993  -23.4043   10.0734 S.3       14 UNK        -0.2604 
     58 C58       -54.1605  -24.4959    8.9763 C.3       14 UNK         0.0134 
     59 N         -51.6806  -25.4300   11.9118 N.am      6 UNK        -0.4116 
     60 C         -50.7091  -26.1577   12.4751 C.2       5 UNK         0.5034 
     61 O         -50.4927  -26.1829   13.6855 O.2       5 UNK        -0.5045 
     62 CA        -49.7683  -26.9326   11.5396 C.3       5 UNK         0.0224 
     63 CB        -50.1671  -28.4116   11.4544 C.3       5 UNK        -0.1978 
     64 N         -49.6571  -26.3623   10.1922 N.am      5 UNK        -0.4737 
     65 C         -49.1695  -25.1443    9.9245 C.2       4 UNK         0.5027 
     66 O         -48.8492  -24.3324   10.7948 O.2       4 UNK        -0.5211 
     67 CA        -49.0242  -24.7537    8.4476 C.3       4 UNK         0.0297 
     68 CB        -49.9413  -23.5709    8.1021 C.3       4 UNK        -0.1993 
     69 N         -47.6442  -24.3931    8.1257 N.am      4 UNK        -0.4486 
     70 C         -46.6076  -25.2363    8.1750 C.2       3 UNK         0.4961 
     71 O         -46.6859  -26.4190    8.5162 O.2       3 UNK        -0.5105 
     72 CA        -45.2600  -24.6996    7.6780 C.3       3 UNK         0.0299 
     73 CB        -44.1537  -24.9059    8.7265 C.3       3 UNK        -0.1972 
     74 N         -44.9377  -25.4501    6.4692 N.am      3 UNK        -0.4305 
     75 C         -45.4116  -25.1537    5.2509 C.2       2 UNK         0.5006 
     76 O         -45.8973  -24.0648    4.9423 O.2       2 UNK        -0.5106 
     77 CA        -45.4083  -26.3049    4.2316 C.3       2 UNK         0.0296 
     78 CB        -44.0102  -26.5029    3.6229 C.3       2 UNK        -0.2002 
     79 N         -45.8708  -27.5561    4.8442 N.am      2 UNK        -0.4032 
     80 C         -47.1312  -27.7881    5.2483 C.2       1 UNK         0.5000 
     81 O         -48.0702  -27.0178    5.0380 O.2       1 UNK        -0.5238 
     82 H82       -45.3645  -28.6274    9.5063 H         1 UNK         0.0889 
     83 H83       -44.0415  -29.6945    9.0297 H         1 UNK         0.0889 
     84 H84       -45.4284  -30.3428    9.9110 H         1 UNK         0.0889 
     85 H85       -46.6524  -28.0796    7.7733 H         1 UNK         0.3028 
     86 H86       -46.9163  -29.8709    5.4318 H         1 UNK         0.0864 
     87 H87       -49.4064  -29.3735    5.3927 H         1 UNK         0.0720 
     88 H88       -48.8704  -30.5247    6.5739 H         1 UNK         0.0720 
     89 H89       -51.6321  -28.9380    6.3529 H         1 UNK         0.0814 
     90 H90       -51.0439  -27.3001    6.1654 H         1 UNK         0.0814 
     91 H91       -52.2791  -25.5861    7.3153 H         1 UNK         0.1469 
     92 H92       -54.9090  -26.5956   10.5526 H         1 UNK         0.1381 
     93 H93       -52.4490  -29.6137    8.7807 H         1 UNK         0.1206 
     94 H94       -53.4721  -29.8608   11.1211 H         1 UNK         0.0813 
     95 H95       -54.6935  -28.7333   11.6410 H         1 UNK         0.0813 
     96 H96       -57.3452  -29.2696    8.8143 H         1 UNK         0.0638 
     97 H97       -56.6346  -28.1246    9.8940 H         1 UNK         0.0638 
     98 H98       -58.9686  -28.7408   10.4319 H         1 UNK         0.0568 
     99 H99       -59.7318  -32.2335   11.8530 H         1 UNK         0.3450 
    100 H100      -59.2093  -30.8482   12.7790 H         1 UNK         0.3450 
    101 H101      -58.4137  -27.8900   12.3097 H         1 UNK         0.2987 
    102 H102      -57.3090  -27.3307   14.1590 H         1 UNK         0.0766 
    103 H103      -58.1331  -28.2265   16.3456 H         1 UNK         0.0798 
    104 H104      -58.0292  -29.8744   15.7269 H         1 UNK         0.0798 
    105 H105      -59.1741  -28.7376   15.0280 H         1 UNK         0.0798 
    106 H106      -55.6343  -29.2628   15.6416 H         1 UNK         0.3198 
    107 H107      -53.5384  -28.7427   16.1499 H         1 UNK         0.0843 
    108 H108      -53.1516  -29.9274   14.0072 H         1 UNK         0.0831 
    109 H109      -51.6258  -29.3007   14.6148 H         1 UNK         0.0831 
    110 H110      -52.4610  -28.4809   13.2926 H         1 UNK         0.0831 
    111 H111      -51.7968  -26.7513   14.9802 H         1 UNK         0.3133 
    112 H112      -52.0714  -24.2621   16.2664 H         1 UNK         0.0566 
    113 H113      -51.0695  -23.7152   18.4960 H         1 UNK         0.0814 
    114 H114      -52.7704  -24.1319   18.6142 H         1 UNK         0.0814 
    115 H115      -51.5527  -25.3010   19.0976 H         1 UNK         0.0814 
    116 H116      -50.0504  -24.9427   15.6927 H         1 UNK         0.3091 
    117 H117      -47.5284  -26.7068   17.0174 H         1 UNK         0.0702 
    118 H118      -47.4118  -28.4117   15.1891 H         1 UNK         0.0785 
    119 H119      -49.1468  -28.2533   14.9192 H         1 UNK         0.0785 
    120 H120      -48.5437  -28.8978   16.4394 H         1 UNK         0.0785 
    121 H121      -48.7108  -25.7227   14.4413 H         1 UNK         0.2998 
    122 H122      -45.9654  -23.4510   14.0575 H         1 UNK         0.0697 
    123 H123      -46.7070  -25.8844   12.3495 H         1 UNK         0.0825 
    124 H124      -45.1091  -25.5197   12.9812 H         1 UNK         0.0825 
    125 H125      -45.8435  -24.4559   11.7923 H         1 UNK         0.0825 
    126 H126      -48.2249  -23.8779   12.3950 H         1 UNK         0.3029 
    127 H127      -50.2001  -21.2657   13.8818 H         1 UNK         0.0897 
    128 H128      -49.9983  -20.5402   11.5156 H         1 UNK         0.0792 
    129 H129      -48.4924  -20.2708   12.3787 H         1 UNK         0.0792 
    130 H130      -48.6345  -21.6272   11.2686 H         1 UNK         0.0792 
    131 H131      -50.2494  -23.4691   11.8586 H         1 UNK         0.3086 
    132 H132      -52.9639  -24.9931   13.4657 H         1 UNK         0.0583 
    133 H133      -54.2384  -23.1458   12.2318 H         1 UNK         0.1020 
    134 H134      -54.4506  -24.7541   11.6578 H         1 UNK         0.1020 
    135 H135      -55.2094  -24.4808    9.2766 H         1 UNK         0.0694 
    136 H136      -54.1336  -24.0803    7.9679 H         1 UNK         0.0694 
    137 H137      -51.7948  -25.4697   10.9087 H         1 UNK         0.2989 
    138 H138      -48.7747  -26.8886   11.9874 H         1 UNK         0.1055 
    139 H139      -50.1378  -28.8794   12.4390 H         1 UNK         0.0806 
    140 H140      -49.4859  -28.9721   10.8138 H         1 UNK         0.0806 
    141 H141      -51.1750  -28.5356   11.0633 H         1 UNK         0.0806 
    142 H142      -49.8810  -26.9792    9.4199 H         1 UNK         0.3061 
    143 H143      -49.3041  -25.6011    7.8191 H         1 UNK         0.0734 
    144 H144      -50.9846  -23.8245    8.2791 H         1 UNK         0.0832 
    145 H145      -49.7147  -22.6906    8.7056 H         1 UNK         0.0832 
    146 H146      -49.8542  -23.2920    7.0519 H         1 UNK         0.0832 
    147 H147      -47.4833  -23.4415    7.8297 H         1 UNK         0.3156 
    148 H148      -45.3359  -23.6332    7.4545 H         1 UNK         0.0589 
    149 H149      -44.0409  -25.9552    9.0028 H         1 UNK         0.0808 
    150 H150      -43.1903  -24.5516    8.3594 H         1 UNK         0.0808 
    151 H151      -44.3770  -24.3518    9.6389 H         1 UNK         0.0808 
    152 H152      -44.5770  -26.3805    6.6185 H         1 UNK         0.3098 
    153 H153      -46.0981  -26.0430    3.4263 H         1 UNK         0.0720 
    154 H154      -44.0197  -27.2748    2.8531 H         1 UNK         0.0791 
    155 H155      -43.2729  -26.7878    4.3745 H         1 UNK         0.0791 
    156 H156      -43.6576  -25.5837    3.1530 H         1 UNK         0.0791 
    157 H157      -45.1674  -28.2515    5.0496 H         1 UNK         0.3028 
@<TRIPOS>BOND
     1    1    2 1    
     2    1   82 1    
     3    1   83 1    
     4    1   84 1    
     5    2    3 2    
     6    2    4 am   BACKBONE|DICT|INTERRES
     7    4    5 1    
     8    4   85 1    
     9    5    6 1    
    10    5   80 1    
    11    5   86 1    
    12    6    7 1    
    13    6   87 1    
    14    6   88 1    
    15    7    8 1    
    16    8    9 1    
    17    8   89 1    
    18    8   90 1    
    19    9   10 ar   
    20    9   14 ar   
    21   10   11 ar   
    22   10   91 1    
    23   11   12 ar   
    24   11   58 1    
    25   12   13 ar   
    26   12   92 1    
    27   13   14 ar   
    28   13   15 1    
    29   14   93 1    
    30   15   16 1    
    31   15   94 1    
    32   15   95 1    
    33   16   17 1    
    34   17   18 1    
    35   17   96 1    
    36   17   97 1    
    37   18   19 1    
    38   18   22 1    
    39   18   98 1    
    40   19   20 am   BACKBONE|DICT|INTERRES
    41   19   21 2    
    42   20   99 1    
    43   20  100 1    
    44   22   23 am   BACKBONE|DICT|INTERRES
    45   22  101 1    
    46   23   24 2    
    47   23   25 1    
    48   25   26 1    
    49   25   27 1    
    50   25  102 1    
    51   26  103 1    
    52   26  104 1    
    53   26  105 1    
    54   27   28 am   BACKBONE|DICT|INTERRES
    55   27  106 1    
    56   28   29 2    
    57   28   30 1    
    58   30   31 1    
    59   30   32 1    
    60   30  107 1    
    61   31  108 1    
    62   31  109 1    
    63   31  110 1    
    64   32   33 am   BACKBONE|DICT|INTERRES
    65   32  111 1    
    66   33   34 2    
    67   33   35 1    
    68   35   36 1    
    69   35   37 1    
    70   35  112 1    
    71   36  113 1    
    72   36  114 1    
    73   36  115 1    
    74   37   38 am   BACKBONE|DICT|INTERRES
    75   37  116 1    
    76   38   39 2    
    77   38   40 1    
    78   40   41 1    
    79   40   42 1    
    80   40  117 1    
    81   41  118 1    
    82   41  119 1    
    83   41  120 1    
    84   42   43 am   BACKBONE|DICT|INTERRES
    85   42  121 1    
    86   43   44 2    
    87   43   45 1    
    88   45   46 1    
    89   45   47 1    
    90   45  122 1    
    91   46  123 1    
    92   46  124 1    
    93   46  125 1    
    94   47   48 am   BACKBONE|DICT|INTERRES
    95   47  126 1    
    96   48   49 2    
    97   48   50 1    
    98   50   51 1    
    99   50   52 1    
   100   50  127 1    
   101   51  128 1    
   102   51  129 1    
   103   51  130 1    
   104   52   53 am   BACKBONE|DICT|INTERRES
   105   52  131 1    
   106   53   54 2    
   107   53   55 1    
   108   55   56 1    
   109   55   59 1    
   110   55  132 1    
   111   56   57 1    
   112   56  133 1    
   113   56  134 1    
   114   57   58 1    
   115   58  135 1    
   116   58  136 1    
   117   59   60 am   BACKBONE|DICT|INTERRES
   118   59  137 1    
   119   60   61 2    
   120   60   62 1    
   121   62   63 1    
   122   62   64 1    
   123   62  138 1    
   124   63  139 1    
   125   63  140 1    
   126   63  141 1    
   127   64   65 am   BACKBONE|DICT|INTERRES
   128   64  142 1    
   129   65   66 2    
   130   65   67 1    
   131   67   68 1    
   132   67   69 1    
   133   67  143 1    
   134   68  144 1    
   135   68  145 1    
   136   68  146 1    
   137   69   70 am   BACKBONE|DICT|INTERRES
   138   69  147 1    
   139   70   71 2    
   140   70   72 1    
   141   72   73 1    
   142   72   74 1    
   143   72  148 1    
   144   73  149 1    
   145   73  150 1    
   146   73  151 1    
   147   74   75 am   BACKBONE|DICT|INTERRES
   148   74  152 1    
   149   75   76 2    
   150   75   77 1    
   151   77   78 1    
   152   77   79 1    
   153   77  153 1    
   154   78  154 1    
   155   78  155 1    
   156   78  156 1    
   157   79   80 am   BACKBONE|DICT|INTERRES
   158   79  157 1    
   159   80   81 2    
@<TRIPOS>SUBSTRUCTURE
     1 UNK         1 GROUP             0       ****    0 ROOT    
