@<TRIPOS>MOLECULE
3R207
157   159    1
SMALL
USER_CHARGES


@<TRIPOS>ATOM
      1 CA        -49.4205  -28.5937    9.9312 C.3       0 UNK        -0.1975 
      2 C         -48.8217  -29.1883    8.6709 C.2       0 UNK         0.4852 
      3 O         -47.8086  -29.8869    8.7408 O.2       0 UNK        -0.5216 
      4 N         -49.4414  -28.9228    7.5157 N.am      1 UNK        -0.4461 
      5 CA        -49.0063  -29.4119    6.2064 C.3       1 UNK         0.0864 
      6 C6        -50.1762  -29.4700    5.1946 C.3       14 UNK        -0.0898 
      7 S7        -51.4041  -30.7244    5.6959 S.3       14 UNK        -0.2598 
      8 C8        -52.9427  -29.7594    5.8048 C.3       14 UNK         0.0286 
      9 C9        -52.9328  -28.7404    6.9371 C.ar      14 UNK        -0.0844 
     10 C10       -52.9018  -27.3728    6.6466 C.ar      14 UNK        -0.0881 
     11 C11       -52.9854  -26.4259    7.6713 C.ar      14 UNK        -0.0643 
     12 C12       -53.0963  -26.8606    8.9937 C.ar      14 UNK        -0.0930 
     13 C13       -53.0809  -28.2219    9.3057 C.ar      14 UNK        -0.0827 
     14 C14       -53.0069  -29.1595    8.2705 C.ar      14 UNK        -0.1249 
     15 C15       -53.1203  -28.6730   10.7605 C.3       14 UNK         0.0141 
     16 S16       -54.7957  -29.1222   11.3059 S.3       14 UNK        -0.2313 
     17 C17       -55.6435  -27.5019   11.3509 C.3       14 UNK        -0.0915 
     18 CA        -56.5166  -27.2808   12.6142 C.3       13 UNK         0.0968 
     19 C         -57.7476  -28.2368   12.6497 C.2       13 UNK         0.5732 
     20 N         -57.8122  -29.2097   13.5531 N.am      13 UNK        -0.7310 
     21 O         -58.6667  -28.0799   11.8493 O.2       13 UNK        -0.5035 
     22 N         -55.7079  -27.2839   13.8411 N.am      13 UNK        -0.4233 
     23 C         -56.1236  -26.8145   15.0249 C.2       13 UNK         0.4989 
     24 O         -57.1426  -26.1358   15.1616 O.2       13 UNK        -0.4996 
     25 CA        -55.2704  -27.1504   16.2675 C.3       12 UNK         0.0216 
     26 CB        -56.1491  -27.4633   17.4968 C.3       12 UNK        -0.1964 
     27 N         -54.2775  -28.2178   16.0700 N.am      12 UNK        -0.4276 
     28 C         -54.4901  -29.4886   15.6994 C.2       12 UNK         0.5020 
     29 O         -55.6046  -29.9267   15.4055 O.2       12 UNK        -0.5489 
     30 CA        -53.2553  -30.4145   15.6154 C.3       11 UNK         0.0294 
     31 CB        -53.5509  -31.7054   14.8278 C.3       11 UNK        -0.2019 
     32 N         -52.0593  -29.7830   15.0406 N.am      11 UNK        -0.4493 
     33 C         -51.2636  -28.8909   15.6458 C.2       11 UNK         0.4932 
     34 O         -51.5012  -28.4312   16.7645 O.2       11 UNK        -0.5029 
     35 CA        -49.9994  -28.4408   14.8950 C.3       10 UNK         0.0280 
     36 CB        -50.0461  -28.6741   13.3737 C.3       10 UNK        -0.1976 
     37 N         -49.7699  -27.0236   15.1584 N.am      10 UNK        -0.4242 
     38 C         -48.5907  -26.4644   15.4622 C.2       10 UNK         0.5072 
     39 O         -47.5285  -27.0885   15.4979 O.2       10 UNK        -0.5224 
     40 CA        -48.5735  -24.9587   15.8038 C.3       9 UNK         0.0343 
     41 CB        -47.9069  -24.1431   14.6849 C.3       9 UNK        -0.2003 
     42 N         -49.9048  -24.4088   16.0698 N.am      9 UNK        -0.4272 
     43 C         -50.6112  -24.6467   17.1845 C.2       9 UNK         0.4988 
     44 O         -50.1543  -25.2366   18.1641 O.2       9 UNK        -0.5108 
     45 CA        -52.0758  -24.1678   17.2234 C.3       8 UNK         0.0248 
     46 CB        -52.2230  -22.9648   18.1701 C.3       8 UNK        -0.2001 
     47 N         -52.6607  -23.8222   15.9220 N.am      8 UNK        -0.4140 
     48 C         -52.8239  -24.6524   14.8827 C.2       8 UNK         0.5028 
     49 O         -52.4411  -25.8236   14.8775 O.2       8 UNK        -0.5428 
     50 CA        -53.5462  -24.1001   13.6403 C.3       7 UNK         0.0264 
     51 CB        -53.9220  -22.6020   13.7250 C.3       7 UNK        -0.1988 
     52 N         -52.8017  -24.3793   12.4090 N.am      7 UNK        -0.4454 
     53 C         -51.5710  -23.9489   12.0909 C.2       7 UNK         0.5027 
     54 O         -50.8717  -23.2496   12.8294 O.2       7 UNK        -0.5083 
     55 CA        -51.0856  -24.3344   10.6778 C.3       6 UNK         0.0844 
     56 C56       -51.8838  -23.5711    9.5883 C.3       14 UNK        -0.0967 
     57 S57       -51.4607  -24.1043    7.8895 S.3       14 UNK        -0.2604 
     58 C58       -52.9886  -24.9381    7.3438 C.3       14 UNK         0.0134 
     59 N         -49.6517  -24.1244   10.5105 N.am      6 UNK        -0.4116 
     60 C         -48.6824  -24.9135   10.9771 C.2       5 UNK         0.5034 
     61 O         -48.8906  -25.8953   11.6891 O.2       5 UNK        -0.5045 
     62 CA        -47.2459  -24.5585   10.5384 C.3       5 UNK         0.0224 
     63 CB        -46.2207  -25.6267   10.9629 C.3       5 UNK        -0.1978 
     64 N         -47.1336  -24.3489    9.0879 N.am      5 UNK        -0.4737 
     65 C         -47.5410  -23.2576    8.4196 C.2       4 UNK         0.5027 
     66 O         -48.0804  -22.2968    8.9720 O.2       4 UNK        -0.5211 
     67 CA        -47.3358  -23.2468    6.8894 C.3       4 UNK         0.0297 
     68 CB        -47.3565  -21.8244    6.2905 C.3       4 UNK        -0.1993 
     69 N         -46.1354  -23.9787    6.4694 N.am      4 UNK        -0.4486 
     70 C         -44.8686  -23.7426    6.8435 C.2       3 UNK         0.4961 
     71 O         -44.5194  -22.7514    7.4864 O.2       3 UNK        -0.5105 
     72 CA        -43.8070  -24.7935    6.4527 C.3       3 UNK         0.0299 
     73 CB        -42.8139  -25.0456    7.6075 C.3       3 UNK        -0.1972 
     74 N         -44.3294  -26.0783    5.9565 N.am      3 UNK        -0.4305 
     75 C         -45.1371  -26.9425    6.5907 C.2       2 UNK         0.5006 
     76 O         -45.6745  -26.7235    7.6797 O.2       2 UNK        -0.5106 
     77 CA        -45.3421  -28.2906    5.8849 C.3       2 UNK         0.0296 
     78 CB        -44.2115  -29.2627    6.2613 C.3       2 UNK        -0.2002 
     79 N         -46.6213  -28.9015    6.2373 N.am      2 UNK        -0.4032 
     80 C         -47.8048  -28.5905    5.6960 C.2       1 UNK         0.5000 
     81 O         -47.9623  -27.7137    4.8428 O.2       1 UNK        -0.5238 
     82 H82       -49.9883  -29.3521   10.4678 H         1 UNK         0.0889 
     83 H83       -50.0794  -27.7530    9.7134 H         1 UNK         0.0889 
     84 H84       -48.6220  -28.2387   10.5807 H         1 UNK         0.0889 
     85 H85       -50.2819  -28.3612    7.5144 H         1 UNK         0.3028 
     86 H86       -48.6475  -30.4372    6.3271 H         1 UNK         0.0864 
     87 H87       -49.8130  -29.7478    4.2033 H         1 UNK         0.0720 
     88 H88       -50.6473  -28.4920    5.0843 H         1 UNK         0.0720 
     89 H89       -53.7742  -30.4483    5.9598 H         1 UNK         0.0814 
     90 H90       -53.1290  -29.2759    4.8445 H         1 UNK         0.0814 
     91 H91       -52.8404  -27.0440    5.6180 H         1 UNK         0.1469 
     92 H92       -53.1921  -26.1336    9.7823 H         1 UNK         0.1381 
     93 H93       -53.0180  -30.2164    8.5005 H         1 UNK         0.1206 
     94 H94       -52.7212  -27.8972   11.4150 H         1 UNK         0.0813 
     95 H95       -52.4714  -29.5404   10.8881 H         1 UNK         0.0813 
     96 H96       -56.2457  -27.4058   10.4456 H         1 UNK         0.0638 
     97 H97       -54.9022  -26.7057   11.2958 H         1 UNK         0.0638 
     98 H98       -56.9368  -26.2773   12.5246 H         1 UNK         0.0568 
     99 H99       -58.6162  -29.8158   13.5666 H         1 UNK         0.3450 
    100 H100      -57.0450  -29.3745   14.1988 H         1 UNK         0.3450 
    101 H101      -54.8749  -27.8524   13.8193 H         1 UNK         0.2987 
    102 H102      -54.7032  -26.2485   16.4965 H         1 UNK         0.0766 
    103 H103      -56.7945  -26.6201   17.7463 H         1 UNK         0.0798 
    104 H104      -55.5404  -27.6718   18.3766 H         1 UNK         0.0798 
    105 H105      -56.7939  -28.3255   17.3229 H         1 UNK         0.0798 
    106 H106      -53.3131  -27.9643   16.2738 H         1 UNK         0.3198 
    107 H107      -53.0205  -30.7025   16.6425 H         1 UNK         0.0843 
    108 H108      -53.8252  -31.4913   13.7937 H         1 UNK         0.0831 
    109 H109      -54.3778  -32.2586   15.2756 H         1 UNK         0.0831 
    110 H110      -52.6898  -32.3738   14.8180 H         1 UNK         0.0831 
    111 H111      -51.8057  -30.0828   14.1108 H         1 UNK         0.3133 
    112 H112      -49.1795  -29.0316   15.3079 H         1 UNK         0.0566 
    113 H113      -49.1179  -28.3371   12.9129 H         1 UNK         0.0814 
    114 H114      -50.8616  -28.1211   12.9074 H         1 UNK         0.0814 
    115 H115      -50.1546  -29.7296   13.1229 H         1 UNK         0.0814 
    116 H116      -50.6126  -26.4540   15.1841 H         1 UNK         0.3091 
    117 H117      -47.9683  -24.8443   16.7056 H         1 UNK         0.0702 
    118 H118      -46.9204  -24.5397   14.4409 H         1 UNK         0.0785 
    119 H119      -47.7754  -23.1015   14.9780 H         1 UNK         0.0785 
    120 H120      -48.5010  -24.1603   13.7729 H         1 UNK         0.0785 
    121 H121      -50.3538  -23.9206   15.3063 H         1 UNK         0.2998 
    122 H122      -52.6624  -24.9943   17.6300 H         1 UNK         0.0697 
    123 H123      -51.6794  -22.0935   17.8026 H         1 UNK         0.0825 
    124 H124      -51.8326  -23.1967   19.1622 H         1 UNK         0.0825 
    125 H125      -53.2684  -22.6822   18.2964 H         1 UNK         0.0825 
    126 H126      -52.9899  -22.8729   15.8202 H         1 UNK         0.3029 
    127 H127      -54.4779  -24.6617   13.5659 H         1 UNK         0.0897 
    128 H128      -53.0472  -21.9598   13.8355 H         1 UNK         0.0792 
    129 H129      -54.5917  -22.4057   14.5635 H         1 UNK         0.0792 
    130 H130      -54.4477  -22.2825   12.8250 H         1 UNK         0.0792 
    131 H131      -53.2822  -24.9740   11.7522 H         1 UNK         0.3086 
    132 H132      -51.2600  -25.4045   10.5631 H         1 UNK         0.0583 
    133 H133      -52.9592  -23.6746    9.7390 H         1 UNK         0.1020 
    134 H134      -51.6848  -22.4997    9.6599 H         1 UNK         0.1020 
    135 H135      -53.8662  -24.4617    7.7825 H         1 UNK         0.0694 
    136 H136      -53.0820  -24.7926    6.2666 H         1 UNK         0.0694 
    137 H137      -49.3712  -23.3257    9.9501 H         1 UNK         0.2989 
    138 H138      -46.9844  -23.6265   11.0444 H         1 UNK         0.1055 
    139 H139      -46.4292  -26.5903   10.4957 H         1 UNK         0.0806 
    140 H140      -46.2335  -25.7770   12.0435 H         1 UNK         0.0806 
    141 H141      -45.2068  -25.3353   10.6882 H         1 UNK         0.0806 
    142 H142      -46.7077  -25.1056    8.5608 H         1 UNK         0.3061 
    143 H143      -48.1849  -23.7907    6.4725 H         1 UNK         0.0734 
    144 H144      -46.5769  -21.1931    6.7175 H         1 UNK         0.0832 
    145 H145      -47.2179  -21.8459    5.2097 H         1 UNK         0.0832 
    146 H146      -48.3116  -21.3342    6.4835 H         1 UNK         0.0832 
    147 H147      -46.3046  -24.8285    5.9494 H         1 UNK         0.3156 
    148 H148      -43.2471  -24.3565    5.6247 H         1 UNK         0.0589 
    149 H149      -42.0448  -25.7629    7.3213 H         1 UNK         0.0808 
    150 H150      -42.3025  -24.1270    7.8979 H         1 UNK         0.0808 
    151 H151      -43.3182  -25.4307    8.4948 H         1 UNK         0.0808 
    152 H152      -43.9712  -26.3565    5.0525 H         1 UNK         0.3098 
    153 H153      -45.3191  -28.1305    4.8046 H         1 UNK         0.0720 
    154 H154      -44.1914  -29.4607    7.3340 H         1 UNK         0.0791 
    155 H155      -43.2360  -28.8586    5.9867 H         1 UNK         0.0791 
    156 H156      -44.3210  -30.2174    5.7463 H         1 UNK         0.0791 
    157 H157      -46.6256  -29.5281    7.0349 H         1 UNK         0.3028 
@<TRIPOS>BOND
     1    1    2 1    
     2    1   82 1    
     3    1   83 1    
     4    1   84 1    
     5    2    3 2    
     6    2    4 am   BACKBONE|DICT|INTERRES
     7    4    5 1    
     8    4   85 1    
     9    5    6 1    
    10    5   80 1    
    11    5   86 1    
    12    6    7 1    
    13    6   87 1    
    14    6   88 1    
    15    7    8 1    
    16    8    9 1    
    17    8   89 1    
    18    8   90 1    
    19    9   10 ar   
    20    9   14 ar   
    21   10   11 ar   
    22   10   91 1    
    23   11   12 ar   
    24   11   58 1    
    25   12   13 ar   
    26   12   92 1    
    27   13   14 ar   
    28   13   15 1    
    29   14   93 1    
    30   15   16 1    
    31   15   94 1    
    32   15   95 1    
    33   16   17 1    
    34   17   18 1    
    35   17   96 1    
    36   17   97 1    
    37   18   19 1    
    38   18   22 1    
    39   18   98 1    
    40   19   20 am   BACKBONE|DICT|INTERRES
    41   19   21 2    
    42   20   99 1    
    43   20  100 1    
    44   22   23 am   BACKBONE|DICT|INTERRES
    45   22  101 1    
    46   23   24 2    
    47   23   25 1    
    48   25   26 1    
    49   25   27 1    
    50   25  102 1    
    51   26  103 1    
    52   26  104 1    
    53   26  105 1    
    54   27   28 am   BACKBONE|DICT|INTERRES
    55   27  106 1    
    56   28   29 2    
    57   28   30 1    
    58   30   31 1    
    59   30   32 1    
    60   30  107 1    
    61   31  108 1    
    62   31  109 1    
    63   31  110 1    
    64   32   33 am   BACKBONE|DICT|INTERRES
    65   32  111 1    
    66   33   34 2    
    67   33   35 1    
    68   35   36 1    
    69   35   37 1    
    70   35  112 1    
    71   36  113 1    
    72   36  114 1    
    73   36  115 1    
    74   37   38 am   BACKBONE|DICT|INTERRES
    75   37  116 1    
    76   38   39 2    
    77   38   40 1    
    78   40   41 1    
    79   40   42 1    
    80   40  117 1    
    81   41  118 1    
    82   41  119 1    
    83   41  120 1    
    84   42   43 am   BACKBONE|DICT|INTERRES
    85   42  121 1    
    86   43   44 2    
    87   43   45 1    
    88   45   46 1    
    89   45   47 1    
    90   45  122 1    
    91   46  123 1    
    92   46  124 1    
    93   46  125 1    
    94   47   48 am   BACKBONE|DICT|INTERRES
    95   47  126 1    
    96   48   49 2    
    97   48   50 1    
    98   50   51 1    
    99   50   52 1    
   100   50  127 1    
   101   51  128 1    
   102   51  129 1    
   103   51  130 1    
   104   52   53 am   BACKBONE|DICT|INTERRES
   105   52  131 1    
   106   53   54 2    
   107   53   55 1    
   108   55   56 1    
   109   55   59 1    
   110   55  132 1    
   111   56   57 1    
   112   56  133 1    
   113   56  134 1    
   114   57   58 1    
   115   58  135 1    
   116   58  136 1    
   117   59   60 am   BACKBONE|DICT|INTERRES
   118   59  137 1    
   119   60   61 2    
   120   60   62 1    
   121   62   63 1    
   122   62   64 1    
   123   62  138 1    
   124   63  139 1    
   125   63  140 1    
   126   63  141 1    
   127   64   65 am   BACKBONE|DICT|INTERRES
   128   64  142 1    
   129   65   66 2    
   130   65   67 1    
   131   67   68 1    
   132   67   69 1    
   133   67  143 1    
   134   68  144 1    
   135   68  145 1    
   136   68  146 1    
   137   69   70 am   BACKBONE|DICT|INTERRES
   138   69  147 1    
   139   70   71 2    
   140   70   72 1    
   141   72   73 1    
   142   72   74 1    
   143   72  148 1    
   144   73  149 1    
   145   73  150 1    
   146   73  151 1    
   147   74   75 am   BACKBONE|DICT|INTERRES
   148   74  152 1    
   149   75   76 2    
   150   75   77 1    
   151   77   78 1    
   152   77   79 1    
   153   77  153 1    
   154   78  154 1    
   155   78  155 1    
   156   78  156 1    
   157   79   80 am   BACKBONE|DICT|INTERRES
   158   79  157 1    
   159   80   81 2    
@<TRIPOS>SUBSTRUCTURE
     1 UNK         1 GROUP             0       ****    0 ROOT    
