@<TRIPOS>MOLECULE
3R207
157   159    1
SMALL
USER_CHARGES


@<TRIPOS>ATOM
      1 CA        -44.9676  -26.2382   10.8498 C.3       0 UNK        -0.1975 
      2 C         -45.1723  -26.8019    9.4524 C.2       0 UNK         0.4852 
      3 O         -44.4728  -26.4035    8.5192 O.2       0 UNK        -0.5216 
      4 N         -46.1172  -27.7370    9.2916 N.am      1 UNK        -0.4461 
      5 CA        -46.4898  -28.3012    7.9939 C.3       1 UNK         0.0864 
      6 C6        -47.2453  -29.6477    8.1169 C.3       14 UNK        -0.0898 
      7 S7        -48.6980  -29.6012    9.2149 S.3       14 UNK        -0.2598 
      8 C8        -49.5515  -31.1293    8.7200 C.3       14 UNK         0.0286 
      9 C9        -51.0268  -31.0287    9.0595 C.ar      14 UNK        -0.0844 
     10 C10       -51.8922  -30.3776    8.1791 C.ar      14 UNK        -0.0881 
     11 C11       -53.2334  -30.1837    8.5166 C.ar      14 UNK        -0.0643 
     12 C12       -53.7218  -30.7050    9.7192 C.ar      14 UNK        -0.0930 
     13 C13       -52.8657  -31.3641   10.6062 C.ar      14 UNK        -0.0827 
     14 C14       -51.5192  -31.5294   10.2672 C.ar      14 UNK        -0.1249 
     15 C15       -53.3827  -31.8736   11.9431 C.3       14 UNK         0.0141 
     16 S16       -53.5278  -30.5252   13.1636 S.3       14 UNK        -0.2313 
     17 C17       -55.2860  -30.0454   13.0224 C.3       14 UNK        -0.0915 
     18 CA        -55.5273  -28.6717   12.3392 C.3       13 UNK         0.0968 
     19 C         -57.0565  -28.3895   12.2287 C.2       13 UNK         0.5732 
     20 N         -57.6148  -27.3998   12.9181 N.am      13 UNK        -0.7310 
     21 O         -57.7520  -29.0900   11.4972 O.2       13 UNK        -0.5035 
     22 N         -54.7440  -27.6033   12.9730 N.am      13 UNK        -0.4233 
     23 C         -54.5909  -26.3646   12.4877 C.2       13 UNK         0.4989 
     24 O         -55.0508  -25.9889   11.4082 O.2       13 UNK        -0.4996 
     25 CA        -53.8211  -25.3785   13.3889 C.3       12 UNK         0.0216 
     26 CB        -54.0133  -23.9064   12.9703 C.3       12 UNK        -0.1964 
     27 N         -54.1158  -25.5518   14.8188 N.am      12 UNK        -0.4276 
     28 C         -55.3218  -25.5203   15.4131 C.2       12 UNK         0.5020 
     29 O         -56.3784  -25.3513   14.8020 O.2       12 UNK        -0.5489 
     30 CA        -55.3862  -25.7667   16.9348 C.3       11 UNK         0.0294 
     31 CB        -56.0650  -27.1168   17.2251 C.3       11 UNK        -0.2019 
     32 N         -54.0794  -25.7479   17.5957 N.am      11 UNK        -0.4493 
     33 C         -53.3396  -24.6530   17.8203 C.2       11 UNK         0.4932 
     34 O         -53.7263  -23.5075   17.5895 O.2       11 UNK        -0.5029 
     35 CA        -51.9131  -24.8737   18.3633 C.3       10 UNK         0.0280 
     36 CB        -51.8729  -24.6183   19.8788 C.3       10 UNK        -0.1976 
     37 N         -51.3472  -26.2018   18.0813 N.am      10 UNK        -0.4242 
     38 C         -51.1521  -26.7197   16.8604 C.2       10 UNK         0.5072 
     39 O         -51.4643  -26.1476   15.8112 O.2       10 UNK        -0.5224 
     40 CA        -50.5672  -28.1346   16.8044 C.3       9 UNK         0.0343 
     41 CB        -51.6272  -29.1878   17.1771 C.3       9 UNK        -0.2003 
     42 N         -50.1027  -28.3744   15.4449 N.am      9 UNK        -0.4272 
     43 C         -49.1068  -29.1853   15.0742 C.2       9 UNK         0.4988 
     44 O         -48.4616  -29.8817   15.8589 O.2       9 UNK        -0.5108 
     45 CA        -48.7749  -29.2368   13.5717 C.3       8 UNK         0.0248 
     46 CB        -49.3868  -30.4962   12.9411 C.3       8 UNK        -0.2001 
     47 N         -49.2448  -28.0529   12.8444 N.am      8 UNK        -0.4140 
     48 C         -48.6547  -26.8515   12.8782 C.2       8 UNK         0.5028 
     49 O         -47.5807  -26.6466   13.4460 O.2       8 UNK        -0.5428 
     50 CA        -49.3916  -25.6858   12.1837 C.3       7 UNK         0.0264 
     51 CB        -48.5270  -24.4188   12.0693 C.3       7 UNK        -0.1988 
     52 N         -49.9113  -26.0170   10.8534 N.am      7 UNK        -0.4454 
     53 C         -51.0182  -26.7317   10.6066 C.2       7 UNK         0.5027 
     54 O         -51.6537  -27.2903   11.5014 O.2       7 UNK        -0.5083 
     55 CA        -51.4648  -26.8744    9.1343 C.3       6 UNK         0.0844 
     56 C56       -53.0006  -27.1057    8.9847 C.3       14 UNK        -0.0967 
     57 S57       -53.4600  -27.6728    7.3073 S.3       14 UNK        -0.2604 
     58 C58       -54.1347  -29.3453    7.6191 C.3       14 UNK         0.0134 
     59 N         -50.9328  -25.7993    8.2816 N.am      6 UNK        -0.4116 
     60 C         -51.3537  -24.5258    8.2603 C.2       5 UNK         0.5034 
     61 O         -52.2285  -24.0803    9.0045 O.2       5 UNK        -0.5045 
     62 CA        -50.7211  -23.6114    7.1933 C.3       5 UNK         0.0224 
     63 CB        -51.7822  -22.7276    6.5067 C.3       5 UNK        -0.1978 
     64 N         -49.6129  -22.7824    7.6843 N.am      5 UNK        -0.4737 
     65 C         -49.5932  -21.8963    8.6956 C.2       4 UNK         0.5027 
     66 O         -50.5518  -21.6582    9.4286 O.2       4 UNK        -0.5211 
     67 CA        -48.2990  -21.0719    8.8886 C.3       4 UNK         0.0297 
     68 CB        -47.9333  -20.8671   10.3749 C.3       4 UNK        -0.1993 
     69 N         -47.1471  -21.5570    8.1164 N.am      4 UNK        -0.4486 
     70 C         -46.5033  -22.7212    8.2687 C.2       3 UNK         0.4961 
     71 O         -46.7431  -23.5443    9.1524 O.2       3 UNK        -0.5105 
     72 CA        -45.4495  -23.0449    7.2013 C.3       3 UNK         0.0299 
     73 CB        -44.0432  -23.1371    7.8152 C.3       3 UNK        -0.1972 
     74 N         -45.7956  -24.2962    6.5240 N.am      3 UNK        -0.4305 
     75 C         -46.8544  -24.4370    5.7083 C.2       2 UNK         0.5006 
     76 O         -47.6137  -23.5110    5.4178 O.2       2 UNK        -0.5106 
     77 CA        -47.1343  -25.8325    5.1203 C.3       2 UNK         0.0296 
     78 CB        -46.4883  -25.9701    3.7323 C.3       2 UNK        -0.2002 
     79 N         -46.6747  -26.9225    5.9812 N.am      2 UNK        -0.4032 
     80 C         -47.2372  -27.2424    7.1542 C.2       1 UNK         0.5000 
     81 O         -48.2665  -26.7129    7.5866 O.2       1 UNK        -0.5238 
     82 H82       -45.2074  -25.1752   10.8613 H         1 UNK         0.0889 
     83 H83       -43.9287  -26.3575   11.1552 H         1 UNK         0.0889 
     84 H84       -45.5972  -26.7373   11.5855 H         1 UNK         0.0889 
     85 H85       -46.6946  -28.0229   10.0693 H         1 UNK         0.3028 
     86 H86       -45.5576  -28.5329    7.4732 H         1 UNK         0.0864 
     87 H87       -47.5478  -29.9959    7.1277 H         1 UNK         0.0720 
     88 H88       -46.5663  -30.4091    8.5039 H         1 UNK         0.0720 
     89 H89       -49.4366  -31.2995    7.6486 H         1 UNK         0.0814 
     90 H90       -49.0934  -31.9826    9.2224 H         1 UNK         0.0814 
     91 H91       -51.5077  -29.9633    7.2569 H         1 UNK         0.1469 
     92 H92       -54.7603  -30.5672    9.9843 H         1 UNK         0.1381 
     93 H93       -50.8484  -32.0266   10.9537 H         1 UNK         0.1206 
     94 H94       -54.3356  -32.3866   11.8096 H         1 UNK         0.0813 
     95 H95       -52.6982  -32.6225   12.3443 H         1 UNK         0.0813 
     96 H96       -55.8300  -30.8304   12.4949 H         1 UNK         0.0638 
     97 H97       -55.6970  -30.0322   14.0336 H         1 UNK         0.0638 
     98 H98       -55.1661  -28.7407   11.3131 H         1 UNK         0.0568 
     99 H99       -57.0603  -26.7860   13.5049 H         1 UNK         0.3450 
    100 H100      -58.6046  -27.2389   12.8260 H         1 UNK         0.3450 
    101 H101      -54.3207  -27.8330   13.8583 H         1 UNK         0.2987 
    102 H102      -52.7643  -25.6178   13.2678 H         1 UNK         0.0766 
    103 H103      -53.4363  -23.2352   13.6063 H         1 UNK         0.0798 
    104 H104      -53.6792  -23.7461   11.9439 H         1 UNK         0.0798 
    105 H105      -55.0601  -23.6055   13.0250 H         1 UNK         0.0798 
    106 H106      -53.2959  -25.7197   15.3972 H         1 UNK         0.3198 
    107 H107      -56.0004  -24.9723   17.3645 H         1 UNK         0.0843 
    108 H108      -57.0619  -27.1565   16.7834 H         1 UNK         0.0831 
    109 H109      -56.1833  -27.2803   18.2964 H         1 UNK         0.0831 
    110 H110      -55.4960  -27.9530   16.8167 H         1 UNK         0.0831 
    111 H111      -53.6830  -26.6430   17.8412 H         1 UNK         0.3133 
    112 H112      -51.2692  -24.1380   17.8770 H         1 UNK         0.0566 
    113 H113      -52.4756  -25.3434   20.4272 H         1 UNK         0.0814 
    114 H114      -52.2596  -23.6265   20.1184 H         1 UNK         0.0814 
    115 H115      -50.8541  -24.6663   20.2640 H         1 UNK         0.0814 
    116 H116      -51.0720  -26.7496   18.8845 H         1 UNK         0.3091 
    117 H117      -49.7238  -28.1892   17.4961 H         1 UNK         0.0702 
    118 H118      -51.2154  -30.1961   17.1283 H         1 UNK         0.0785 
    119 H119      -52.4869  -29.1489   16.5064 H         1 UNK         0.0785 
    120 H120      -51.9946  -29.0408   18.1933 H         1 UNK         0.0785 
    121 H121      -50.5471  -27.7870   14.7507 H         1 UNK         0.2998 
    122 H122      -47.6890  -29.2993   13.4756 H         1 UNK         0.0697 
    123 H123      -50.4765  -30.4589   12.9445 H         1 UNK         0.0825 
    124 H124      -49.0881  -31.3942   13.4837 H         1 UNK         0.0825 
    125 H125      -49.0563  -30.6209   11.9116 H         1 UNK         0.0825 
    126 H126      -50.1378  -28.1226   12.3631 H         1 UNK         0.3029 
    127 H127      -50.2403  -25.4385   12.8256 H         1 UNK         0.0897 
    128 H128      -49.0905  -23.5990   11.6233 H         1 UNK         0.0792 
    129 H129      -48.1881  -24.0811   13.0495 H         1 UNK         0.0792 
    130 H130      -47.6413  -24.5915   11.4577 H         1 UNK         0.0792 
    131 H131      -49.4031  -25.6436   10.0635 H         1 UNK         0.3086 
    132 H132      -50.9691  -27.7800    8.7876 H         1 UNK         0.0583 
    133 H133      -53.3575  -27.8318    9.7154 H         1 UNK         0.1020 
    134 H134      -53.5609  -26.1983    9.2075 H         1 UNK         0.1020 
    135 H135      -55.1273  -29.2403    8.0599 H         1 UNK         0.0694 
    136 H136      -54.2707  -29.8586    6.6664 H         1 UNK         0.0694 
    137 H137      -50.1385  -26.0707    7.7081 H         1 UNK         0.2989 
    138 H138      -50.2960  -24.2561    6.4216 H         1 UNK         0.1055 
    139 H139      -52.5916  -23.3358    6.1004 H         1 UNK         0.0806 
    140 H140      -51.3526  -22.1636    5.6787 H         1 UNK         0.0806 
    141 H141      -52.2294  -22.0152    7.2010 H         1 UNK         0.0806 
    142 H142      -48.7558  -22.8812    7.1517 H         1 UNK         0.3061 
    143 H143      -48.5282  -20.0865    8.4799 H         1 UNK         0.0734 
    144 H144      -48.7555  -20.4062   10.9235 H         1 UNK         0.0832 
    145 H145      -47.7003  -21.8074   10.8727 H         1 UNK         0.0832 
    146 H146      -47.0693  -20.2115   10.4818 H         1 UNK         0.0832 
    147 H147      -46.8800  -20.9727    7.3349 H         1 UNK         0.3156 
    148 H148      -45.4338  -22.2514    6.4509 H         1 UNK         0.0589 
    149 H149      -44.0018  -23.8542    8.6348 H         1 UNK         0.0808 
    150 H150      -43.3008  -23.4304    7.0729 H         1 UNK         0.0808 
    151 H151      -43.7354  -22.1720    8.2192 H         1 UNK         0.0808 
    152 H152      -45.2692  -25.1157    6.8002 H         1 UNK         0.3098 
    153 H153      -48.2161  -25.9269    5.0019 H         1 UNK         0.0720 
    154 H154      -46.7418  -26.9238    3.2689 H         1 UNK         0.0791 
    155 H155      -46.8365  -25.1835    3.0612 H         1 UNK         0.0791 
    156 H156      -45.4010  -25.8978    3.7821 H         1 UNK         0.0791 
    157 H157      -45.8283  -27.3961    5.6987 H         1 UNK         0.3028 
@<TRIPOS>BOND
     1    1    2 1    
     2    1   82 1    
     3    1   83 1    
     4    1   84 1    
     5    2    3 2    
     6    2    4 am   BACKBONE|DICT|INTERRES
     7    4    5 1    
     8    4   85 1    
     9    5    6 1    
    10    5   80 1    
    11    5   86 1    
    12    6    7 1    
    13    6   87 1    
    14    6   88 1    
    15    7    8 1    
    16    8    9 1    
    17    8   89 1    
    18    8   90 1    
    19    9   10 ar   
    20    9   14 ar   
    21   10   11 ar   
    22   10   91 1    
    23   11   12 ar   
    24   11   58 1    
    25   12   13 ar   
    26   12   92 1    
    27   13   14 ar   
    28   13   15 1    
    29   14   93 1    
    30   15   16 1    
    31   15   94 1    
    32   15   95 1    
    33   16   17 1    
    34   17   18 1    
    35   17   96 1    
    36   17   97 1    
    37   18   19 1    
    38   18   22 1    
    39   18   98 1    
    40   19   20 am   BACKBONE|DICT|INTERRES
    41   19   21 2    
    42   20   99 1    
    43   20  100 1    
    44   22   23 am   BACKBONE|DICT|INTERRES
    45   22  101 1    
    46   23   24 2    
    47   23   25 1    
    48   25   26 1    
    49   25   27 1    
    50   25  102 1    
    51   26  103 1    
    52   26  104 1    
    53   26  105 1    
    54   27   28 am   BACKBONE|DICT|INTERRES
    55   27  106 1    
    56   28   29 2    
    57   28   30 1    
    58   30   31 1    
    59   30   32 1    
    60   30  107 1    
    61   31  108 1    
    62   31  109 1    
    63   31  110 1    
    64   32   33 am   BACKBONE|DICT|INTERRES
    65   32  111 1    
    66   33   34 2    
    67   33   35 1    
    68   35   36 1    
    69   35   37 1    
    70   35  112 1    
    71   36  113 1    
    72   36  114 1    
    73   36  115 1    
    74   37   38 am   BACKBONE|DICT|INTERRES
    75   37  116 1    
    76   38   39 2    
    77   38   40 1    
    78   40   41 1    
    79   40   42 1    
    80   40  117 1    
    81   41  118 1    
    82   41  119 1    
    83   41  120 1    
    84   42   43 am   BACKBONE|DICT|INTERRES
    85   42  121 1    
    86   43   44 2    
    87   43   45 1    
    88   45   46 1    
    89   45   47 1    
    90   45  122 1    
    91   46  123 1    
    92   46  124 1    
    93   46  125 1    
    94   47   48 am   BACKBONE|DICT|INTERRES
    95   47  126 1    
    96   48   49 2    
    97   48   50 1    
    98   50   51 1    
    99   50   52 1    
   100   50  127 1    
   101   51  128 1    
   102   51  129 1    
   103   51  130 1    
   104   52   53 am   BACKBONE|DICT|INTERRES
   105   52  131 1    
   106   53   54 2    
   107   53   55 1    
   108   55   56 1    
   109   55   59 1    
   110   55  132 1    
   111   56   57 1    
   112   56  133 1    
   113   56  134 1    
   114   57   58 1    
   115   58  135 1    
   116   58  136 1    
   117   59   60 am   BACKBONE|DICT|INTERRES
   118   59  137 1    
   119   60   61 2    
   120   60   62 1    
   121   62   63 1    
   122   62   64 1    
   123   62  138 1    
   124   63  139 1    
   125   63  140 1    
   126   63  141 1    
   127   64   65 am   BACKBONE|DICT|INTERRES
   128   64  142 1    
   129   65   66 2    
   130   65   67 1    
   131   67   68 1    
   132   67   69 1    
   133   67  143 1    
   134   68  144 1    
   135   68  145 1    
   136   68  146 1    
   137   69   70 am   BACKBONE|DICT|INTERRES
   138   69  147 1    
   139   70   71 2    
   140   70   72 1    
   141   72   73 1    
   142   72   74 1    
   143   72  148 1    
   144   73  149 1    
   145   73  150 1    
   146   73  151 1    
   147   74   75 am   BACKBONE|DICT|INTERRES
   148   74  152 1    
   149   75   76 2    
   150   75   77 1    
   151   77   78 1    
   152   77   79 1    
   153   77  153 1    
   154   78  154 1    
   155   78  155 1    
   156   78  156 1    
   157   79   80 am   BACKBONE|DICT|INTERRES
   158   79  157 1    
   159   80   81 2    
@<TRIPOS>SUBSTRUCTURE
     1 UNK         1 GROUP             0       ****    0 ROOT    
