@<TRIPOS>MOLECULE
3R207
157   159    1
SMALL
USER_CHARGES


@<TRIPOS>ATOM
      1 CA        -52.5374  -30.1126    2.2978 C.3       0 UNK        -0.1975 
      2 C         -51.9978  -29.3086    3.4716 C.2       0 UNK         0.4852 
      3 O         -51.4380  -28.2300    3.2690 O.2       0 UNK        -0.5216 
      4 N         -52.1716  -29.8195    4.6966 N.am      1 UNK        -0.4461 
      5 CA        -51.6770  -29.2087    5.9357 C.3       1 UNK         0.0864 
      6 C6        -52.3978  -29.7633    7.1940 C.3       14 UNK        -0.0898 
      7 S7        -54.2148  -29.9328    7.0724 S.3       14 UNK        -0.2598 
      8 C8        -54.7693  -28.2980    6.4841 C.3       14 UNK         0.0286 
      9 C9        -54.4575  -27.1768    7.4657 C.ar      14 UNK        -0.0844 
     10 C10       -53.6752  -26.0896    7.0676 C.ar      14 UNK        -0.0881 
     11 C11       -53.4124  -25.0421    7.9548 C.ar      14 UNK        -0.0643 
     12 C12       -53.9331  -25.0880    9.2506 C.ar      14 UNK        -0.0930 
     13 C13       -54.6939  -26.1835    9.6705 C.ar      14 UNK        -0.0827 
     14 C14       -54.9708  -27.2122    8.7651 C.ar      14 UNK        -0.1249 
     15 C15       -55.2241  -26.2685   11.0968 C.3       14 UNK         0.0141 
     16 S16       -53.9439  -25.9893   12.3696 S.3       14 UNK        -0.2313 
     17 C17       -52.6193  -27.1872   11.9708 C.3       14 UNK        -0.0915 
     18 CA        -53.0566  -28.6257   11.5754 C.3       13 UNK         0.0968 
     19 C         -51.8145  -29.5268   11.3095 C.2       13 UNK         0.5732 
     20 N         -51.6034  -30.6236   12.0295 N.am      13 UNK        -0.7310 
     21 O         -51.0205  -29.2257   10.4233 O.2       13 UNK        -0.5035 
     22 N         -54.0212  -29.2002   12.5246 N.am      13 UNK        -0.4233 
     23 C         -54.8778  -30.1858   12.2200 C.2       13 UNK         0.4989 
     24 O         -55.0246  -30.6271   11.0792 O.2       13 UNK        -0.4996 
     25 CA        -55.7114  -30.7839   13.3756 C.3       12 UNK         0.0216 
     26 CB        -56.1706  -32.2297   13.0876 C.3       12 UNK        -0.1964 
     27 N         -55.0524  -30.7086   14.6866 N.am      12 UNK        -0.4276 
     28 C         -53.8535  -31.2084   15.0199 C.2       12 UNK         0.5020 
     29 O         -53.1269  -31.8491   14.2569 O.2       12 UNK        -0.5489 
     30 CA        -53.3472  -30.8586   16.4299 C.3       11 UNK         0.0294 
     31 CB        -52.9296  -32.1249   17.1966 C.3       11 UNK        -0.2019 
     32 N         -52.2196  -29.9212   16.3889 N.am      11 UNK        -0.4493 
     33 C         -52.2180  -28.7264   15.7808 C.2       11 UNK         0.4932 
     34 O         -53.1827  -28.2675   15.1635 O.2       11 UNK        -0.5029 
     35 CA        -50.9011  -27.9327   15.8578 C.3       10 UNK         0.0280 
     36 CB        -49.8758  -28.4911   14.8582 C.3       10 UNK        -0.1976 
     37 N         -51.0920  -26.5043   15.5956 N.am      10 UNK        -0.4242 
     38 C         -51.7911  -25.6668   16.3747 C.2       10 UNK         0.5072 
     39 O         -52.3155  -25.9902   17.4437 O.2       10 UNK        -0.5224 
     40 CA        -51.8705  -24.2130   15.8769 C.3       9 UNK         0.0343 
     41 CB        -52.6774  -23.2838   16.8084 C.3       9 UNK        -0.2003 
     42 N         -50.5357  -23.6687   15.6133 N.am      9 UNK        -0.4272 
     43 C         -49.5237  -23.5072   16.4814 C.2       9 UNK         0.4988 
     44 O         -49.5999  -23.7362   17.6890 O.2       9 UNK        -0.5108 
     45 CA        -48.1810  -23.0192   15.9049 C.3       8 UNK         0.0248 
     46 CB        -47.2111  -24.2013   15.7466 C.3       8 UNK        -0.2001 
     47 N         -48.3139  -22.3361   14.6162 N.am      8 UNK        -0.4140 
     48 C         -48.8983  -21.1429   14.4393 C.2       8 UNK         0.5028 
     49 O         -49.3196  -20.4384   15.3574 O.2       8 UNK        -0.5428 
     50 CA        -49.0675  -20.6714   12.9887 C.3       7 UNK         0.0264 
     51 CB        -47.7956  -19.9631   12.4944 C.3       7 UNK        -0.1988 
     52 N         -49.3946  -21.7753   12.0835 N.am      7 UNK        -0.4454 
     53 C         -50.5995  -22.3578   11.9847 C.2       7 UNK         0.5027 
     54 O         -51.5742  -22.0409   12.6662 O.2       7 UNK        -0.5083 
     55 CA        -50.7295  -23.4773   10.9306 C.3       6 UNK         0.0844 
     56 C56       -50.8311  -22.8313    9.5230 C.3       14 UNK        -0.0967 
     57 S57       -50.8599  -24.0202    8.1383 S.3       14 UNK        -0.2604 
     58 C58       -52.5609  -23.8658    7.5107 C.3       14 UNK         0.0134 
     59 N         -49.6339  -24.4453   11.0304 N.am      6 UNK        -0.4116 
     60 C         -49.3502  -25.2055   12.0986 C.2       5 UNK         0.5034 
     61 O         -50.0259  -25.2450   13.1277 O.2       5 UNK        -0.5045 
     62 CA        -48.0576  -26.0346   12.0241 C.3       5 UNK         0.0224 
     63 CB        -48.3391  -27.4026   11.3885 C.3       5 UNK        -0.1978 
     64 N         -46.9729  -25.3841   11.2830 N.am      5 UNK        -0.4737 
     65 C         -46.4487  -24.1752   11.5196 C.2       4 UNK         0.5027 
     66 O         -46.8395  -23.4333   12.4204 O.2       4 UNK        -0.5211 
     67 CA        -45.3375  -23.6775   10.5743 C.3       4 UNK         0.0297 
     68 CB        -43.9452  -23.9777   11.1615 C.3       4 UNK        -0.1993 
     69 N         -45.4521  -24.1397    9.1787 N.am      4 UNK        -0.4486 
     70 C         -45.3374  -25.3847    8.6954 C.2       3 UNK         0.4961 
     71 O         -45.0721  -26.3729    9.3835 O.2       3 UNK        -0.5105 
     72 CA        -45.5814  -25.5573    7.1877 C.3       3 UNK         0.0299 
     73 CB        -44.2508  -25.5161    6.4195 C.3       3 UNK        -0.1972 
     74 N         -46.2672  -26.8198    6.9017 N.am      3 UNK        -0.4305 
     75 C         -47.5298  -27.0966    7.2534 C.2       2 UNK         0.5006 
     76 O         -48.2871  -26.2948    7.8042 O.2       2 UNK        -0.5106 
     77 CA        -48.0201  -28.5164    6.9573 C.3       2 UNK         0.0296 
     78 CB        -47.6586  -29.4788    8.1050 C.3       2 UNK        -0.2002 
     79 N         -49.4674  -28.4933    6.7556 N.am      2 UNK        -0.4032 
     80 C         -50.1503  -29.4090    6.0594 C.2       1 UNK         0.5000 
     81 O         -49.6231  -30.4016    5.5459 O.2       1 UNK        -0.5238 
     82 H82       -51.7256  -30.3793    1.6216 H         1 UNK         0.0889 
     83 H83       -53.2653  -29.5226    1.7417 H         1 UNK         0.0889 
     84 H84       -53.0239  -31.0321    2.6231 H         1 UNK         0.0889 
     85 H85       -52.6217  -30.7166    4.8071 H         1 UNK         0.3028 
     86 H86       -51.8662  -28.1352    5.8782 H         1 UNK         0.0864 
     87 H87       -52.1837  -29.1223    8.0504 H         1 UNK         0.0720 
     88 H88       -52.0105  -30.7504    7.4552 H         1 UNK         0.0720 
     89 H89       -55.8487  -28.3344    6.3320 H         1 UNK         0.0814 
     90 H90       -54.3363  -28.0972    5.5034 H         1 UNK         0.0814 
     91 H91       -53.2756  -26.0519    6.0633 H         1 UNK         0.1469 
     92 H92       -53.7270  -24.2814    9.9400 H         1 UNK         0.1381 
     93 H93       -55.5705  -28.0575    9.0755 H         1 UNK         0.1206 
     94 H94       -55.6959  -27.2346   11.2795 H         1 UNK         0.0813 
     95 H95       -56.0076  -25.5205   11.2226 H         1 UNK         0.0813 
     96 H96       -51.9645  -27.2246   12.8408 H         1 UNK         0.0638 
     97 H97       -52.0221  -26.7489   11.1689 H         1 UNK         0.0638 
     98 H98       -53.5521  -28.5604   10.6087 H         1 UNK         0.0568 
     99 H99       -50.7942  -31.1865   11.8261 H         1 UNK         0.3450 
    100 H100      -52.2463  -30.9177   12.7581 H         1 UNK         0.3450 
    101 H101      -53.9268  -28.8890   13.4874 H         1 UNK         0.2987 
    102 H102      -56.6053  -30.1625   13.4482 H         1 UNK         0.0766 
    103 H103      -56.7822  -32.2766   12.1857 H         1 UNK         0.0798 
    104 H104      -56.7733  -32.6255   13.9050 H         1 UNK         0.0798 
    105 H105      -55.3228  -32.8999   12.9408 H         1 UNK         0.0798 
    106 H106      -55.5341  -30.1485   15.3773 H         1 UNK         0.3198 
    107 H107      -54.1537  -30.3777   16.9875 H         1 UNK         0.0843 
    108 H108      -52.0906  -32.6302   16.7162 H         1 UNK         0.0831 
    109 H109      -53.7529  -32.8389   17.2460 H         1 UNK         0.0831 
    110 H110      -52.6413  -31.8938   18.2222 H         1 UNK         0.0831 
    111 H111      -51.3710  -30.2277   16.8424 H         1 UNK         0.3133 
    112 H112      -50.4964  -28.0317   16.8671 H         1 UNK         0.0566 
    113 H113      -48.9512  -27.9134   14.8661 H         1 UNK         0.0814 
    114 H114      -50.2675  -28.4879   13.8424 H         1 UNK         0.0814 
    115 H115      -49.6144  -29.5226   15.0970 H         1 UNK         0.0814 
    116 H116      -50.7152  -26.1386   14.7252 H         1 UNK         0.3091 
    117 H117      -52.3846  -24.2437   14.9145 H         1 UNK         0.0702 
    118 H118      -52.7290  -22.2717   16.4071 H         1 UNK         0.0785 
    119 H119      -52.2423  -23.2277   17.8065 H         1 UNK         0.0785 
    120 H120      -53.7014  -23.6421   16.9203 H         1 UNK         0.0785 
    121 H121      -50.3330  -23.5038   14.6361 H         1 UNK         0.2998 
    122 H122      -47.7510  -22.3132   16.6184 H         1 UNK         0.0697 
    123 H123      -47.6060  -24.9535   15.0638 H         1 UNK         0.0825 
    124 H124      -47.0339  -24.6922   16.7045 H         1 UNK         0.0825 
    125 H125      -46.2436  -23.8754   15.3640 H         1 UNK         0.0825 
    126 H126      -47.9216  -22.8081   13.8034 H         1 UNK         0.3029 
    127 H127      -49.8895  -19.9521   12.9668 H         1 UNK         0.0897 
    128 H128      -46.9351  -20.6335   12.4828 H         1 UNK         0.0792 
    129 H129      -47.5434  -19.1212   13.1408 H         1 UNK         0.0792 
    130 H130      -47.9274  -19.5682   11.4869 H         1 UNK         0.0792 
    131 H131      -48.6299  -22.1489   11.5386 H         1 UNK         0.3086 
    132 H132      -51.6550  -24.0198   11.1324 H         1 UNK         0.0583 
    133 H133      -51.7094  -22.1854    9.4741 H         1 UNK         0.1020 
    134 H134      -49.9794  -22.1723    9.3414 H         1 UNK         0.1020 
    135 H135      -53.0210  -22.9294    7.8272 H         1 UNK         0.0694 
    136 H136      -52.5205  -23.8218    6.4212 H         1 UNK         0.0694 
    137 H137      -49.0420  -24.5327   10.2164 H         1 UNK         0.2989 
    138 H138      -47.7072  -26.1933   13.0450 H         1 UNK         0.1055 
    139 H139      -48.7052  -27.3007   10.3662 H         1 UNK         0.0806 
    140 H140      -49.0990  -27.9467   11.9469 H         1 UNK         0.0806 
    141 H141      -47.4456  -28.0267   11.3661 H         1 UNK         0.0806 
    142 H142      -46.5336  -25.9275   10.5451 H         1 UNK         0.3061 
    143 H143      -45.4423  -22.5921   10.5306 H         1 UNK         0.0734 
    144 H144      -43.7690  -25.0479   11.2727 H         1 UNK         0.0832 
    145 H145      -43.1529  -23.5700   10.5339 H         1 UNK         0.0832 
    146 H146      -43.8379  -23.5302   12.1506 H         1 UNK         0.0832 
    147 H147      -45.6936  -23.4135    8.5175 H         1 UNK         0.3156 
    148 H148      -46.2150  -24.7409    6.8338 H         1 UNK         0.0589 
    149 H149      -44.4088  -25.6055    5.3445 H         1 UNK         0.0808 
    150 H150      -43.7292  -24.5734    6.5912 H         1 UNK         0.0808 
    151 H151      -43.5805  -26.3192    6.7294 H         1 UNK         0.0808 
    152 H152      -45.7052  -27.5530    6.4942 H         1 UNK         0.3098 
    153 H153      -47.5372  -28.8536    6.0373 H         1 UNK         0.0720 
    154 H154      -48.2025  -29.2364    9.0182 H         1 UNK         0.0791 
    155 H155      -46.5933  -29.4385    8.3363 H         1 UNK         0.0791 
    156 H156      -47.8939  -30.5109    7.8451 H         1 UNK         0.0791 
    157 H157      -49.9311  -27.6825    7.1484 H         1 UNK         0.3028 
@<TRIPOS>BOND
     1    1    2 1    
     2    1   82 1    
     3    1   83 1    
     4    1   84 1    
     5    2    3 2    
     6    2    4 am   BACKBONE|DICT|INTERRES
     7    4    5 1    
     8    4   85 1    
     9    5    6 1    
    10    5   80 1    
    11    5   86 1    
    12    6    7 1    
    13    6   87 1    
    14    6   88 1    
    15    7    8 1    
    16    8    9 1    
    17    8   89 1    
    18    8   90 1    
    19    9   10 ar   
    20    9   14 ar   
    21   10   11 ar   
    22   10   91 1    
    23   11   12 ar   
    24   11   58 1    
    25   12   13 ar   
    26   12   92 1    
    27   13   14 ar   
    28   13   15 1    
    29   14   93 1    
    30   15   16 1    
    31   15   94 1    
    32   15   95 1    
    33   16   17 1    
    34   17   18 1    
    35   17   96 1    
    36   17   97 1    
    37   18   19 1    
    38   18   22 1    
    39   18   98 1    
    40   19   20 am   BACKBONE|DICT|INTERRES
    41   19   21 2    
    42   20   99 1    
    43   20  100 1    
    44   22   23 am   BACKBONE|DICT|INTERRES
    45   22  101 1    
    46   23   24 2    
    47   23   25 1    
    48   25   26 1    
    49   25   27 1    
    50   25  102 1    
    51   26  103 1    
    52   26  104 1    
    53   26  105 1    
    54   27   28 am   BACKBONE|DICT|INTERRES
    55   27  106 1    
    56   28   29 2    
    57   28   30 1    
    58   30   31 1    
    59   30   32 1    
    60   30  107 1    
    61   31  108 1    
    62   31  109 1    
    63   31  110 1    
    64   32   33 am   BACKBONE|DICT|INTERRES
    65   32  111 1    
    66   33   34 2    
    67   33   35 1    
    68   35   36 1    
    69   35   37 1    
    70   35  112 1    
    71   36  113 1    
    72   36  114 1    
    73   36  115 1    
    74   37   38 am   BACKBONE|DICT|INTERRES
    75   37  116 1    
    76   38   39 2    
    77   38   40 1    
    78   40   41 1    
    79   40   42 1    
    80   40  117 1    
    81   41  118 1    
    82   41  119 1    
    83   41  120 1    
    84   42   43 am   BACKBONE|DICT|INTERRES
    85   42  121 1    
    86   43   44 2    
    87   43   45 1    
    88   45   46 1    
    89   45   47 1    
    90   45  122 1    
    91   46  123 1    
    92   46  124 1    
    93   46  125 1    
    94   47   48 am   BACKBONE|DICT|INTERRES
    95   47  126 1    
    96   48   49 2    
    97   48   50 1    
    98   50   51 1    
    99   50   52 1    
   100   50  127 1    
   101   51  128 1    
   102   51  129 1    
   103   51  130 1    
   104   52   53 am   BACKBONE|DICT|INTERRES
   105   52  131 1    
   106   53   54 2    
   107   53   55 1    
   108   55   56 1    
   109   55   59 1    
   110   55  132 1    
   111   56   57 1    
   112   56  133 1    
   113   56  134 1    
   114   57   58 1    
   115   58  135 1    
   116   58  136 1    
   117   59   60 am   BACKBONE|DICT|INTERRES
   118   59  137 1    
   119   60   61 2    
   120   60   62 1    
   121   62   63 1    
   122   62   64 1    
   123   62  138 1    
   124   63  139 1    
   125   63  140 1    
   126   63  141 1    
   127   64   65 am   BACKBONE|DICT|INTERRES
   128   64  142 1    
   129   65   66 2    
   130   65   67 1    
   131   67   68 1    
   132   67   69 1    
   133   67  143 1    
   134   68  144 1    
   135   68  145 1    
   136   68  146 1    
   137   69   70 am   BACKBONE|DICT|INTERRES
   138   69  147 1    
   139   70   71 2    
   140   70   72 1    
   141   72   73 1    
   142   72   74 1    
   143   72  148 1    
   144   73  149 1    
   145   73  150 1    
   146   73  151 1    
   147   74   75 am   BACKBONE|DICT|INTERRES
   148   74  152 1    
   149   75   76 2    
   150   75   77 1    
   151   77   78 1    
   152   77   79 1    
   153   77  153 1    
   154   78  154 1    
   155   78  155 1    
   156   78  156 1    
   157   79   80 am   BACKBONE|DICT|INTERRES
   158   79  157 1    
   159   80   81 2    
@<TRIPOS>SUBSTRUCTURE
     1 UNK         1 GROUP             0       ****    0 ROOT    
