@<TRIPOS>MOLECULE
3R207
157   159    1
SMALL
USER_CHARGES


@<TRIPOS>ATOM
      1 CA        -47.3357  -28.9750    2.7510 C.3       0 UNK        -0.1975 
      2 C         -48.6791  -28.3809    3.1479 C.2       0 UNK         0.4852 
      3 O         -49.4972  -28.0841    2.2766 O.2       0 UNK        -0.5216 
      4 N         -48.9112  -28.2067    4.4568 N.am      1 UNK        -0.4461 
      5 CA        -50.1410  -27.6350    5.0236 C.3       1 UNK         0.0864 
      6 C6        -50.2257  -27.8979    6.5517 C.3       14 UNK        -0.0898 
      7 S7        -51.9489  -28.0270    7.1371 S.3       14 UNK        -0.2598 
      8 C8        -52.0614  -29.7863    7.5872 C.3       14 UNK         0.0286 
      9 C9        -51.5612  -30.0498    9.0013 C.ar      14 UNK        -0.0844 
     10 C10       -50.2349  -30.4277    9.2353 C.ar      14 UNK        -0.0881 
     11 C11       -49.7969  -30.7248   10.5305 C.ar      14 UNK        -0.0643 
     12 C12       -50.7015  -30.6529   11.5949 C.ar      14 UNK        -0.0930 
     13 C13       -52.0295  -30.2728   11.3749 C.ar      14 UNK        -0.0827 
     14 C14       -52.4464  -29.9558   10.0783 C.ar      14 UNK        -0.1249 
     15 C15       -53.0077  -30.1855   12.5383 C.3       14 UNK         0.0141 
     16 S16       -54.5074  -31.1830   12.2649 S.3       14 UNK        -0.2313 
     17 C17       -55.6049  -30.5585   13.5833 C.3       14 UNK        -0.0915 
     18 CA        -56.5755  -29.4612   13.0657 C.3       13 UNK         0.0968 
     19 C         -57.7368  -29.1707   14.0615 C.2       13 UNK         0.5732 
     20 N         -58.0768  -27.9202   14.3575 N.am      13 UNK        -0.7310 
     21 O         -58.3703  -30.1006   14.5561 O.2       13 UNK        -0.5035 
     22 N         -55.8417  -28.2456   12.6927 N.am      13 UNK        -0.4233 
     23 C         -55.8696  -27.6491   11.4954 C.2       13 UNK         0.4989 
     24 O         -56.4840  -28.0947   10.5247 O.2       13 UNK        -0.4996 
     25 CA        -55.0655  -26.3391   11.3435 C.3       12 UNK         0.0216 
     26 CB        -55.7319  -25.3518   10.3629 C.3       12 UNK        -0.1964 
     27 N         -54.7465  -25.6656   12.6102 N.am      12 UNK        -0.4276 
     28 C         -55.5979  -25.2165   13.5422 C.2       12 UNK         0.5020 
     29 O         -56.8239  -25.3242   13.4601 O.2       12 UNK        -0.5489 
     30 CA        -54.9528  -24.6092   14.8051 C.3       11 UNK         0.0294 
     31 CB        -55.9929  -24.2559   15.8886 C.3       11 UNK        -0.2019 
     32 N         -53.8930  -25.4487   15.3852 N.am      11 UNK        -0.4493 
     33 C         -53.9748  -26.7434   15.7324 C.2       11 UNK         0.4932 
     34 O         -54.9657  -27.4427   15.5195 O.2       11 UNK        -0.5029 
     35 CA        -52.7567  -27.3834   16.4262 C.3       10 UNK         0.0280 
     36 CB        -52.4676  -28.7882   15.8779 C.3       10 UNK        -0.1976 
     37 N         -51.5350  -26.5819   16.3219 N.am      10 UNK        -0.4242 
     38 C         -51.1274  -25.6909   17.2349 C.2       10 UNK         0.5072 
     39 O         -51.7624  -25.4091   18.2519 O.2       10 UNK        -0.5224 
     40 CA        -49.7869  -24.9872   16.9675 C.3       9 UNK         0.0343 
     41 CB        -48.6145  -25.8912   17.3812 C.3       9 UNK        -0.2003 
     42 N         -49.6176  -24.5652   15.5745 N.am      9 UNK        -0.4272 
     43 C         -50.3680  -23.6331   14.9676 C.2       9 UNK         0.4988 
     44 O         -51.2965  -23.0366   15.5144 O.2       9 UNK        -0.5108 
     45 CA        -50.0465  -23.3302   13.4943 C.3       8 UNK         0.0248 
     46 CB        -48.7620  -22.4950   13.3690 C.3       8 UNK        -0.2001 
     47 N         -49.9305  -24.5420   12.6828 N.am      8 UNK        -0.4140 
     48 C         -50.9294  -25.4094   12.4699 C.2       8 UNK         0.5028 
     49 O         -52.0742  -25.2536   12.8899 O.2       8 UNK        -0.5428 
     50 CA        -50.5916  -26.6889   11.6947 C.3       7 UNK         0.0264 
     51 CB        -50.5872  -26.4310   10.1817 C.3       7 UNK        -0.1988 
     52 N         -49.3119  -27.2640   12.1044 N.am      7 UNK        -0.4454 
     53 C         -49.0548  -27.7612   13.3222 C.2       7 UNK         0.5027 
     54 O         -49.8714  -27.7826   14.2431 O.2       7 UNK        -0.5083 
     55 CA        -47.6225  -28.2719   13.5693 C.3       6 UNK         0.0844 
     56 C56       -47.3947  -29.6944   12.9979 C.3       14 UNK        -0.0967 
     57 S57       -47.2582  -29.7733   11.1726 S.3       14 UNK        -0.2604 
     58 C58       -48.3584  -31.1675   10.7641 C.3       14 UNK         0.0134 
     59 N         -46.6128  -27.3147   13.1124 N.am      6 UNK        -0.4116 
     60 C         -46.4472  -26.0794   13.6052 C.2       5 UNK         0.5034 
     61 O         -47.0989  -25.6141   14.5394 O.2       5 UNK        -0.5045 
     62 CA        -45.4084  -25.1933   12.8999 C.3       5 UNK         0.0224 
     63 CB        -43.9972  -25.4773   13.4385 C.3       5 UNK        -0.1978 
     64 N         -45.4184  -25.3306   11.4386 N.am      5 UNK        -0.4737 
     65 C         -46.4721  -25.0498   10.6613 C.2       4 UNK         0.5027 
     66 O         -47.5726  -24.7045   11.0960 O.2       4 UNK        -0.5211 
     67 CA        -46.2800  -25.2249    9.1499 C.3       4 UNK         0.0297 
     68 CB        -46.7933  -26.6023    8.6971 C.3       4 UNK        -0.1993 
     69 N         -47.0028  -24.1813    8.4266 N.am      4 UNK        -0.4486 
     70 C         -46.6018  -22.9116    8.2932 C.2       3 UNK         0.4961 
     71 O         -45.5138  -22.4973    8.6980 O.2       3 UNK        -0.5105 
     72 CA        -47.5730  -21.9576    7.5613 C.3       3 UNK         0.0299 
     73 CB        -46.9903  -20.5437    7.3764 C.3       3 UNK        -0.1972 
     74 N         -47.9821  -22.4778    6.2510 N.am      3 UNK        -0.4305 
     75 C         -48.8691  -23.4615    6.0507 C.2       2 UNK         0.5006 
     76 O         -49.4815  -24.0027    6.9750 O.2       2 UNK        -0.5106 
     77 CA        -49.0730  -23.9621    4.6067 C.3       2 UNK         0.0296 
     78 CB        -47.9487  -23.5462    3.6350 C.3       2 UNK        -0.2002 
     79 N         -49.1606  -25.4214    4.6309 N.am      2 UNK        -0.4032 
     80 C         -50.2964  -26.1280    4.7152 C.2       1 UNK         0.5000 
     81 O         -51.4212  -25.6438    4.5706 O.2       1 UNK        -0.5238 
     82 H82       -47.4847  -29.9022    2.1983 H         1 UNK         0.0889 
     83 H83       -46.7129  -29.1941    3.6182 H         1 UNK         0.0889 
     84 H84       -46.7930  -28.2801    2.1107 H         1 UNK         0.0889 
     85 H85       -48.2053  -28.4872    5.1228 H         1 UNK         0.3028 
     86 H86       -50.9730  -28.1488    4.5361 H         1 UNK         0.0864 
     87 H87       -49.7153  -27.1209    7.1248 H         1 UNK         0.0720 
     88 H88       -49.7090  -28.8239    6.8022 H         1 UNK         0.0720 
     89 H89       -51.5174  -30.3959    6.8641 H         1 UNK         0.0814 
     90 H90       -53.1049  -30.0954    7.5092 H         1 UNK         0.0814 
     91 H91       -49.5438  -30.5081    8.4083 H         1 UNK         0.1469 
     92 H92       -50.3719  -30.8958   12.5950 H         1 UNK         0.1381 
     93 H93       -53.4719  -29.6588    9.9042 H         1 UNK         0.1206 
     94 H94       -53.2737  -29.1396   12.6884 H         1 UNK         0.0813 
     95 H95       -52.5380  -30.5334   13.4585 H         1 UNK         0.0813 
     96 H96       -55.0123  -30.1899   14.4217 H         1 UNK         0.0638 
     97 H97       -56.1603  -31.4190   13.9601 H         1 UNK         0.0638 
     98 H98       -57.0771  -29.8655   12.1851 H         1 UNK         0.0568 
     99 H99       -57.5782  -27.1292   13.9635 H         1 UNK         0.3450 
    100 H100      -58.8368  -27.7603   14.9983 H         1 UNK         0.3450 
    101 H101      -55.3731  -27.7833   13.4633 H         1 UNK         0.2987 
    102 H102      -54.1057  -26.6316   10.9145 H         1 UNK         0.0766 
    103 H103      -55.1346  -24.4478   10.2445 H         1 UNK         0.0798 
    104 H104      -56.7254  -25.0565   10.7018 H         1 UNK         0.0798 
    105 H105      -55.8433  -25.7947    9.3724 H         1 UNK         0.0798 
    106 H106      -53.7465  -25.5291   12.7886 H         1 UNK         0.3198 
    107 H107      -54.4727  -23.6820   14.4875 H         1 UNK         0.0843 
    108 H108      -56.5236  -25.1415   16.2406 H         1 UNK         0.0831 
    109 H109      -56.7396  -23.5605   15.5030 H         1 UNK         0.0831 
    110 H110      -55.5233  -23.7814   16.7501 H         1 UNK         0.0831 
    111 H111      -53.0090  -24.9824   15.5417 H         1 UNK         0.3133 
    112 H112      -53.0255  -27.4970   17.4782 H         1 UNK         0.0566 
    113 H113      -51.6251  -29.2505   16.3923 H         1 UNK         0.0814 
    114 H114      -53.3242  -29.4514   16.0008 H         1 UNK         0.0814 
    115 H115      -52.2264  -28.7437   14.8184 H         1 UNK         0.0814 
    116 H116      -50.9362  -26.7798   15.5231 H         1 UNK         0.3091 
    117 H117      -49.7565  -24.0901   17.5895 H         1 UNK         0.0702 
    118 H118      -47.6624  -25.3671   17.2966 H         1 UNK         0.0785 
    119 H119      -48.5583  -26.7871   16.7612 H         1 UNK         0.0785 
    120 H120      -48.7152  -26.2149   18.4180 H         1 UNK         0.0785 
    121 H121      -48.8485  -24.9907   15.0630 H         1 UNK         0.2998 
    122 H122      -50.8727  -22.7425   13.0889 H         1 UNK         0.0697 
    123 H123      -47.8892  -23.0367   13.7343 H         1 UNK         0.0825 
    124 H124      -48.8387  -21.5714   13.9441 H         1 UNK         0.0825 
    125 H125      -48.5703  -22.2178   12.3321 H         1 UNK         0.0825 
    126 H126      -49.0300  -24.7172   12.2397 H         1 UNK         0.3029 
    127 H127      -51.3681  -27.4250   11.9121 H         1 UNK         0.0897 
    128 H128      -49.8625  -25.6675    9.8971 H         1 UNK         0.0792 
    129 H129      -51.5668  -26.0924    9.8419 H         1 UNK         0.0792 
    130 H130      -50.3526  -27.3417    9.6314 H         1 UNK         0.0792 
    131 H131      -48.5732  -27.2745   11.4171 H         1 UNK         0.3086 
    132 H132      -47.5093  -28.3455   14.6534 H         1 UNK         0.0583 
    133 H133      -46.4676  -30.0975   13.4086 H         1 UNK         0.1020 
    134 H134      -48.1755  -30.3698   13.3506 H         1 UNK         0.1020 
    135 H135      -47.9755  -31.6516    9.8644 H         1 UNK         0.0694 
    136 H136      -48.3140  -31.9254   11.5475 H         1 UNK         0.0694 
    137 H137      -46.0443  -27.6041   12.3302 H         1 UNK         0.2989 
    138 H138      -45.6594  -24.1561   13.1331 H         1 UNK         0.1055 
    139 H139      -43.9647  -25.3661   14.5235 H         1 UNK         0.0806 
    140 H140      -43.2666  -24.7830   13.0230 H         1 UNK         0.0806 
    141 H141      -43.6688  -26.4909   13.2050 H         1 UNK         0.0806 
    142 H142      -44.5526  -25.6154   11.0023 H         1 UNK         0.3061 
    143 H143      -45.2175  -25.1485    8.9089 H         1 UNK         0.0734 
    144 H144      -47.8517  -26.7364    8.9207 H         1 UNK         0.0832 
    145 H145      -46.6583  -26.7425    7.6246 H         1 UNK         0.0832 
    146 H146      -46.2514  -27.4058    9.1977 H         1 UNK         0.0832 
    147 H147      -47.9385  -24.4042    8.1001 H         1 UNK         0.3156 
    148 H148      -48.4605  -21.8660    8.1913 H         1 UNK         0.0589 
    149 H149      -46.0900  -20.5544    6.7607 H         1 UNK         0.0808 
    150 H150      -47.7116  -19.8750    6.9062 H         1 UNK         0.0808 
    151 H151      -46.7231  -20.1020    8.3375 H         1 UNK         0.0808 
    152 H152      -47.4900  -22.1099    5.4495 H         1 UNK         0.3098 
    153 H153      -50.0107  -23.5354    4.2449 H         1 UNK         0.0720 
    154 H154      -48.1105  -23.9775    2.6466 H         1 UNK         0.0791 
    155 H155      -46.9667  -23.8747    3.9788 H         1 UNK         0.0791 
    156 H156      -47.9155  -22.4643    3.5013 H         1 UNK         0.0791 
    157 H157      -48.2928  -25.9177    4.7687 H         1 UNK         0.3028 
@<TRIPOS>BOND
     1    1    2 1    
     2    1   82 1    
     3    1   83 1    
     4    1   84 1    
     5    2    3 2    
     6    2    4 am   BACKBONE|DICT|INTERRES
     7    4    5 1    
     8    4   85 1    
     9    5    6 1    
    10    5   80 1    
    11    5   86 1    
    12    6    7 1    
    13    6   87 1    
    14    6   88 1    
    15    7    8 1    
    16    8    9 1    
    17    8   89 1    
    18    8   90 1    
    19    9   10 ar   
    20    9   14 ar   
    21   10   11 ar   
    22   10   91 1    
    23   11   12 ar   
    24   11   58 1    
    25   12   13 ar   
    26   12   92 1    
    27   13   14 ar   
    28   13   15 1    
    29   14   93 1    
    30   15   16 1    
    31   15   94 1    
    32   15   95 1    
    33   16   17 1    
    34   17   18 1    
    35   17   96 1    
    36   17   97 1    
    37   18   19 1    
    38   18   22 1    
    39   18   98 1    
    40   19   20 am   BACKBONE|DICT|INTERRES
    41   19   21 2    
    42   20   99 1    
    43   20  100 1    
    44   22   23 am   BACKBONE|DICT|INTERRES
    45   22  101 1    
    46   23   24 2    
    47   23   25 1    
    48   25   26 1    
    49   25   27 1    
    50   25  102 1    
    51   26  103 1    
    52   26  104 1    
    53   26  105 1    
    54   27   28 am   BACKBONE|DICT|INTERRES
    55   27  106 1    
    56   28   29 2    
    57   28   30 1    
    58   30   31 1    
    59   30   32 1    
    60   30  107 1    
    61   31  108 1    
    62   31  109 1    
    63   31  110 1    
    64   32   33 am   BACKBONE|DICT|INTERRES
    65   32  111 1    
    66   33   34 2    
    67   33   35 1    
    68   35   36 1    
    69   35   37 1    
    70   35  112 1    
    71   36  113 1    
    72   36  114 1    
    73   36  115 1    
    74   37   38 am   BACKBONE|DICT|INTERRES
    75   37  116 1    
    76   38   39 2    
    77   38   40 1    
    78   40   41 1    
    79   40   42 1    
    80   40  117 1    
    81   41  118 1    
    82   41  119 1    
    83   41  120 1    
    84   42   43 am   BACKBONE|DICT|INTERRES
    85   42  121 1    
    86   43   44 2    
    87   43   45 1    
    88   45   46 1    
    89   45   47 1    
    90   45  122 1    
    91   46  123 1    
    92   46  124 1    
    93   46  125 1    
    94   47   48 am   BACKBONE|DICT|INTERRES
    95   47  126 1    
    96   48   49 2    
    97   48   50 1    
    98   50   51 1    
    99   50   52 1    
   100   50  127 1    
   101   51  128 1    
   102   51  129 1    
   103   51  130 1    
   104   52   53 am   BACKBONE|DICT|INTERRES
   105   52  131 1    
   106   53   54 2    
   107   53   55 1    
   108   55   56 1    
   109   55   59 1    
   110   55  132 1    
   111   56   57 1    
   112   56  133 1    
   113   56  134 1    
   114   57   58 1    
   115   58  135 1    
   116   58  136 1    
   117   59   60 am   BACKBONE|DICT|INTERRES
   118   59  137 1    
   119   60   61 2    
   120   60   62 1    
   121   62   63 1    
   122   62   64 1    
   123   62  138 1    
   124   63  139 1    
   125   63  140 1    
   126   63  141 1    
   127   64   65 am   BACKBONE|DICT|INTERRES
   128   64  142 1    
   129   65   66 2    
   130   65   67 1    
   131   67   68 1    
   132   67   69 1    
   133   67  143 1    
   134   68  144 1    
   135   68  145 1    
   136   68  146 1    
   137   69   70 am   BACKBONE|DICT|INTERRES
   138   69  147 1    
   139   70   71 2    
   140   70   72 1    
   141   72   73 1    
   142   72   74 1    
   143   72  148 1    
   144   73  149 1    
   145   73  150 1    
   146   73  151 1    
   147   74   75 am   BACKBONE|DICT|INTERRES
   148   74  152 1    
   149   75   76 2    
   150   75   77 1    
   151   77   78 1    
   152   77   79 1    
   153   77  153 1    
   154   78  154 1    
   155   78  155 1    
   156   78  156 1    
   157   79   80 am   BACKBONE|DICT|INTERRES
   158   79  157 1    
   159   80   81 2    
@<TRIPOS>SUBSTRUCTURE
     1 UNK         1 GROUP             0       ****    0 ROOT    
