@<TRIPOS>MOLECULE
3R207
157   159    1
SMALL
USER_CHARGES


@<TRIPOS>ATOM
      1 CA        -51.6678  -26.7036    0.6984 C.3       0 UNK        -0.1975 
      2 C         -51.3803  -26.3157    2.1413 C.2       0 UNK         0.4852 
      3 O         -51.6008  -25.1645    2.5189 O.2       0 UNK        -0.5216 
      4 N         -50.8940  -27.2694    2.9485 N.am      1 UNK        -0.4461 
      5 CA        -50.5341  -27.0808    4.3594 C.3       1 UNK         0.0864 
      6 C6        -50.2969  -28.4462    5.0520 C.3       14 UNK        -0.0898 
      7 S7        -50.2411  -28.3314    6.8680 S.3       14 UNK        -0.2598 
      8 C8        -50.2660  -30.0958    7.3032 C.3       14 UNK         0.0286 
      9 C9        -50.1761  -30.2739    8.8086 C.ar      14 UNK        -0.0844 
     10 C10       -48.9295  -30.3115    9.4360 C.ar      14 UNK        -0.0881 
     11 C11       -48.8352  -30.4362   10.8242 C.ar      14 UNK        -0.0643 
     12 C12       -50.0050  -30.5237   11.5889 C.ar      14 UNK        -0.0930 
     13 C13       -51.2618  -30.5036   10.9696 C.ar      14 UNK        -0.0827 
     14 C14       -51.3367  -30.3874    9.5773 C.ar      14 UNK        -0.1249 
     15 C15       -52.5390  -30.6205   11.7959 C.3       14 UNK         0.0141 
     16 S16       -53.6652  -29.2170   11.5118 S.3       14 UNK        -0.2313 
     17 C17       -55.0231  -29.6040   12.6593 C.3       14 UNK        -0.0915 
     18 CA        -56.1255  -28.5101   12.6408 C.3       13 UNK         0.0968 
     19 C         -57.3987  -28.9651   13.4151 C.2       13 UNK         0.5732 
     20 N         -57.9097  -28.2210   14.3894 N.am      13 UNK        -0.7310 
     21 O         -57.9555  -30.0171   13.1080 O.2       13 UNK        -0.5035 
     22 N         -55.6000  -27.2006   13.0571 N.am      13 UNK        -0.4233 
     23 C         -56.1073  -26.0164   12.6945 C.2       13 UNK         0.4989 
     24 O         -57.0245  -25.8877   11.8808 O.2       13 UNK        -0.4996 
     25 CA        -55.4982  -24.7695   13.3736 C.3       12 UNK         0.0216 
     26 CB        -56.3698  -23.5064   13.2084 C.3       12 UNK        -0.1964 
     27 N         -55.1680  -24.9866   14.7909 N.am      12 UNK        -0.4276 
     28 C         -56.0104  -25.3848   15.7566 C.2       12 UNK         0.5020 
     29 O         -57.2136  -25.5838   15.5757 O.2       12 UNK        -0.5489 
     30 CA        -55.3927  -25.6452   17.1450 C.3       11 UNK         0.0294 
     31 CB        -56.3617  -26.3738   18.1000 C.3       11 UNK        -0.2019 
     32 N         -54.1114  -26.3592   17.0875 N.am      11 UNK        -0.4493 
     33 C         -53.8428  -27.5318   16.4932 C.2       11 UNK         0.4932 
     34 O         -54.6842  -28.1891   15.8804 O.2       11 UNK        -0.5029 
     35 CA        -52.3930  -28.0573   16.5987 C.3       10 UNK         0.0280 
     36 CB        -52.1049  -29.1709   15.5740 C.3       10 UNK        -0.1976 
     37 N         -51.3846  -27.0025   16.4466 N.am      10 UNK        -0.4242 
     38 C         -51.0521  -26.0926   17.3731 C.2       10 UNK         0.5072 
     39 O         -51.5329  -26.0722   18.5067 O.2       10 UNK        -0.5224 
     40 CA        -50.0854  -24.9730   16.9510 C.3       9 UNK         0.0343 
     41 CB        -48.6275  -25.4309   17.1070 C.3       9 UNK        -0.2003 
     42 N         -50.3152  -24.4869   15.5863 N.am      9 UNK        -0.4272 
     43 C         -51.4593  -23.9353   15.1483 C.2       9 UNK         0.4988 
     44 O         -52.4563  -23.7542   15.8493 O.2       9 UNK        -0.5108 
     45 CA        -51.5244  -23.5722   13.6561 C.3       8 UNK         0.0248 
     46 CB        -50.7240  -22.2937   13.3611 C.3       8 UNK        -0.2001 
     47 N         -51.0593  -24.6612   12.7960 N.am      8 UNK        -0.4140 
     48 C         -51.5988  -25.8889   12.7544 C.2       8 UNK         0.5028 
     49 O         -52.5982  -26.2247   13.3892 O.2       8 UNK        -0.5428 
     50 CA        -50.8557  -26.9331   11.9123 C.3       7 UNK         0.0264 
     51 CB        -51.1155  -26.7393   10.4100 C.3       7 UNK        -0.1988 
     52 N         -49.4194  -26.9248   12.1806 N.am      7 UNK        -0.4454 
     53 C         -48.8689  -27.2965   13.3458 C.2       7 UNK         0.5027 
     54 O         -49.5138  -27.7232   14.3026 O.2       7 UNK        -0.5083 
     55 CA        -47.3457  -27.1177   13.4934 C.3       6 UNK         0.0844 
     56 C56       -46.5649  -28.4155   13.1835 C.3       14 UNK        -0.0967 
     57 S57       -46.5859  -28.9141   11.4256 S.3       14 UNK        -0.2604 
     58 C58       -47.4616  -30.5143   11.4747 C.3       14 UNK         0.0134 
     59 N         -46.8472  -25.9556   12.7532 N.am      6 UNK        -0.4116 
     60 C         -47.1274  -24.6886   13.0874 C.2       5 UNK         0.5034 
     61 O         -47.8162  -24.3693   14.0570 O.2       5 UNK        -0.5045 
     62 CA        -46.5808  -23.5957   12.1609 C.3       5 UNK         0.0224 
     63 CB        -45.0718  -23.3961   12.3739 C.3       5 UNK        -0.1978 
     64 N         -46.8501  -23.8463   10.7429 N.am      5 UNK        -0.4737 
     65 C         -48.0626  -23.9171   10.1829 C.2       4 UNK         0.5027 
     66 O         -49.1087  -23.9046   10.8301 O.2       4 UNK        -0.5211 
     67 CA        -48.1291  -23.9676    8.6454 C.3       4 UNK         0.0297 
     68 CB        -47.6287  -22.6465    8.0304 C.3       4 UNK        -0.1993 
     69 N         -47.4762  -25.1152    8.0025 N.am      4 UNK        -0.4486 
     70 C         -46.1922  -25.5053    8.0474 C.2       3 UNK         0.4961 
     71 O         -45.3232  -24.9813    8.7451 O.2       3 UNK        -0.5105 
     72 CA        -45.8003  -26.6598    7.1067 C.3       3 UNK         0.0299 
     73 CB        -46.1608  -28.0149    7.7347 C.3       3 UNK        -0.1972 
     74 N         -46.4266  -26.5512    5.7856 N.am      3 UNK        -0.4305 
     75 C         -46.2149  -25.5523    4.9136 C.2       2 UNK         0.5006 
     76 O         -45.3832  -24.6604    5.0866 O.2       2 UNK        -0.5106 
     77 CA        -47.0685  -25.5275    3.6292 C.3       2 UNK         0.0296 
     78 CB        -46.2323  -25.9785    2.4199 C.3       2 UNK        -0.2002 
     79 N         -48.3002  -26.3241    3.6792 N.am      2 UNK        -0.4032 
     80 C         -49.3231  -26.1372    4.5284 C.2       1 UNK         0.5000 
     81 O         -49.3333  -25.2778    5.4118 O.2       1 UNK        -0.5238 
     82 H82       -52.7210  -26.5430    0.4697 H         1 UNK         0.0889 
     83 H83       -51.4343  -27.7499    0.5019 H         1 UNK         0.0889 
     84 H84       -51.0745  -26.0909    0.0202 H         1 UNK         0.0889 
     85 H85       -50.7536  -28.1991    2.5782 H         1 UNK         0.3028 
     86 H86       -51.3869  -26.5994    4.8438 H         1 UNK         0.0864 
     87 H87       -49.3801  -28.9193    4.6948 H         1 UNK         0.0720 
     88 H88       -51.1091  -29.1290    4.7962 H         1 UNK         0.0720 
     89 H89       -49.4339  -30.6056    6.8149 H         1 UNK         0.0814 
     90 H90       -51.1796  -30.5543    6.9216 H         1 UNK         0.0814 
     91 H91       -48.0275  -30.2362    8.8446 H         1 UNK         0.1469 
     92 H92       -49.9359  -30.6153   12.6643 H         1 UNK         0.1381 
     93 H93       -52.3039  -30.3622    9.0940 H         1 UNK         0.1206 
     94 H94       -52.3057  -30.6784   12.8598 H         1 UNK         0.0813 
     95 H95       -53.0482  -31.5493   11.5356 H         1 UNK         0.0813 
     96 H96       -55.4316  -30.5736   12.3692 H         1 UNK         0.0638 
     97 H97       -54.6172  -29.7252   13.6646 H         1 UNK         0.0638 
     98 H98       -56.4531  -28.4126   11.6042 H         1 UNK         0.0568 
     99 H99       -57.4853  -27.3410   14.6627 H         1 UNK         0.3450 
    100 H100      -58.7375  -28.5416   14.8644 H         1 UNK         0.3450 
    101 H101      -54.8481  -27.2228   13.7347 H         1 UNK         0.2987 
    102 H102      -54.5571  -24.5807   12.8582 H         1 UNK         0.0766 
    103 H103      -55.9021  -22.6388   13.6738 H         1 UNK         0.0798 
    104 H104      -57.3570  -23.6351   13.6536 H         1 UNK         0.0798 
    105 H105      -56.5170  -23.2669   12.1546 H         1 UNK         0.0798 
    106 H106      -54.1887  -24.8824   15.0357 H         1 UNK         0.3198 
    107 H107      -55.1794  -24.6634   17.5707 H         1 UNK         0.0843 
    108 H108      -56.6459  -27.3535   17.7137 H         1 UNK         0.0831 
    109 H109      -57.2790  -25.8007   18.2404 H         1 UNK         0.0831 
    110 H110      -55.9169  -26.5172   19.0846 H         1 UNK         0.0831 
    111 H111      -53.3396  -25.9156   17.5748 H         1 UNK         0.3133 
    112 H112      -52.2873  -28.4902   17.5952 H         1 UNK         0.0566 
    113 H113      -51.0938  -29.5626   15.6857 H         1 UNK         0.0814 
    114 H114      -52.7905  -30.0104   15.6955 H         1 UNK         0.0814 
    115 H115      -52.2105  -28.8050   14.5516 H         1 UNK         0.0814 
    116 H116      -50.9195  -26.9651   15.5445 H         1 UNK         0.3091 
    117 H117      -50.2480  -24.1285   17.6237 H         1 UNK         0.0702 
    118 H118      -47.9297  -24.6304   16.8605 H         1 UNK         0.0785 
    119 H119      -48.4035  -26.2826   16.4654 H         1 UNK         0.0785 
    120 H120      -48.4227  -25.7349   18.1344 H         1 UNK         0.0785 
    121 H121      -49.5322  -24.5589   14.9418 H         1 UNK         0.2998 
    122 H122      -52.5686  -23.3787   13.4061 H         1 UNK         0.0697 
    123 H123      -49.6591  -22.4265   13.5540 H         1 UNK         0.0825 
    124 H124      -51.0685  -21.4651   13.9811 H         1 UNK         0.0825 
    125 H125      -50.8362  -21.9892   12.3203 H         1 UNK         0.0825 
    126 H126      -50.2588  -24.4615   12.1990 H         1 UNK         0.3029 
    127 H127      -51.2315  -27.9135   12.2038 H         1 UNK         0.0897 
    128 H128      -50.7744  -25.7692   10.0508 H         1 UNK         0.0792 
    129 H129      -52.1812  -26.8112   10.1901 H         1 UNK         0.0792 
    130 H130      -50.6140  -27.5088    9.8240 H         1 UNK         0.0792 
    131 H131      -48.8180  -26.5722   11.4516 H         1 UNK         0.3086 
    132 H132      -47.1692  -26.9068   14.5500 H         1 UNK         0.0583 
    133 H133      -45.5208  -28.2789   13.4693 H         1 UNK         0.1020 
    134 H134      -46.9248  -29.2255   13.8197 H         1 UNK         0.1020 
    135 H135      -46.8606  -31.2480   10.9356 H         1 UNK         0.0694 
    136 H136      -47.5399  -30.8925   12.4942 H         1 UNK         0.0694 
    137 H137      -46.2909  -26.1402   11.9309 H         1 UNK         0.2989 
    138 H138      -47.0870  -22.6657   12.4294 H         1 UNK         0.1055 
    139 H139      -44.8465  -23.2071   13.4246 H         1 UNK         0.0806 
    140 H140      -44.7028  -22.5413   11.8067 H         1 UNK         0.0806 
    141 H141      -44.4982  -24.2720   12.0681 H         1 UNK         0.0806 
    142 H142      -46.0520  -23.9698   10.1232 H         1 UNK         0.3061 
    143 H143      -49.1860  -24.0595    8.3888 H         1 UNK         0.0734 
    144 H144      -46.5606  -22.4977    8.1916 H         1 UNK         0.0832 
    145 H145      -47.8090  -22.6215    6.9555 H         1 UNK         0.0832 
    146 H146      -48.1467  -21.7910    8.4659 H         1 UNK         0.0832 
    147 H147      -48.0780  -25.6182    7.3617 H         1 UNK         0.3156 
    148 H148      -44.7181  -26.6253    6.9651 H         1 UNK         0.0589 
    149 H149      -47.2308  -28.1007    7.9280 H         1 UNK         0.0808 
    150 H150      -45.8657  -28.8452    7.0930 H         1 UNK         0.0808 
    151 H151      -45.6456  -28.1464    8.6865 H         1 UNK         0.0808 
    152 H152      -47.1143  -27.2501    5.5485 H         1 UNK         0.3098 
    153 H153      -47.3647  -24.4886    3.4692 H         1 UNK         0.0720 
    154 H154      -46.7859  -25.8633    1.4877 H         1 UNK         0.0791 
    155 H155      -45.9291  -27.0228    2.5059 H         1 UNK         0.0791 
    156 H156      -45.3231  -25.3823    2.3281 H         1 UNK         0.0791 
    157 H157      -48.3915  -27.0504    2.9839 H         1 UNK         0.3028 
@<TRIPOS>BOND
     1    1    2 1    
     2    1   82 1    
     3    1   83 1    
     4    1   84 1    
     5    2    3 2    
     6    2    4 am   BACKBONE|DICT|INTERRES
     7    4    5 1    
     8    4   85 1    
     9    5    6 1    
    10    5   80 1    
    11    5   86 1    
    12    6    7 1    
    13    6   87 1    
    14    6   88 1    
    15    7    8 1    
    16    8    9 1    
    17    8   89 1    
    18    8   90 1    
    19    9   10 ar   
    20    9   14 ar   
    21   10   11 ar   
    22   10   91 1    
    23   11   12 ar   
    24   11   58 1    
    25   12   13 ar   
    26   12   92 1    
    27   13   14 ar   
    28   13   15 1    
    29   14   93 1    
    30   15   16 1    
    31   15   94 1    
    32   15   95 1    
    33   16   17 1    
    34   17   18 1    
    35   17   96 1    
    36   17   97 1    
    37   18   19 1    
    38   18   22 1    
    39   18   98 1    
    40   19   20 am   BACKBONE|DICT|INTERRES
    41   19   21 2    
    42   20   99 1    
    43   20  100 1    
    44   22   23 am   BACKBONE|DICT|INTERRES
    45   22  101 1    
    46   23   24 2    
    47   23   25 1    
    48   25   26 1    
    49   25   27 1    
    50   25  102 1    
    51   26  103 1    
    52   26  104 1    
    53   26  105 1    
    54   27   28 am   BACKBONE|DICT|INTERRES
    55   27  106 1    
    56   28   29 2    
    57   28   30 1    
    58   30   31 1    
    59   30   32 1    
    60   30  107 1    
    61   31  108 1    
    62   31  109 1    
    63   31  110 1    
    64   32   33 am   BACKBONE|DICT|INTERRES
    65   32  111 1    
    66   33   34 2    
    67   33   35 1    
    68   35   36 1    
    69   35   37 1    
    70   35  112 1    
    71   36  113 1    
    72   36  114 1    
    73   36  115 1    
    74   37   38 am   BACKBONE|DICT|INTERRES
    75   37  116 1    
    76   38   39 2    
    77   38   40 1    
    78   40   41 1    
    79   40   42 1    
    80   40  117 1    
    81   41  118 1    
    82   41  119 1    
    83   41  120 1    
    84   42   43 am   BACKBONE|DICT|INTERRES
    85   42  121 1    
    86   43   44 2    
    87   43   45 1    
    88   45   46 1    
    89   45   47 1    
    90   45  122 1    
    91   46  123 1    
    92   46  124 1    
    93   46  125 1    
    94   47   48 am   BACKBONE|DICT|INTERRES
    95   47  126 1    
    96   48   49 2    
    97   48   50 1    
    98   50   51 1    
    99   50   52 1    
   100   50  127 1    
   101   51  128 1    
   102   51  129 1    
   103   51  130 1    
   104   52   53 am   BACKBONE|DICT|INTERRES
   105   52  131 1    
   106   53   54 2    
   107   53   55 1    
   108   55   56 1    
   109   55   59 1    
   110   55  132 1    
   111   56   57 1    
   112   56  133 1    
   113   56  134 1    
   114   57   58 1    
   115   58  135 1    
   116   58  136 1    
   117   59   60 am   BACKBONE|DICT|INTERRES
   118   59  137 1    
   119   60   61 2    
   120   60   62 1    
   121   62   63 1    
   122   62   64 1    
   123   62  138 1    
   124   63  139 1    
   125   63  140 1    
   126   63  141 1    
   127   64   65 am   BACKBONE|DICT|INTERRES
   128   64  142 1    
   129   65   66 2    
   130   65   67 1    
   131   67   68 1    
   132   67   69 1    
   133   67  143 1    
   134   68  144 1    
   135   68  145 1    
   136   68  146 1    
   137   69   70 am   BACKBONE|DICT|INTERRES
   138   69  147 1    
   139   70   71 2    
   140   70   72 1    
   141   72   73 1    
   142   72   74 1    
   143   72  148 1    
   144   73  149 1    
   145   73  150 1    
   146   73  151 1    
   147   74   75 am   BACKBONE|DICT|INTERRES
   148   74  152 1    
   149   75   76 2    
   150   75   77 1    
   151   77   78 1    
   152   77   79 1    
   153   77  153 1    
   154   78  154 1    
   155   78  155 1    
   156   78  156 1    
   157   79   80 am   BACKBONE|DICT|INTERRES
   158   79  157 1    
   159   80   81 2    
@<TRIPOS>SUBSTRUCTURE
     1 UNK         1 GROUP             0       ****    0 ROOT    
