@<TRIPOS>MOLECULE
3R207
157   159    1
SMALL
USER_CHARGES


@<TRIPOS>ATOM
      1 CA        -49.1919  -30.2241    9.1819 C.3       0 UNK        -0.1975 
      2 C         -50.3720  -29.2928    8.9140 C.2       0 UNK         0.4852 
      3 O         -50.9430  -28.7696    9.8659 O.2       0 UNK        -0.5216 
      4 N         -50.7709  -29.0601    7.6530 N.am      1 UNK        -0.4461 
      5 CA        -50.1621  -29.5860    6.4207 C.3       1 UNK         0.0864 
      6 C6        -51.1803  -29.6500    5.2497 C.3       14 UNK        -0.0898 
      7 S7        -51.7056  -28.0297    4.5807 S.3       14 UNK        -0.2598 
      8 C8        -53.4808  -27.9965    4.9852 C.3       14 UNK         0.0286 
      9 C9        -53.7070  -27.8511    6.4806 C.ar      14 UNK        -0.0844 
     10 C10       -53.3397  -26.6695    7.1278 C.ar      14 UNK        -0.0881 
     11 C11       -53.4848  -26.5402    8.5119 C.ar      14 UNK        -0.0643 
     12 C12       -54.0564  -27.5877    9.2418 C.ar      14 UNK        -0.0930 
     13 C13       -54.4548  -28.7649    8.5999 C.ar      14 UNK        -0.0827 
     14 C14       -54.2656  -28.8957    7.2208 C.ar      14 UNK        -0.1249 
     15 C15       -55.0729  -29.9077    9.3900 C.3       14 UNK         0.0141 
     16 S16       -56.8570  -30.0391    9.0554 S.3       14 UNK        -0.2313 
     17 C17       -57.2571  -31.6196    9.8733 C.3       14 UNK        -0.0915 
     18 CA        -58.3087  -31.4650   11.0139 C.3       13 UNK         0.0968 
     19 C         -58.7838  -32.8219   11.6225 C.2       13 UNK         0.5732 
     20 N         -58.8590  -33.8882   10.8363 N.am      13 UNK        -0.7310 
     21 O         -59.1429  -32.9107   12.7961 O.2       13 UNK        -0.5035 
     22 N         -57.9119  -30.4845   12.0396 N.am      13 UNK        -0.4233 
     23 C         -56.8663  -30.5920   12.8679 C.2       13 UNK         0.4989 
     24 O         -56.0460  -31.5139   12.8424 O.2       13 UNK        -0.4996 
     25 CA        -56.7466  -29.4960   13.9373 C.3       12 UNK         0.0216 
     26 CB        -57.6179  -29.8404   15.1575 C.3       12 UNK        -0.1964 
     27 N         -55.3580  -29.3547   14.3725 N.am      12 UNK        -0.4276 
     28 C         -54.4524  -28.5755   13.7726 C.2       12 UNK         0.5020 
     29 O         -54.7025  -27.8266   12.8253 O.2       12 UNK        -0.5489 
     30 CA        -53.0143  -28.6739   14.3107 C.3       11 UNK         0.0294 
     31 CB        -52.1698  -29.5915   13.4108 C.3       11 UNK        -0.2019 
     32 N         -52.3586  -27.3689   14.4092 N.am      11 UNK        -0.4493 
     33 C         -52.7652  -26.3521   15.1825 C.2       11 UNK         0.4932 
     34 O         -53.7477  -26.3977   15.9258 O.2       11 UNK        -0.5029 
     35 CA        -51.8807  -25.0928   15.1344 C.3       10 UNK         0.0280 
     36 CB        -52.4037  -23.9399   16.0171 C.3       10 UNK        -0.1976 
     37 N         -50.4800  -25.4010   15.4473 N.am      10 UNK        -0.4242 
     38 C         -50.0004  -25.9423   16.5786 C.2       10 UNK         0.5072 
     39 O         -50.6816  -26.2118   17.5687 O.2       10 UNK        -0.5224 
     40 CA        -48.4962  -26.2419   16.6116 C.3       9 UNK         0.0343 
     41 CB        -48.2003  -27.6052   15.9622 C.3       9 UNK        -0.2003 
     42 N         -47.7158  -25.1970   15.9448 N.am      9 UNK        -0.4272 
     43 C         -47.1896  -24.1396   16.5760 C.2       9 UNK         0.4988 
     44 O         -47.3408  -23.9109   17.7771 O.2       9 UNK        -0.5108 
     45 CA        -46.3061  -23.2002   15.7437 C.3       8 UNK         0.0248 
     46 CB        -44.9553  -23.8669   15.4323 C.3       8 UNK        -0.2001 
     47 N         -46.9352  -22.7460   14.5011 N.am      8 UNK        -0.4140 
     48 C         -47.8491  -21.7659   14.4438 C.2       8 UNK         0.5028 
     49 O         -48.3454  -21.2332   15.4375 O.2       8 UNK        -0.5428 
     50 CA        -48.2431  -21.2548   13.0472 C.3       7 UNK         0.0264 
     51 CB        -47.0726  -20.5119   12.3805 C.3       7 UNK        -0.1988 
     52 N         -48.7111  -22.3227   12.1669 N.am      7 UNK        -0.4454 
     53 C         -49.9069  -22.9193   12.2710 C.2       7 UNK         0.5027 
     54 O         -50.7719  -22.5763   13.0764 O.2       7 UNK        -0.5083 
     55 CA        -50.1831  -24.1122   11.3307 C.3       6 UNK         0.0844 
     56 C56       -50.8354  -23.6276   10.0138 C.3       14 UNK        -0.0967 
     57 S57       -51.2269  -25.0071    8.8913 S.3       14 UNK        -0.2604 
     58 C58       -52.9970  -25.2806    9.2143 C.3       14 UNK         0.0134 
     59 N         -48.9852  -24.9313   11.1103 N.am      6 UNK        -0.4116 
     60 C         -48.3302  -25.5907   12.0755 C.2       5 UNK         0.5034 
     61 O         -48.6868  -25.6133   13.2530 O.2       5 UNK        -0.5045 
     62 CA        -47.0236  -26.2906   11.6800 C.3       5 UNK         0.0224 
     63 CB        -47.3015  -27.6668   11.0549 C.3       5 UNK        -0.1978 
     64 N         -46.2237  -25.4680   10.7695 N.am      5 UNK        -0.4737 
     65 C         -45.5928  -24.3433   11.1373 C.2       4 UNK         0.5027 
     66 O         -45.5928  -23.9082   12.2872 O.2       4 UNK        -0.5211 
     67 CA        -44.8793  -23.5443   10.0349 C.3       4 UNK         0.0297 
     68 CB        -43.4756  -24.1141    9.7784 C.3       4 UNK        -0.1993 
     69 N         -45.6346  -23.5088    8.7815 N.am      4 UNK        -0.4486 
     70 C         -46.8337  -22.9279    8.6335 C.2       3 UNK         0.4961 
     71 O         -47.4127  -22.3094    9.5263 O.2       3 UNK        -0.5105 
     72 CA        -47.5278  -23.1175    7.2732 C.3       3 UNK         0.0299 
     73 CB        -47.0945  -22.0195    6.2893 C.3       3 UNK        -0.1972 
     74 N         -47.3081  -24.4391    6.6695 N.am      3 UNK        -0.4305 
     75 C         -47.6353  -25.6005    7.2515 C.2       2 UNK         0.5006 
     76 O         -48.0844  -25.6937    8.3951 O.2       2 UNK        -0.5106 
     77 CA        -47.3884  -26.8816    6.4564 C.3       2 UNK         0.0296 
     78 CB        -46.0809  -27.5551    6.9172 C.3       2 UNK        -0.2002 
     79 N         -48.5350  -27.7502    6.6954 N.am      2 UNK        -0.4032 
     80 C         -48.8555  -28.8594    6.0186 C.2       1 UNK         0.5000 
     81 O         -48.1673  -29.3226    5.1070 O.2       1 UNK        -0.5238 
     82 H82       -48.2792  -29.8556    8.7156 H         1 UNK         0.0889 
     83 H83       -49.0049  -30.2982   10.2530 H         1 UNK         0.0889 
     84 H84       -49.3976  -31.2294    8.8160 H         1 UNK         0.0889 
     85 H85       -51.5717  -28.4562    7.5111 H         1 UNK         0.3028 
     86 H86       -49.8719  -30.6197    6.6145 H         1 UNK         0.0864 
     87 H87       -52.0583  -30.2184    5.5602 H         1 UNK         0.0720 
     88 H88       -50.7524  -30.2195    4.4225 H         1 UNK         0.0720 
     89 H89       -53.9615  -28.8960    4.5971 H         1 UNK         0.0814 
     90 H90       -53.9456  -27.1545    4.4703 H         1 UNK         0.0814 
     91 H91       -52.8983  -25.8626    6.5583 H         1 UNK         0.1469 
     92 H92       -54.1758  -27.4938   10.3122 H         1 UNK         0.1381 
     93 H93       -54.5586  -29.8121    6.7265 H         1 UNK         0.1206 
     94 H94       -54.9144  -29.7718   10.4615 H         1 UNK         0.0813 
     95 H95       -54.5773  -30.8404    9.1169 H         1 UNK         0.0813 
     96 H96       -57.6332  -32.2797    9.0908 H         1 UNK         0.0638 
     97 H97       -56.3470  -32.0889   10.2493 H         1 UNK         0.0638 
     98 H98       -59.2093  -31.0461   10.5641 H         1 UNK         0.0568 
     99 H99       -58.5968  -33.8412    9.8647 H         1 UNK         0.3450 
    100 H100      -59.1864  -34.7586   11.2255 H         1 UNK         0.3450 
    101 H101      -58.5472  -29.7096   12.1606 H         1 UNK         0.2987 
    102 H102      -57.0935  -28.5496   13.5159 H         1 UNK         0.0766 
    103 H103      -58.6691  -29.9247   14.8780 H         1 UNK         0.0798 
    104 H104      -57.5493  -29.0685   15.9245 H         1 UNK         0.0798 
    105 H105      -57.3259  -30.7897   15.6087 H         1 UNK         0.0798 
    106 H106      -55.0536  -29.9842   15.1013 H         1 UNK         0.3198 
    107 H107      -53.0410  -29.1010   15.3156 H         1 UNK         0.0843 
    108 H108      -52.6179  -30.5833   13.3341 H         1 UNK         0.0831 
    109 H109      -51.1616  -29.7213   13.8045 H         1 UNK         0.0831 
    110 H110      -52.0876  -29.1950   12.3973 H         1 UNK         0.0831 
    111 H111      -51.5487  -27.2293   13.8234 H         1 UNK         0.3133 
    112 H112      -51.9014  -24.7487   14.1008 H         1 UNK         0.0566 
    113 H113      -53.4143  -23.6539   15.7236 H         1 UNK         0.0814 
    114 H114      -52.4367  -24.2142   17.0719 H         1 UNK         0.0814 
    115 H115      -51.7752  -23.0545   15.9187 H         1 UNK         0.0814 
    116 H116      -49.8226  -25.2861   14.6788 H         1 UNK         0.3091 
    117 H117      -48.1946  -26.3082   17.6594 H         1 UNK         0.0702 
    118 H118      -48.4994  -27.6372   14.9145 H         1 UNK         0.0785 
    119 H119      -48.7380  -28.4033   16.4758 H         1 UNK         0.0785 
    120 H120      -47.1383  -27.8454   16.0142 H         1 UNK         0.0785 
    121 H121      -47.6160  -25.2772   14.9393 H         1 UNK         0.2998 
    122 H122      -46.0976  -22.3200   16.3562 H         1 UNK         0.0697 
    123 H123      -44.2902  -23.1852   14.9018 H         1 UNK         0.0825 
    124 H124      -44.4473  -24.1673   16.3497 H         1 UNK         0.0825 
    125 H125      -45.0738  -24.7604   14.8183 H         1 UNK         0.0825 
    126 H126      -46.5586  -23.1305   13.6356 H         1 UNK         0.3029 
    127 H127      -49.0582  -20.5391   13.1764 H         1 UNK         0.0897 
    128 H128      -47.3777  -20.0649   11.4341 H         1 UNK         0.0792 
    129 H129      -46.7076  -19.7053   13.0178 H         1 UNK         0.0792 
    130 H130      -46.2311  -21.1749   12.1769 H         1 UNK         0.0792 
    131 H131      -48.0890  -22.6042   11.4152 H         1 UNK         0.3086 
    132 H132      -50.9079  -24.7527   11.8373 H         1 UNK         0.0583 
    133 H133      -51.7465  -23.0616   10.2178 H         1 UNK         0.1020 
    134 H134      -50.1668  -22.9451    9.4858 H         1 UNK         0.1020 
    135 H135      -53.1555  -25.3541   10.2915 H         1 UNK         0.0694 
    136 H136      -53.5710  -24.4218    8.8640 H         1 UNK         0.0694 
    137 H137      -48.6588  -25.0168   10.1515 H         1 UNK         0.2989 
    138 H138      -46.4442  -26.4460   12.5931 H         1 UNK         0.1055 
    139 H139      -47.8476  -28.3044   11.7517 H         1 UNK         0.0806 
    140 H140      -47.9044  -27.5908   10.1504 H         1 UNK         0.0806 
    141 H141      -46.3760  -28.1831   10.8002 H         1 UNK         0.0806 
    142 H142      -46.2614  -25.7075    9.7884 H         1 UNK         0.3061 
    143 H143      -44.7715  -22.5167   10.3891 H         1 UNK         0.0734 
    144 H144      -42.9255  -23.5071    9.0591 H         1 UNK         0.0832 
    145 H145      -42.8899  -24.1321   10.6987 H         1 UNK         0.0832 
    146 H146      -43.5146  -25.1356    9.3977 H         1 UNK         0.0832 
    147 H147      -45.2384  -23.9942    7.9901 H         1 UNK         0.3156 
    148 H148      -48.6019  -23.0159    7.4423 H         1 UNK         0.0589 
    149 H149      -47.6592  -22.0744    5.3584 H         1 UNK         0.0808 
    150 H150      -47.2669  -21.0282    6.7114 H         1 UNK         0.0808 
    151 H151      -46.0338  -22.0893    6.0447 H         1 UNK         0.0808 
    152 H152      -46.9293  -24.4523    5.7330 H         1 UNK         0.3098 
    153 H153      -47.3346  -26.6479    5.3912 H         1 UNK         0.0720 
    154 H154      -45.2288  -26.8870    6.7866 H         1 UNK         0.0791 
    155 H155      -46.1213  -27.8331    7.9713 H         1 UNK         0.0791 
    156 H156      -45.8706  -28.4574    6.3432 H         1 UNK         0.0791 
    157 H157      -49.1582  -27.4188    7.4228 H         1 UNK         0.3028 
@<TRIPOS>BOND
     1    1    2 1    
     2    1   82 1    
     3    1   83 1    
     4    1   84 1    
     5    2    3 2    
     6    2    4 am   BACKBONE|DICT|INTERRES
     7    4    5 1    
     8    4   85 1    
     9    5    6 1    
    10    5   80 1    
    11    5   86 1    
    12    6    7 1    
    13    6   87 1    
    14    6   88 1    
    15    7    8 1    
    16    8    9 1    
    17    8   89 1    
    18    8   90 1    
    19    9   10 ar   
    20    9   14 ar   
    21   10   11 ar   
    22   10   91 1    
    23   11   12 ar   
    24   11   58 1    
    25   12   13 ar   
    26   12   92 1    
    27   13   14 ar   
    28   13   15 1    
    29   14   93 1    
    30   15   16 1    
    31   15   94 1    
    32   15   95 1    
    33   16   17 1    
    34   17   18 1    
    35   17   96 1    
    36   17   97 1    
    37   18   19 1    
    38   18   22 1    
    39   18   98 1    
    40   19   20 am   BACKBONE|DICT|INTERRES
    41   19   21 2    
    42   20   99 1    
    43   20  100 1    
    44   22   23 am   BACKBONE|DICT|INTERRES
    45   22  101 1    
    46   23   24 2    
    47   23   25 1    
    48   25   26 1    
    49   25   27 1    
    50   25  102 1    
    51   26  103 1    
    52   26  104 1    
    53   26  105 1    
    54   27   28 am   BACKBONE|DICT|INTERRES
    55   27  106 1    
    56   28   29 2    
    57   28   30 1    
    58   30   31 1    
    59   30   32 1    
    60   30  107 1    
    61   31  108 1    
    62   31  109 1    
    63   31  110 1    
    64   32   33 am   BACKBONE|DICT|INTERRES
    65   32  111 1    
    66   33   34 2    
    67   33   35 1    
    68   35   36 1    
    69   35   37 1    
    70   35  112 1    
    71   36  113 1    
    72   36  114 1    
    73   36  115 1    
    74   37   38 am   BACKBONE|DICT|INTERRES
    75   37  116 1    
    76   38   39 2    
    77   38   40 1    
    78   40   41 1    
    79   40   42 1    
    80   40  117 1    
    81   41  118 1    
    82   41  119 1    
    83   41  120 1    
    84   42   43 am   BACKBONE|DICT|INTERRES
    85   42  121 1    
    86   43   44 2    
    87   43   45 1    
    88   45   46 1    
    89   45   47 1    
    90   45  122 1    
    91   46  123 1    
    92   46  124 1    
    93   46  125 1    
    94   47   48 am   BACKBONE|DICT|INTERRES
    95   47  126 1    
    96   48   49 2    
    97   48   50 1    
    98   50   51 1    
    99   50   52 1    
   100   50  127 1    
   101   51  128 1    
   102   51  129 1    
   103   51  130 1    
   104   52   53 am   BACKBONE|DICT|INTERRES
   105   52  131 1    
   106   53   54 2    
   107   53   55 1    
   108   55   56 1    
   109   55   59 1    
   110   55  132 1    
   111   56   57 1    
   112   56  133 1    
   113   56  134 1    
   114   57   58 1    
   115   58  135 1    
   116   58  136 1    
   117   59   60 am   BACKBONE|DICT|INTERRES
   118   59  137 1    
   119   60   61 2    
   120   60   62 1    
   121   62   63 1    
   122   62   64 1    
   123   62  138 1    
   124   63  139 1    
   125   63  140 1    
   126   63  141 1    
   127   64   65 am   BACKBONE|DICT|INTERRES
   128   64  142 1    
   129   65   66 2    
   130   65   67 1    
   131   67   68 1    
   132   67   69 1    
   133   67  143 1    
   134   68  144 1    
   135   68  145 1    
   136   68  146 1    
   137   69   70 am   BACKBONE|DICT|INTERRES
   138   69  147 1    
   139   70   71 2    
   140   70   72 1    
   141   72   73 1    
   142   72   74 1    
   143   72  148 1    
   144   73  149 1    
   145   73  150 1    
   146   73  151 1    
   147   74   75 am   BACKBONE|DICT|INTERRES
   148   74  152 1    
   149   75   76 2    
   150   75   77 1    
   151   77   78 1    
   152   77   79 1    
   153   77  153 1    
   154   78  154 1    
   155   78  155 1    
   156   78  156 1    
   157   79   80 am   BACKBONE|DICT|INTERRES
   158   79  157 1    
   159   80   81 2    
@<TRIPOS>SUBSTRUCTURE
     1 UNK         1 GROUP             0       ****    0 ROOT    
