@<TRIPOS>MOLECULE
3R207
157   159    1
SMALL
USER_CHARGES


@<TRIPOS>ATOM
      1 CA        -50.6702  -27.4407    2.0498 C.3       0 UNK        -0.1975 
      2 C         -50.0707  -26.8181    3.3019 C.2       0 UNK         0.4852 
      3 O         -49.9822  -25.5933    3.3935 O.2       0 UNK        -0.5216 
      4 N         -49.6542  -27.6521    4.2648 N.am      1 UNK        -0.4461 
      5 CA        -49.0715  -27.2313    5.5463 C.3       1 UNK         0.0864 
      6 C6        -49.1177  -28.3678    6.5988 C.3       14 UNK        -0.0898 
      7 S7        -50.8124  -28.6002    7.2212 S.3       14 UNK        -0.2598 
      8 C8        -50.7311  -27.5634    8.7139 C.3       14 UNK         0.0286 
      9 C9        -52.1074  -27.0708    9.1238 C.ar      14 UNK        -0.0844 
     10 C10       -52.6062  -25.8767    8.5989 C.ar      14 UNK        -0.0881 
     11 C11       -53.8368  -25.3720    9.0293 C.ar      14 UNK        -0.0643 
     12 C12       -54.5889  -26.0949    9.9598 C.ar      14 UNK        -0.0930 
     13 C13       -54.1107  -27.3033   10.4767 C.ar      14 UNK        -0.0827 
     14 C14       -52.8653  -27.7823   10.0559 C.ar      14 UNK        -0.1249 
     15 C15       -54.9226  -28.0510   11.5260 C.3       14 UNK         0.0141 
     16 S16       -55.4106  -29.7224   10.9924 S.3       14 UNK        -0.2313 
     17 C17       -54.1208  -30.7570   11.7675 C.3       14 UNK        -0.0915 
     18 CA        -54.5846  -31.3803   13.1097 C.3       13 UNK         0.0968 
     19 C         -53.5484  -32.4146   13.6373 C.2       13 UNK         0.5732 
     20 N         -52.9384  -32.2160   14.8004 N.am      13 UNK        -0.7310 
     21 O         -53.3020  -33.4246   12.9823 O.2       13 UNK        -0.5035 
     22 N         -54.9465  -30.3461   14.0937 N.am      13 UNK        -0.4233 
     23 C         -55.8677  -30.4995   15.0519 C.2       13 UNK         0.4989 
     24 O         -56.5375  -31.5223   15.2020 O.2       13 UNK        -0.4996 
     25 CA        -56.0824  -29.3238   16.0162 C.3       12 UNK         0.0216 
     26 CB        -55.3735  -29.5979   17.3535 C.3       12 UNK        -0.1964 
     27 N         -55.5960  -28.0486   15.4829 N.am      12 UNK        -0.4276 
     28 C         -56.3596  -27.1255   14.8785 C.2       12 UNK         0.5020 
     29 O         -57.5417  -27.3158   14.5883 O.2       12 UNK        -0.5489 
     30 CA        -55.7107  -25.7588   14.5421 C.3       11 UNK         0.0294 
     31 CB        -56.6973  -24.5855   14.7122 C.3       11 UNK        -0.2019 
     32 N         -54.4620  -25.4874   15.2668 N.am      11 UNK        -0.4493 
     33 C         -54.2684  -25.4797   16.5957 C.2       11 UNK         0.4932 
     34 O         -55.1817  -25.5309   17.4205 O.2       11 UNK        -0.5029 
     35 CA        -52.8050  -25.4785   17.0842 C.3       10 UNK         0.0280 
     36 CB        -52.6402  -26.2306   18.4214 C.3       10 UNK        -0.1976 
     37 N         -51.8375  -25.9905   16.1019 N.am      10 UNK        -0.4242 
     38 C         -51.8248  -27.1854   15.4851 C.2       10 UNK         0.5072 
     39 O         -52.6941  -28.0453   15.6489 O.2       10 UNK        -0.5224 
     40 CA        -50.6945  -27.4597   14.4699 C.3       9 UNK         0.0343 
     41 CB        -51.2801  -27.7539   13.0808 C.3       9 UNK        -0.2003 
     42 N         -49.7414  -26.3563   14.3399 N.am      9 UNK        -0.4272 
     43 C         -48.7492  -26.0838   15.1977 C.2       9 UNK         0.4988 
     44 O         -48.4498  -26.7979   16.1544 O.2       9 UNK        -0.5108 
     45 CA        -48.0104  -24.7519   14.9823 C.3       8 UNK         0.0248 
     46 CB        -46.8626  -24.9154   13.9727 C.3       8 UNK        -0.2001 
     47 N         -48.9162  -23.6801   14.5490 N.am      8 UNK        -0.4140 
     48 C         -49.8777  -23.1473   15.3191 C.2       8 UNK         0.5028 
     49 O         -50.0715  -23.4754   16.4887 O.2       8 UNK        -0.5428 
     50 CA        -50.8078  -22.1069   14.6742 C.3       7 UNK         0.0264 
     51 CB        -50.2024  -20.6987   14.7867 C.3       7 UNK        -0.1988 
     52 N         -51.1070  -22.4000   13.2715 N.am      7 UNK        -0.4454 
     53 C         -51.8824  -23.4100   12.8469 C.2       7 UNK         0.5027 
     54 O         -52.4633  -24.1961   13.5967 O.2       7 UNK        -0.5083 
     55 CA        -51.9810  -23.5946   11.3188 C.3       6 UNK         0.0844 
     56 C56       -53.1078  -22.7016   10.7302 C.3       14 UNK        -0.0967 
     57 S57       -53.1615  -22.6795    8.9018 S.3       14 UNK        -0.2604 
     58 C58       -54.3321  -24.0254    8.5221 C.3       14 UNK         0.0134 
     59 N         -50.6837  -23.4042   10.6541 N.am      6 UNK        -0.4116 
     60 C         -49.6021  -24.1611   10.8769 C.2       5 UNK         0.5034 
     61 O         -49.5664  -25.0847   11.6965 O.2       5 UNK        -0.5045 
     62 CA        -48.3307  -23.8012   10.1005 C.3       5 UNK         0.0224 
     63 CB        -47.6358  -22.5812   10.7387 C.3       5 UNK        -0.1978 
     64 N         -47.4592  -24.9710   10.1358 N.am      5 UNK        -0.4737 
     65 C         -46.3433  -25.1814    9.4317 C.2       4 UNK         0.5027 
     66 O         -45.8485  -24.3527    8.6659 O.2       4 UNK        -0.5211 
     67 CA        -45.6486  -26.5392    9.6308 C.3       4 UNK         0.0297 
     68 CB        -46.5186  -27.6025   10.3428 C.3       4 UNK        -0.1993 
     69 N         -45.1899  -27.0573    8.3410 N.am      4 UNK        -0.4486 
     70 C         -44.1147  -27.8420    8.1795 C.2       3 UNK         0.4961 
     71 O         -43.3674  -28.1564    9.1074 O.2       3 UNK        -0.5105 
     72 CA        -43.8151  -28.4152    6.7790 C.3       3 UNK         0.0299 
     73 CB        -43.9105  -29.9512    6.7975 C.3       3 UNK        -0.1972 
     74 N         -44.7016  -27.9114    5.7299 N.am      3 UNK        -0.4305 
     75 C         -44.5130  -26.7805    5.0378 C.2       2 UNK         0.5006 
     76 O         -43.5375  -26.0428    5.1819 O.2       2 UNK        -0.5106 
     77 CA        -45.6015  -26.4000    4.0135 C.3       2 UNK         0.0296 
     78 CB        -45.1874  -26.8441    2.6009 C.3       2 UNK        -0.2002 
     79 N         -46.9422  -26.9255    4.3098 N.am      2 UNK        -0.4032 
     80 C         -47.6434  -26.6640    5.4241 C.2       1 UNK         0.5000 
     81 O         -47.1925  -26.0118    6.3642 O.2       1 UNK        -0.5238 
     82 H82       -51.6943  -27.0946    1.9130 H         1 UNK         0.0889 
     83 H83       -50.6849  -28.5293    2.1019 H         1 UNK         0.0889 
     84 H84       -50.0923  -27.1508    1.1726 H         1 UNK         0.0889 
     85 H85       -49.7738  -28.6482    4.1440 H         1 UNK         0.3028 
     86 H86       -49.6732  -26.3995    5.9207 H         1 UNK         0.0864 
     87 H87       -48.7625  -29.3081    6.1734 H         1 UNK         0.0720 
     88 H88       -48.4647  -28.1634    7.4502 H         1 UNK         0.0720 
     89 H89       -50.0816  -26.7039    8.5382 H         1 UNK         0.0814 
     90 H90       -50.2708  -28.1304    9.5247 H         1 UNK         0.0814 
     91 H91       -52.0192  -25.3163    7.8841 H         1 UNK         0.1469 
     92 H92       -55.5396  -25.7047   10.2965 H         1 UNK         0.1381 
     93 H93       -52.4732  -28.7037   10.4582 H         1 UNK         0.1206 
     94 H94       -55.8385  -27.5046   11.7545 H         1 UNK         0.0813 
     95 H95       -54.3565  -28.0923   12.4559 H         1 UNK         0.0813 
     96 H96       -53.2079  -30.1819   11.9135 H         1 UNK         0.0638 
     97 H97       -53.8702  -31.5406   11.0501 H         1 UNK         0.0638 
     98 H98       -55.4825  -31.9619   12.8917 H         1 UNK         0.0568 
     99 H99       -52.2749  -32.8988   15.1303 H         1 UNK         0.3450 
    100 H100      -53.1288  -31.3916   15.3462 H         1 UNK         0.3450 
    101 H101      -54.4101  -29.4932   14.0730 H         1 UNK         0.2987 
    102 H102      -57.1545  -29.2542   16.2127 H         1 UNK         0.0766 
    103 H103      -55.7318  -30.5242   17.8049 H         1 UNK         0.0798 
    104 H104      -55.5585  -28.7964   18.0692 H         1 UNK         0.0798 
    105 H105      -54.2937  -29.6905   17.2295 H         1 UNK         0.0798 
    106 H106      -54.6159  -27.8360   15.6561 H         1 UNK         0.3198 
    107 H107      -55.4362  -25.8039   13.4879 H         1 UNK         0.0843 
    108 H108      -57.0639  -24.5116   15.7365 H         1 UNK         0.0831 
    109 H109      -57.5665  -24.7055   14.0643 H         1 UNK         0.0831 
    110 H110      -56.2312  -23.6351   14.4525 H         1 UNK         0.0831 
    111 H111      -53.6441  -25.3312   14.6819 H         1 UNK         0.3133 
    112 H112      -52.5448  -24.4331   17.2536 H         1 UNK         0.0566 
    113 H113      -51.6054  -26.2076   18.7633 H         1 UNK         0.0814 
    114 H114      -52.9426  -27.2750   18.3356 H         1 UNK         0.0814 
    115 H115      -53.2477  -25.7786   19.2064 H         1 UNK         0.0814 
    116 H116      -51.0911  -25.3444   15.8785 H         1 UNK         0.3091 
    117 H117      -50.1597  -28.3479   14.8121 H         1 UNK         0.0702 
    118 H118      -50.4957  -27.9726   12.3559 H         1 UNK         0.0785 
    119 H119      -51.8567  -26.9089   12.7016 H         1 UNK         0.0785 
    120 H120      -51.9410  -28.6192   13.1126 H         1 UNK         0.0785 
    121 H121      -49.8657  -25.7485   13.5352 H         1 UNK         0.2998 
    122 H122      -47.5770  -24.4559   15.9402 H         1 UNK         0.0697 
    123 H123      -47.2236  -25.2170   12.9906 H         1 UNK         0.0825 
    124 H124      -46.1591  -25.6794   14.3064 H         1 UNK         0.0825 
    125 H125      -46.3000  -23.9892   13.8557 H         1 UNK         0.0825 
    126 H126      -48.8445  -23.3806   13.5889 H         1 UNK         0.3029 
    127 H127      -51.7486  -22.1192   15.2297 H         1 UNK         0.0897 
    128 H128      -49.2659  -20.6125   14.2341 H         1 UNK         0.0792 
    129 H129      -49.9905  -20.4482   15.8273 H         1 UNK         0.0792 
    130 H130      -50.8879  -19.9406   14.4072 H         1 UNK         0.0792 
    131 H131      -50.6800  -21.8007   12.5801 H         1 UNK         0.3086 
    132 H132      -52.2597  -24.6372   11.1602 H         1 UNK         0.0583 
    133 H133      -54.0798  -23.0200   11.1127 H         1 UNK         0.1020 
    134 H134      -52.9853  -21.6667   11.0561 H         1 UNK         0.1020 
    135 H135      -55.3073  -23.7791    8.9448 H         1 UNK         0.0694 
    136 H136      -54.4685  -24.0817    7.4413 H         1 UNK         0.0694 
    137 H137      -50.6474  -22.6738    9.9576 H         1 UNK         0.2989 
    138 H138      -48.5940  -23.5875    9.0622 H         1 UNK         0.1055 
    139 H139      -46.7492  -22.2874   10.1770 H         1 UNK         0.0806 
    140 H140      -47.3249  -22.7825   11.7640 H         1 UNK         0.0806 
    141 H141      -48.2969  -21.7140   10.7597 H         1 UNK         0.0806 
    142 H142      -47.8126  -25.7053   10.7380 H         1 UNK         0.3061 
    143 H143      -44.7800  -26.3333   10.2599 H         1 UNK         0.0734 
    144 H144      -47.4377  -27.8081    9.7928 H         1 UNK         0.0832 
    145 H145      -45.9814  -28.5453   10.4470 H         1 UNK         0.0832 
    146 H146      -46.7915  -27.2899   11.3514 H         1 UNK         0.0832 
    147 H147      -45.7248  -26.7456    7.5339 H         1 UNK         0.3156 
    148 H148      -42.7852  -28.1464    6.5344 H         1 UNK         0.0589 
    149 H149      -44.9138  -30.2910    7.0580 H         1 UNK         0.0808 
    150 H150      -43.2227  -30.3788    7.5285 H         1 UNK         0.0808 
    151 H151      -43.6516  -30.3774    5.8280 H         1 UNK         0.0808 
    152 H152      -45.5297  -28.4553    5.5372 H         1 UNK         0.3098 
    153 H153      -45.6751  -25.3105    4.0192 H         1 UNK         0.0720 
    154 H154      -44.2064  -26.4455    2.3377 H         1 UNK         0.0791 
    155 H155      -45.8912  -26.4862    1.8491 H         1 UNK         0.0791 
    156 H156      -45.1301  -27.9303    2.5195 H         1 UNK         0.0791 
    157 H157      -47.3861  -27.4753    3.5887 H         1 UNK         0.3028 
@<TRIPOS>BOND
     1    1    2 1    
     2    1   82 1    
     3    1   83 1    
     4    1   84 1    
     5    2    3 2    
     6    2    4 am   BACKBONE|DICT|INTERRES
     7    4    5 1    
     8    4   85 1    
     9    5    6 1    
    10    5   80 1    
    11    5   86 1    
    12    6    7 1    
    13    6   87 1    
    14    6   88 1    
    15    7    8 1    
    16    8    9 1    
    17    8   89 1    
    18    8   90 1    
    19    9   10 ar   
    20    9   14 ar   
    21   10   11 ar   
    22   10   91 1    
    23   11   12 ar   
    24   11   58 1    
    25   12   13 ar   
    26   12   92 1    
    27   13   14 ar   
    28   13   15 1    
    29   14   93 1    
    30   15   16 1    
    31   15   94 1    
    32   15   95 1    
    33   16   17 1    
    34   17   18 1    
    35   17   96 1    
    36   17   97 1    
    37   18   19 1    
    38   18   22 1    
    39   18   98 1    
    40   19   20 am   BACKBONE|DICT|INTERRES
    41   19   21 2    
    42   20   99 1    
    43   20  100 1    
    44   22   23 am   BACKBONE|DICT|INTERRES
    45   22  101 1    
    46   23   24 2    
    47   23   25 1    
    48   25   26 1    
    49   25   27 1    
    50   25  102 1    
    51   26  103 1    
    52   26  104 1    
    53   26  105 1    
    54   27   28 am   BACKBONE|DICT|INTERRES
    55   27  106 1    
    56   28   29 2    
    57   28   30 1    
    58   30   31 1    
    59   30   32 1    
    60   30  107 1    
    61   31  108 1    
    62   31  109 1    
    63   31  110 1    
    64   32   33 am   BACKBONE|DICT|INTERRES
    65   32  111 1    
    66   33   34 2    
    67   33   35 1    
    68   35   36 1    
    69   35   37 1    
    70   35  112 1    
    71   36  113 1    
    72   36  114 1    
    73   36  115 1    
    74   37   38 am   BACKBONE|DICT|INTERRES
    75   37  116 1    
    76   38   39 2    
    77   38   40 1    
    78   40   41 1    
    79   40   42 1    
    80   40  117 1    
    81   41  118 1    
    82   41  119 1    
    83   41  120 1    
    84   42   43 am   BACKBONE|DICT|INTERRES
    85   42  121 1    
    86   43   44 2    
    87   43   45 1    
    88   45   46 1    
    89   45   47 1    
    90   45  122 1    
    91   46  123 1    
    92   46  124 1    
    93   46  125 1    
    94   47   48 am   BACKBONE|DICT|INTERRES
    95   47  126 1    
    96   48   49 2    
    97   48   50 1    
    98   50   51 1    
    99   50   52 1    
   100   50  127 1    
   101   51  128 1    
   102   51  129 1    
   103   51  130 1    
   104   52   53 am   BACKBONE|DICT|INTERRES
   105   52  131 1    
   106   53   54 2    
   107   53   55 1    
   108   55   56 1    
   109   55   59 1    
   110   55  132 1    
   111   56   57 1    
   112   56  133 1    
   113   56  134 1    
   114   57   58 1    
   115   58  135 1    
   116   58  136 1    
   117   59   60 am   BACKBONE|DICT|INTERRES
   118   59  137 1    
   119   60   61 2    
   120   60   62 1    
   121   62   63 1    
   122   62   64 1    
   123   62  138 1    
   124   63  139 1    
   125   63  140 1    
   126   63  141 1    
   127   64   65 am   BACKBONE|DICT|INTERRES
   128   64  142 1    
   129   65   66 2    
   130   65   67 1    
   131   67   68 1    
   132   67   69 1    
   133   67  143 1    
   134   68  144 1    
   135   68  145 1    
   136   68  146 1    
   137   69   70 am   BACKBONE|DICT|INTERRES
   138   69  147 1    
   139   70   71 2    
   140   70   72 1    
   141   72   73 1    
   142   72   74 1    
   143   72  148 1    
   144   73  149 1    
   145   73  150 1    
   146   73  151 1    
   147   74   75 am   BACKBONE|DICT|INTERRES
   148   74  152 1    
   149   75   76 2    
   150   75   77 1    
   151   77   78 1    
   152   77   79 1    
   153   77  153 1    
   154   78  154 1    
   155   78  155 1    
   156   78  156 1    
   157   79   80 am   BACKBONE|DICT|INTERRES
   158   79  157 1    
   159   80   81 2    
@<TRIPOS>SUBSTRUCTURE
     1 UNK         1 GROUP             0       ****    0 ROOT    
