@<TRIPOS>MOLECULE
3R207
157   159    1
SMALL
USER_CHARGES


@<TRIPOS>ATOM
      1 CA        -52.9447  -28.9976    6.8871 C.3       0 UNK        -0.1975 
      2 C         -52.7444  -27.6727    6.1687 C.2       0 UNK         0.4852 
      3 O         -52.8348  -27.6192    4.9419 O.2       0 UNK        -0.5216 
      4 N         -52.4770  -26.6027    6.9287 N.am      1 UNK        -0.4461 
      5 CA        -52.2916  -25.2302    6.4360 C.3       1 UNK         0.0864 
      6 C6        -52.2614  -24.1847    7.5825 C.3       14 UNK        -0.0898 
      7 S7        -53.5991  -24.3752    8.8096 S.3       14 UNK        -0.2598 
      8 C8        -52.6540  -24.8269   10.3004 C.3       14 UNK         0.0286 
      9 C9        -52.2244  -26.2883   10.2867 C.ar      14 UNK        -0.0844 
     10 C10       -50.9956  -26.6730    9.7347 C.ar      14 UNK        -0.0881 
     11 C11       -50.6263  -28.0224    9.6996 C.ar      14 UNK        -0.0643 
     12 C12       -51.4699  -28.9791   10.2699 C.ar      14 UNK        -0.0930 
     13 C13       -52.6911  -28.6064   10.8364 C.ar      14 UNK        -0.0827 
     14 C14       -53.0678  -27.2615   10.8326 C.ar      14 UNK        -0.1249 
     15 C15       -53.5990  -29.6671   11.4396 C.3       14 UNK         0.0141 
     16 S16       -54.4185  -30.6390   10.1369 S.3       14 UNK        -0.2313 
     17 C17       -55.0220  -32.0773   11.0830 C.3       14 UNK        -0.0915 
     18 CA        -56.5690  -32.2532   11.0037 C.3       13 UNK         0.0968 
     19 C         -57.0899  -33.5775   11.6462 C.2       13 UNK         0.5732 
     20 N         -56.3233  -34.6597   11.6031 N.am      13 UNK        -0.7310 
     21 O         -58.2154  -33.6546   12.1378 O.2       13 UNK        -0.5035 
     22 N         -57.3103  -31.0653   11.4616 N.am      13 UNK        -0.4233 
     23 C         -57.3246  -30.5798   12.7088 C.2       13 UNK         0.4989 
     24 O         -56.6645  -31.0371   13.6458 O.2       13 UNK        -0.4996 
     25 CA        -58.2853  -29.4072   12.9596 C.3       12 UNK         0.0216 
     26 CB        -59.6683  -29.9285   13.3854 C.3       12 UNK        -0.1964 
     27 N         -57.7667  -28.5225   14.0026 N.am      12 UNK        -0.4276 
     28 C         -56.8184  -27.5995   13.8065 C.2       12 UNK         0.5020 
     29 O         -56.3607  -27.3235   12.6944 O.2       12 UNK        -0.5489 
     30 CA        -56.3513  -26.8186   15.0525 C.3       11 UNK         0.0294 
     31 CB        -56.2419  -27.6966   16.3210 C.3       11 UNK        -0.2019 
     32 N         -55.1067  -26.0773   14.8128 N.am      11 UNK        -0.4493 
     33 C         -53.8819  -26.5761   14.5857 C.2       11 UNK         0.4932 
     34 O         -53.6020  -27.7760   14.6210 O.2       11 UNK        -0.5029 
     35 CA        -52.7703  -25.5616   14.2460 C.3       10 UNK         0.0280 
     36 CB        -53.2187  -24.0817   14.2634 C.3       10 UNK        -0.1976 
     37 N         -51.5785  -25.7479   15.0756 N.am      10 UNK        -0.4242 
     38 C         -51.4939  -25.6921   16.4138 C.2       10 UNK         0.5072 
     39 O         -52.4404  -25.4528   17.1652 O.2       10 UNK        -0.5224 
     40 CA        -50.0955  -25.9104   17.0132 C.3       9 UNK         0.0343 
     41 CB        -49.6935  -27.3941   16.9602 C.3       9 UNK        -0.2003 
     42 N         -49.0975  -25.1012   16.3128 N.am      9 UNK        -0.4272 
     43 C         -48.8601  -23.8049   16.5654 C.2       9 UNK         0.4988 
     44 O         -49.3677  -23.1824   17.4988 O.2       9 UNK        -0.5108 
     45 CA        -47.9055  -23.0706   15.6067 C.3       8 UNK         0.0248 
     46 CB        -46.4531  -23.1729   16.0997 C.3       8 UNK        -0.2001 
     47 N         -48.0128  -23.5814   14.2366 N.am      8 UNK        -0.4140 
     48 C         -49.0475  -23.3052   13.4257 C.2       8 UNK         0.5028 
     49 O         -49.9190  -22.4809   13.7023 O.2       8 UNK        -0.5428 
     50 CA        -49.1641  -24.0752   12.0972 C.3       7 UNK         0.0264 
     51 CB        -48.8948  -23.1546   10.8960 C.3       7 UNK        -0.1988 
     52 N         -48.2987  -25.2505   12.0058 N.am      7 UNK        -0.4454 
     53 C         -48.4800  -26.3873   12.6963 C.2       7 UNK         0.5027 
     54 O         -49.3920  -26.5484   13.5076 O.2       7 UNK        -0.5083 
     55 CA        -47.4304  -27.5065   12.5077 C.3       6 UNK         0.0844 
     56 C56       -47.8537  -28.5070   11.4044 C.3       14 UNK        -0.0967 
     57 S57       -47.8336  -27.7830    9.7231 S.3       14 UNK        -0.2604 
     58 C58       -49.3514  -28.4693    8.9944 C.3       14 UNK         0.0134 
     59 N         -46.0767  -26.9924   12.2776 N.am      6 UNK        -0.4116 
     60 C         -45.4166  -26.1377   13.0700 C.2       5 UNK         0.5034 
     61 O         -45.8381  -25.7604   14.1629 O.2       5 UNK        -0.5045 
     62 CA        -44.0942  -25.5552   12.5374 C.3       5 UNK         0.0224 
     63 CB        -42.8985  -26.2550   13.2029 C.3       5 UNK        -0.1978 
     64 N         -43.9267  -25.5983   11.0765 N.am      5 UNK        -0.4737 
     65 C         -44.7538  -25.0580   10.1701 C.2       4 UNK         0.5027 
     66 O         -45.8249  -24.5154   10.4540 O.2       4 UNK        -0.5211 
     67 CA        -44.3135  -25.1714    8.7057 C.3       4 UNK         0.0297 
     68 CB        -44.3323  -26.6320    8.2163 C.3       4 UNK        -0.1993 
     69 N         -45.2051  -24.3729    7.8720 N.am      4 UNK        -0.4486 
     70 C         -44.8740  -23.7607    6.7328 C.2       3 UNK         0.4961 
     71 O         -43.7464  -23.7981    6.2362 O.2       3 UNK        -0.5105 
     72 CA        -46.0155  -23.0256    6.0070 C.3       3 UNK         0.0299 
     73 CB        -45.5044  -22.0749    4.9083 C.3       3 UNK        -0.1972 
     74 N         -46.9356  -23.9950    5.4098 N.am      3 UNK        -0.4305 
     75 C         -47.8978  -24.6446    6.0752 C.2       2 UNK         0.5006 
     76 O         -48.1621  -24.4497    7.2651 O.2       2 UNK        -0.5106 
     77 CA        -48.6516  -25.7309    5.2919 C.3       2 UNK         0.0296 
     78 CB        -47.9052  -27.0718    5.3946 C.3       2 UNK        -0.2002 
     79 N         -50.0039  -25.8925    5.8218 N.am      2 UNK        -0.4032 
     80 C         -51.0219  -25.0563    5.5749 C.2       1 UNK         0.5000 
     81 O         -50.9783  -24.1537    4.7361 O.2       1 UNK        -0.5238 
     82 H82       -53.2117  -28.8461    7.9322 H         1 UNK         0.0889 
     83 H83       -52.0326  -29.5922    6.8474 H         1 UNK         0.0889 
     84 H84       -53.7468  -29.5674    6.4189 H         1 UNK         0.0889 
     85 H85       -52.4542  -26.7038    7.9360 H         1 UNK         0.3028 
     86 H86       -53.1470  -25.0035    5.7960 H         1 UNK         0.0864 
     87 H87       -51.2988  -24.1985    8.0966 H         1 UNK         0.0720 
     88 H88       -52.3483  -23.1802    7.1639 H         1 UNK         0.0720 
     89 H89       -51.7918  -24.1679   10.4002 H         1 UNK         0.0814 
     90 H90       -53.2791  -24.6361   11.1735 H         1 UNK         0.0814 
     91 H91       -50.3313  -25.9313    9.3122 H         1 UNK         0.1469 
     92 H92       -51.1926  -30.0243   10.2503 H         1 UNK         0.1381 
     93 H93       -54.0190  -26.9722   11.2599 H         1 UNK         0.1206 
     94 H94       -54.3541  -29.2148   12.0852 H         1 UNK         0.0813 
     95 H95       -53.0030  -30.3245   12.0742 H         1 UNK         0.0813 
     96 H96       -54.5135  -32.9471   10.6657 H         1 UNK         0.0638 
     97 H97       -54.6959  -32.0091   12.1217 H         1 UNK         0.0638 
     98 H98       -56.8263  -32.3517    9.9487 H         1 UNK         0.0568 
     99 H99       -55.4073  -34.6352   11.1844 H         1 UNK         0.3450 
    100 H100      -56.6707  -35.5190   11.9992 H         1 UNK         0.3450 
    101 H101      -57.9125  -30.6427   10.7707 H         1 UNK         0.2987 
    102 H102      -58.3985  -28.8359   12.0353 H         1 UNK         0.0766 
    103 H103      -60.3697  -29.1095   13.5466 H         1 UNK         0.0798 
    104 H104      -59.6150  -30.5124   14.3054 H         1 UNK         0.0798 
    105 H105      -60.0966  -30.5737   12.6170 H         1 UNK         0.0798 
    106 H106      -58.0650  -28.7162   14.9472 H         1 UNK         0.3198 
    107 H107      -57.1147  -26.0617   15.2392 H         1 UNK         0.0843 
    108 H108      -55.7939  -27.1433   17.1468 H         1 UNK         0.0831 
    109 H109      -55.6328  -28.5851   16.1487 H         1 UNK         0.0831 
    110 H110      -57.2216  -28.0321   16.6617 H         1 UNK         0.0831 
    111 H111      -55.2145  -25.0763   14.7329 H         1 UNK         0.3133 
    112 H112      -52.4532  -25.7954   13.2301 H         1 UNK         0.0566 
    113 H113      -52.4009  -23.4249   13.9690 H         1 UNK         0.0814 
    114 H114      -54.0318  -23.9012   13.5593 H         1 UNK         0.0814 
    115 H115      -53.5509  -23.7639   15.2525 H         1 UNK         0.0814 
    116 H116      -50.7444  -26.0260   14.5596 H         1 UNK         0.3091 
    117 H117      -50.1264  -25.6102   18.0630 H         1 UNK         0.0702 
    118 H118      -50.4213  -28.0117   17.4882 H         1 UNK         0.0785 
    119 H119      -48.7253  -27.5581   17.4335 H         1 UNK         0.0785 
    120 H120      -49.6329  -27.7668   15.9371 H         1 UNK         0.0785 
    121 H121      -48.6549  -25.5255   15.5095 H         1 UNK         0.2998 
    122 H122      -48.1819  -22.0138   15.6027 H         1 UNK         0.0697 
    123 H123      -46.1375  -24.2086   16.2273 H         1 UNK         0.0825 
    124 H124      -46.3394  -22.6820   17.0670 H         1 UNK         0.0825 
    125 H125      -45.7610  -22.6919   15.4083 H         1 UNK         0.0825 
    126 H126      -47.3254  -24.2692   13.9504 H         1 UNK         0.3029 
    127 H127      -50.1953  -24.4262   12.0365 H         1 UNK         0.0897 
    128 H128      -49.0264  -23.6831    9.9512 H         1 UNK         0.0792 
    129 H129      -49.5803  -22.3062   10.8914 H         1 UNK         0.0792 
    130 H130      -47.8803  -22.7549   10.9161 H         1 UNK         0.0792 
    131 H131      -47.4983  -25.1751   11.3831 H         1 UNK         0.3086 
    132 H132      -47.3939  -28.0554   13.4509 H         1 UNK         0.0583 
    133 H133      -47.1803  -29.3654   11.4093 H         1 UNK         0.1020 
    134 H134      -48.8407  -28.9145   11.6299 H         1 UNK         0.1020 
    135 H135      -49.4080  -28.1653    7.9498 H         1 UNK         0.0694 
    136 H136      -49.2706  -29.5574    8.9868 H         1 UNK         0.0694 
    137 H137      -45.6667  -27.2192   11.3838 H         1 UNK         0.2989 
    138 H138      -44.0806  -24.5031   12.8305 H         1 UNK         0.1055 
    139 H139      -42.9782  -26.2168   14.2906 H         1 UNK         0.0806 
    140 H140      -41.9566  -25.7759   12.9346 H         1 UNK         0.0806 
    141 H141      -42.8358  -27.3060   12.9179 H         1 UNK         0.0806 
    142 H142      -43.0771  -26.0323   10.7430 H         1 UNK         0.3061 
    143 H143      -43.2979  -24.7757    8.6360 H         1 UNK         0.0734 
    144 H144      -43.9799  -26.7069    7.1875 H         1 UNK         0.0832 
    145 H145      -43.6864  -27.2684    8.8219 H         1 UNK         0.0832 
    146 H146      -45.3367  -27.0542    8.2519 H         1 UNK         0.0832 
    147 H147      -46.1542  -24.2847    8.2242 H         1 UNK         0.3156 
    148 H148      -46.5506  -22.4235    6.7450 H         1 UNK         0.0589 
    149 H149      -44.9755  -22.6105    4.1188 H         1 UNK         0.0808 
    150 H150      -46.3251  -21.5246    4.4478 H         1 UNK         0.0808 
    151 H151      -44.8139  -21.3385    5.3216 H         1 UNK         0.0808 
    152 H152      -46.7568  -24.2463    4.4478 H         1 UNK         0.3098 
    153 H153      -48.7156  -25.4406    4.2409 H         1 UNK         0.0720 
    154 H154      -48.4537  -27.8734    4.8994 H         1 UNK         0.0791 
    155 H155      -47.7393  -27.3657    6.4318 H         1 UNK         0.0791 
    156 H156      -46.9255  -27.0093    4.9193 H         1 UNK         0.0791 
    157 H157      -50.1257  -26.5783    6.5502 H         1 UNK         0.3028 
@<TRIPOS>BOND
     1    1    2 1    
     2    1   82 1    
     3    1   83 1    
     4    1   84 1    
     5    2    3 2    
     6    2    4 am   BACKBONE|DICT|INTERRES
     7    4    5 1    
     8    4   85 1    
     9    5    6 1    
    10    5   80 1    
    11    5   86 1    
    12    6    7 1    
    13    6   87 1    
    14    6   88 1    
    15    7    8 1    
    16    8    9 1    
    17    8   89 1    
    18    8   90 1    
    19    9   10 ar   
    20    9   14 ar   
    21   10   11 ar   
    22   10   91 1    
    23   11   12 ar   
    24   11   58 1    
    25   12   13 ar   
    26   12   92 1    
    27   13   14 ar   
    28   13   15 1    
    29   14   93 1    
    30   15   16 1    
    31   15   94 1    
    32   15   95 1    
    33   16   17 1    
    34   17   18 1    
    35   17   96 1    
    36   17   97 1    
    37   18   19 1    
    38   18   22 1    
    39   18   98 1    
    40   19   20 am   BACKBONE|DICT|INTERRES
    41   19   21 2    
    42   20   99 1    
    43   20  100 1    
    44   22   23 am   BACKBONE|DICT|INTERRES
    45   22  101 1    
    46   23   24 2    
    47   23   25 1    
    48   25   26 1    
    49   25   27 1    
    50   25  102 1    
    51   26  103 1    
    52   26  104 1    
    53   26  105 1    
    54   27   28 am   BACKBONE|DICT|INTERRES
    55   27  106 1    
    56   28   29 2    
    57   28   30 1    
    58   30   31 1    
    59   30   32 1    
    60   30  107 1    
    61   31  108 1    
    62   31  109 1    
    63   31  110 1    
    64   32   33 am   BACKBONE|DICT|INTERRES
    65   32  111 1    
    66   33   34 2    
    67   33   35 1    
    68   35   36 1    
    69   35   37 1    
    70   35  112 1    
    71   36  113 1    
    72   36  114 1    
    73   36  115 1    
    74   37   38 am   BACKBONE|DICT|INTERRES
    75   37  116 1    
    76   38   39 2    
    77   38   40 1    
    78   40   41 1    
    79   40   42 1    
    80   40  117 1    
    81   41  118 1    
    82   41  119 1    
    83   41  120 1    
    84   42   43 am   BACKBONE|DICT|INTERRES
    85   42  121 1    
    86   43   44 2    
    87   43   45 1    
    88   45   46 1    
    89   45   47 1    
    90   45  122 1    
    91   46  123 1    
    92   46  124 1    
    93   46  125 1    
    94   47   48 am   BACKBONE|DICT|INTERRES
    95   47  126 1    
    96   48   49 2    
    97   48   50 1    
    98   50   51 1    
    99   50   52 1    
   100   50  127 1    
   101   51  128 1    
   102   51  129 1    
   103   51  130 1    
   104   52   53 am   BACKBONE|DICT|INTERRES
   105   52  131 1    
   106   53   54 2    
   107   53   55 1    
   108   55   56 1    
   109   55   59 1    
   110   55  132 1    
   111   56   57 1    
   112   56  133 1    
   113   56  134 1    
   114   57   58 1    
   115   58  135 1    
   116   58  136 1    
   117   59   60 am   BACKBONE|DICT|INTERRES
   118   59  137 1    
   119   60   61 2    
   120   60   62 1    
   121   62   63 1    
   122   62   64 1    
   123   62  138 1    
   124   63  139 1    
   125   63  140 1    
   126   63  141 1    
   127   64   65 am   BACKBONE|DICT|INTERRES
   128   64  142 1    
   129   65   66 2    
   130   65   67 1    
   131   67   68 1    
   132   67   69 1    
   133   67  143 1    
   134   68  144 1    
   135   68  145 1    
   136   68  146 1    
   137   69   70 am   BACKBONE|DICT|INTERRES
   138   69  147 1    
   139   70   71 2    
   140   70   72 1    
   141   72   73 1    
   142   72   74 1    
   143   72  148 1    
   144   73  149 1    
   145   73  150 1    
   146   73  151 1    
   147   74   75 am   BACKBONE|DICT|INTERRES
   148   74  152 1    
   149   75   76 2    
   150   75   77 1    
   151   77   78 1    
   152   77   79 1    
   153   77  153 1    
   154   78  154 1    
   155   78  155 1    
   156   78  156 1    
   157   79   80 am   BACKBONE|DICT|INTERRES
   158   79  157 1    
   159   80   81 2    
@<TRIPOS>SUBSTRUCTURE
     1 UNK         1 GROUP             0       ****    0 ROOT    
