@<TRIPOS>MOLECULE
3R207
157   159    1
SMALL
USER_CHARGES


@<TRIPOS>ATOM
      1 CA        -46.1683  -31.7595    3.4251 C.3       0 UNK        -0.1975 
      2 C         -46.8999  -30.4286    3.5196 C.2       0 UNK         0.4852 
      3 O         -46.6078  -29.5132    2.7484 O.2       0 UNK        -0.5216 
      4 N         -47.8547  -30.3187    4.4514 N.am      1 UNK        -0.4461 
      5 CA        -48.6076  -29.0973    4.7496 C.3       1 UNK         0.0864 
      6 C6        -49.9012  -29.3905    5.5573 C.3       14 UNK        -0.0898 
      7 S7        -49.6868  -30.5254    6.9774 S.3       14 UNK        -0.2598 
      8 C8        -49.6419  -29.3746    8.3846 C.3       14 UNK         0.0286 
      9 C9        -51.0291  -28.9017    8.7864 C.ar      14 UNK        -0.0844 
     10 C10       -51.5058  -27.6669    8.3410 C.ar      14 UNK        -0.0881 
     11 C11       -52.7538  -27.1962    8.7578 C.ar      14 UNK        -0.0643 
     12 C12       -53.5405  -27.9829    9.6034 C.ar      14 UNK        -0.0930 
     13 C13       -53.0748  -29.2222   10.0526 C.ar      14 UNK        -0.0827 
     14 C14       -51.8178  -29.6766    9.6416 C.ar      14 UNK        -0.1249 
     15 C15       -53.9164  -30.0518   11.0085 C.3       14 UNK         0.0141 
     16 S16       -53.8807  -29.3257   12.6721 S.3       14 UNK        -0.2313 
     17 C17       -54.6942  -30.6210   13.6651 C.3       14 UNK        -0.0915 
     18 CA        -56.2213  -30.4021   13.8263 C.3       13 UNK         0.0968 
     19 C         -56.8515  -31.5235   14.7025 C.2       13 UNK         0.5732 
     20 N         -57.3947  -31.2271   15.8772 N.am      13 UNK        -0.7310 
     21 O         -56.8515  -32.6858   14.3034 O.2       13 UNK        -0.5035 
     22 N         -56.5279  -29.0272   14.2491 N.am      13 UNK        -0.4233 
     23 C         -57.7200  -28.4318   14.1311 C.2       13 UNK         0.4989 
     24 O         -58.7397  -28.9991   13.7366 O.2       13 UNK        -0.4996 
     25 CA        -57.7839  -26.9395   14.4975 C.3       12 UNK         0.0216 
     26 CB        -58.1710  -26.7643   15.9749 C.3       12 UNK        -0.1964 
     27 N         -56.5388  -26.2094   14.2363 N.am      12 UNK        -0.4276 
     28 C         -55.9822  -26.0020   13.0368 C.2       12 UNK         0.5020 
     29 O         -56.4597  -26.4357   11.9876 O.2       12 UNK        -0.5489 
     30 CA        -54.6951  -25.1535   12.9666 C.3       11 UNK         0.0294 
     31 CB        -55.0362  -23.6898   12.6316 C.3       11 UNK        -0.2019 
     32 N         -53.7724  -25.2075   14.1130 N.am      11 UNK        -0.4493 
     33 C         -53.9704  -24.8937   15.4020 C.2       11 UNK         0.4932 
     34 O         -55.0661  -24.5766   15.8675 O.2       11 UNK        -0.5029 
     35 CA        -52.7361  -24.9107   16.3265 C.3       10 UNK         0.0280 
     36 CB        -53.1007  -25.1541   17.8068 C.3       10 UNK        -0.1976 
     37 N         -51.6667  -25.8168   15.8908 N.am      10 UNK        -0.4242 
     38 C         -51.7031  -27.1566   15.8070 C.2       10 UNK         0.5072 
     39 O         -52.6933  -27.8300   16.0968 O.2       10 UNK        -0.5224 
     40 CA        -50.4277  -27.8812   15.3240 C.3       9 UNK         0.0343 
     41 CB        -50.7090  -28.7271   14.0735 C.3       9 UNK        -0.2003 
     42 N         -49.3115  -26.9788   15.0316 N.am      9 UNK        -0.4272 
     43 C         -48.4678  -26.4797   15.9446 C.2       9 UNK         0.4988 
     44 O         -48.5055  -26.7654   17.1417 O.2       9 UNK        -0.5108 
     45 CA        -47.4258  -25.4627   15.4445 C.3       8 UNK         0.0248 
     46 CB        -46.1862  -26.1866   14.8966 C.3       8 UNK        -0.2001 
     47 N         -47.9503  -24.5365   14.4333 N.am      8 UNK        -0.4140 
     48 C         -48.9616  -23.6794   14.6425 C.2       8 UNK         0.5028 
     49 O         -49.5529  -23.5685   15.7166 O.2       8 UNK        -0.5428 
     50 CA        -49.4294  -22.8342   13.4473 C.3       7 UNK         0.0264 
     51 CB        -48.4719  -21.6588   13.1953 C.3       7 UNK        -0.1988 
     52 N         -49.5874  -23.6148   12.2200 N.am      7 UNK        -0.4454 
     53 C         -50.4414  -24.6377   12.0628 C.2       7 UNK         0.5027 
     54 O         -51.2067  -25.0354   12.9414 O.2       7 UNK        -0.5083 
     55 CA        -50.3859  -25.3772   10.7110 C.3       6 UNK         0.0844 
     56 C56       -51.0311  -24.5390    9.5740 C.3       14 UNK        -0.0967 
     57 S57       -52.8553  -24.5700    9.6031 S.3       14 UNK        -0.2604 
     58 C58       -53.2317  -25.8181    8.3318 C.3       14 UNK         0.0134 
     59 N         -49.0174  -25.7958   10.3816 N.am      6 UNK        -0.4116 
     60 C         -48.2335  -26.5607   11.1593 C.2       5 UNK         0.5034 
     61 O         -48.6029  -27.0885   12.2068 O.2       5 UNK        -0.5045 
     62 CA        -46.7616  -26.7056   10.7416 C.3       5 UNK         0.0224 
     63 CB        -46.5703  -27.8413    9.7300 C.3       5 UNK        -0.1978 
     64 N         -46.2195  -25.4625   10.1946 N.am      5 UNK        -0.4737 
     65 C         -45.9838  -24.3624   10.9221 C.2       4 UNK         0.5027 
     66 O         -46.1443  -24.2977   12.1406 O.2       4 UNK        -0.5211 
     67 CA        -45.5528  -23.1109   10.1414 C.3       4 UNK         0.0297 
     68 CB        -44.0550  -23.1677    9.8020 C.3       4 UNK        -0.1993 
     69 N         -46.3350  -22.9298    8.9145 N.am      4 UNK        -0.4486 
     70 C         -47.6526  -22.6830    8.8954 C.2       3 UNK         0.4961 
     71 O         -48.3329  -22.5344    9.9092 O.2       3 UNK        -0.5105 
     72 CA        -48.3386  -22.6206    7.5221 C.3       3 UNK         0.0299 
     73 CB        -48.3326  -21.1800    6.9876 C.3       3 UNK        -0.1972 
     74 N         -47.7480  -23.5167    6.5243 N.am      3 UNK        -0.4305 
     75 C         -47.7779  -24.8565    6.5674 C.2       2 UNK         0.5006 
     76 O         -48.2641  -25.5058    7.4967 O.2       2 UNK        -0.5106 
     77 CA        -47.1270  -25.5595    5.3663 C.3       2 UNK         0.0296 
     78 CB        -45.6135  -25.7666    5.5864 C.3       2 UNK        -0.2002 
     79 N         -47.8308  -26.7859    4.9617 N.am      2 UNK        -0.4032 
     80 C         -47.7070  -28.0391    5.4268 C.2       1 UNK         0.5000 
     81 O         -46.9276  -28.3893    6.3156 O.2       1 UNK        -0.5238 
     82 H82       -46.2966  -32.1889    2.4318 H         1 UNK         0.0889 
     83 H83       -46.5363  -32.4794    4.1560 H         1 UNK         0.0889 
     84 H84       -45.1025  -31.6143    3.5993 H         1 UNK         0.0889 
     85 H85       -48.0324  -31.0873    5.0829 H         1 UNK         0.3028 
     86 H86       -48.9246  -28.6850    3.7887 H         1 UNK         0.0864 
     87 H87       -50.3778  -28.4643    5.8786 H         1 UNK         0.0720 
     88 H88       -50.6260  -29.8629    4.8926 H         1 UNK         0.0720 
     89 H89       -49.0100  -28.5219    8.1384 H         1 UNK         0.0814 
     90 H90       -49.1673  -29.8714    9.2318 H         1 UNK         0.0814 
     91 H91       -50.8878  -27.0552    7.6984 H         1 UNK         0.1469 
     92 H92       -54.5005  -27.6157    9.9420 H         1 UNK         0.1381 
     93 H93       -51.4449  -30.6273    9.9976 H         1 UNK         0.1206 
     94 H94       -54.9469  -30.0991   10.6536 H         1 UNK         0.0813 
     95 H95       -53.5489  -31.0783   11.0474 H         1 UNK         0.0813 
     96 H96       -54.4870  -31.5959   13.2201 H         1 UNK         0.0638 
     97 H97       -54.2114  -30.6271   14.6442 H         1 UNK         0.0638 
     98 H98       -56.6647  -30.5252   12.8364 H         1 UNK         0.0568 
     99 H99       -57.8029  -31.9622   16.4325 H         1 UNK         0.3450 
    100 H100      -57.4023  -30.2769   16.2101 H         1 UNK         0.3450 
    101 H101      -55.7428  -28.4800   14.5697 H         1 UNK         0.2987 
    102 H102      -58.5641  -26.4869   13.8822 H         1 UNK         0.0766 
    103 H103      -58.3150  -25.7128   16.2244 H         1 UNK         0.0798 
    104 H104      -57.4072  -27.1646   16.6430 H         1 UNK         0.0798 
    105 H105      -59.1059  -27.2802   16.1989 H         1 UNK         0.0798 
    106 H106      -56.0952  -25.7406   15.0255 H         1 UNK         0.3198 
    107 H107      -54.1226  -25.5579   12.1303 H         1 UNK         0.0843 
    108 H108      -55.5887  -23.2071   13.4383 H         1 UNK         0.0831 
    109 H109      -55.6498  -23.6283   11.7317 H         1 UNK         0.0831 
    110 H110      -54.1332  -23.1083   12.4448 H         1 UNK         0.0831 
    111 H111      -52.8092  -25.4057   13.8456 H         1 UNK         0.3133 
    112 H112      -52.3104  -23.9087   16.2600 H         1 UNK         0.0566 
    113 H113      -52.2137  -25.1446   18.4402 H         1 UNK         0.0814 
    114 H114      -53.7697  -24.3772   18.1787 H         1 UNK         0.0814 
    115 H115      -53.6053  -26.1102   17.9482 H         1 UNK         0.0814 
    116 H116      -50.8096  -25.3530   15.6117 H         1 UNK         0.3091 
    117 H117      -50.1255  -28.5607   16.1234 H         1 UNK         0.0702 
    118 H118      -51.4519  -29.4961   14.2853 H         1 UNK         0.0785 
    119 H119      -51.0856  -28.1160   13.2514 H         1 UNK         0.0785 
    120 H120      -49.8105  -29.2368   13.7253 H         1 UNK         0.0785 
    121 H121      -49.1739  -26.7399   14.0527 H         1 UNK         0.2998 
    122 H122      -47.1152  -24.8628   16.3024 H         1 UNK         0.0697 
    123 H123      -46.4305  -26.8021   14.0309 H         1 UNK         0.0825 
    124 H124      -45.7525  -26.8437   15.6516 H         1 UNK         0.0825 
    125 H125      -45.4117  -25.4798   14.5984 H         1 UNK         0.0825 
    126 H126      -47.4819  -24.5314   13.5302 H         1 UNK         0.3029 
    127 H127      -50.4100  -22.4249   13.6999 H         1 UNK         0.0897 
    128 H128      -48.8473  -21.0051   12.4077 H         1 UNK         0.0792 
    129 H129      -47.4799  -22.0006   12.8981 H         1 UNK         0.0792 
    130 H130      -48.3539  -21.0510   14.0934 H         1 UNK         0.0792 
    131 H131      -49.0161  -23.3306   11.4256 H         1 UNK         0.3086 
    132 H132      -50.9574  -26.3001   10.8290 H         1 UNK         0.0583 
    133 H133      -50.7163  -23.4962    9.6199 H         1 UNK         0.1020 
    134 H134      -50.6958  -24.8941    8.5998 H         1 UNK         0.1020 
    135 H135      -54.3096  -25.8380    8.1643 H         1 UNK         0.0694 
    136 H136      -52.7793  -25.5261    7.3828 H         1 UNK         0.0694 
    137 H137      -48.6359  -25.4579    9.5049 H         1 UNK         0.2989 
    138 H138      -46.1922  -26.9582   11.6385 H         1 UNK         0.1055 
    139 H139      -47.0153  -28.7700   10.0892 H         1 UNK         0.0806 
    140 H140      -45.5135  -28.0370    9.5489 H         1 UNK         0.0806 
    141 H141      -47.0293  -27.5990    8.7734 H         1 UNK         0.0806 
    142 H142      -46.0974  -25.4178    9.1935 H         1 UNK         0.3061 
    143 H143      -45.7258  -22.2440   10.7831 H         1 UNK         0.0734 
    144 H144      -43.7224  -22.2485    9.3195 H         1 UNK         0.0832 
    145 H145      -43.4568  -23.2910   10.7061 H         1 UNK         0.0832 
    146 H146      -43.8179  -24.0007    9.1391 H         1 UNK         0.0832 
    147 H147      -45.8488  -23.0252    8.0351 H         1 UNK         0.3156 
    148 H148      -49.3784  -22.9219    7.6587 H         1 UNK         0.0589 
    149 H149      -47.3202  -20.8207    6.7987 H         1 UNK         0.0808 
    150 H150      -48.8981  -21.0979    6.0591 H         1 UNK         0.0808 
    151 H151      -48.7917  -20.4970    7.7041 H         1 UNK         0.0808 
    152 H152      -47.3189  -23.0712    5.7253 H         1 UNK         0.3098 
    153 H153      -47.2334  -24.8947    4.5073 H         1 UNK         0.0720 
    154 H154      -45.1598  -26.3044    4.7538 H         1 UNK         0.0791 
    155 H155      -45.4053  -26.3237    6.5005 H         1 UNK         0.0791 
    156 H156      -45.0976  -24.8098    5.6726 H         1 UNK         0.0791 
    157 H157      -48.5225  -26.6371    4.2400 H         1 UNK         0.3028 
@<TRIPOS>BOND
     1    1    2 1    
     2    1   82 1    
     3    1   83 1    
     4    1   84 1    
     5    2    3 2    
     6    2    4 am   BACKBONE|DICT|INTERRES
     7    4    5 1    
     8    4   85 1    
     9    5    6 1    
    10    5   80 1    
    11    5   86 1    
    12    6    7 1    
    13    6   87 1    
    14    6   88 1    
    15    7    8 1    
    16    8    9 1    
    17    8   89 1    
    18    8   90 1    
    19    9   10 ar   
    20    9   14 ar   
    21   10   11 ar   
    22   10   91 1    
    23   11   12 ar   
    24   11   58 1    
    25   12   13 ar   
    26   12   92 1    
    27   13   14 ar   
    28   13   15 1    
    29   14   93 1    
    30   15   16 1    
    31   15   94 1    
    32   15   95 1    
    33   16   17 1    
    34   17   18 1    
    35   17   96 1    
    36   17   97 1    
    37   18   19 1    
    38   18   22 1    
    39   18   98 1    
    40   19   20 am   BACKBONE|DICT|INTERRES
    41   19   21 2    
    42   20   99 1    
    43   20  100 1    
    44   22   23 am   BACKBONE|DICT|INTERRES
    45   22  101 1    
    46   23   24 2    
    47   23   25 1    
    48   25   26 1    
    49   25   27 1    
    50   25  102 1    
    51   26  103 1    
    52   26  104 1    
    53   26  105 1    
    54   27   28 am   BACKBONE|DICT|INTERRES
    55   27  106 1    
    56   28   29 2    
    57   28   30 1    
    58   30   31 1    
    59   30   32 1    
    60   30  107 1    
    61   31  108 1    
    62   31  109 1    
    63   31  110 1    
    64   32   33 am   BACKBONE|DICT|INTERRES
    65   32  111 1    
    66   33   34 2    
    67   33   35 1    
    68   35   36 1    
    69   35   37 1    
    70   35  112 1    
    71   36  113 1    
    72   36  114 1    
    73   36  115 1    
    74   37   38 am   BACKBONE|DICT|INTERRES
    75   37  116 1    
    76   38   39 2    
    77   38   40 1    
    78   40   41 1    
    79   40   42 1    
    80   40  117 1    
    81   41  118 1    
    82   41  119 1    
    83   41  120 1    
    84   42   43 am   BACKBONE|DICT|INTERRES
    85   42  121 1    
    86   43   44 2    
    87   43   45 1    
    88   45   46 1    
    89   45   47 1    
    90   45  122 1    
    91   46  123 1    
    92   46  124 1    
    93   46  125 1    
    94   47   48 am   BACKBONE|DICT|INTERRES
    95   47  126 1    
    96   48   49 2    
    97   48   50 1    
    98   50   51 1    
    99   50   52 1    
   100   50  127 1    
   101   51  128 1    
   102   51  129 1    
   103   51  130 1    
   104   52   53 am   BACKBONE|DICT|INTERRES
   105   52  131 1    
   106   53   54 2    
   107   53   55 1    
   108   55   56 1    
   109   55   59 1    
   110   55  132 1    
   111   56   57 1    
   112   56  133 1    
   113   56  134 1    
   114   57   58 1    
   115   58  135 1    
   116   58  136 1    
   117   59   60 am   BACKBONE|DICT|INTERRES
   118   59  137 1    
   119   60   61 2    
   120   60   62 1    
   121   62   63 1    
   122   62   64 1    
   123   62  138 1    
   124   63  139 1    
   125   63  140 1    
   126   63  141 1    
   127   64   65 am   BACKBONE|DICT|INTERRES
   128   64  142 1    
   129   65   66 2    
   130   65   67 1    
   131   67   68 1    
   132   67   69 1    
   133   67  143 1    
   134   68  144 1    
   135   68  145 1    
   136   68  146 1    
   137   69   70 am   BACKBONE|DICT|INTERRES
   138   69  147 1    
   139   70   71 2    
   140   70   72 1    
   141   72   73 1    
   142   72   74 1    
   143   72  148 1    
   144   73  149 1    
   145   73  150 1    
   146   73  151 1    
   147   74   75 am   BACKBONE|DICT|INTERRES
   148   74  152 1    
   149   75   76 2    
   150   75   77 1    
   151   77   78 1    
   152   77   79 1    
   153   77  153 1    
   154   78  154 1    
   155   78  155 1    
   156   78  156 1    
   157   79   80 am   BACKBONE|DICT|INTERRES
   158   79  157 1    
   159   80   81 2    
@<TRIPOS>SUBSTRUCTURE
     1 UNK         1 GROUP             0       ****    0 ROOT    
