@<TRIPOS>MOLECULE
3R207
157   159    1
SMALL
USER_CHARGES


@<TRIPOS>ATOM
      1 CA        -51.3098  -27.0598    4.9111 C.3       0 UNK        -0.1975 
      2 C         -50.6151  -28.3726    4.5586 C.2       0 UNK         0.4852 
      3 O         -50.5799  -28.7398    3.3859 O.2       0 UNK        -0.5216 
      4 N         -50.0548  -29.1171    5.5237 N.am      1 UNK        -0.4461 
      5 CA        -49.9758  -28.7957    6.9549 C.3       1 UNK         0.0864 
      6 C6        -49.9393  -30.0944    7.8028 C.3       14 UNK        -0.0898 
      7 S7        -50.3040  -29.8436    9.5757 S.3       14 UNK        -0.2598 
      8 C8        -52.0398  -30.4008    9.7097 C.3       14 UNK         0.0286 
      9 C9        -53.0745  -29.4735    9.0692 C.ar      14 UNK        -0.0844 
     10 C10       -52.8534  -28.0984    8.9246 C.ar      14 UNK        -0.0881 
     11 C11       -53.7942  -27.2793    8.2925 C.ar      14 UNK        -0.0643 
     12 C12       -54.9957  -27.8403    7.8516 C.ar      14 UNK        -0.0930 
     13 C13       -55.2484  -29.2042    8.0163 C.ar      14 UNK        -0.0827 
     14 C14       -54.2833  -30.0147    8.6209 C.ar      14 UNK        -0.1249 
     15 C15       -56.5485  -29.8015    7.4978 C.3       14 UNK         0.0141 
     16 S16       -57.9380  -29.5140    8.6386 S.3       14 UNK        -0.2313 
     17 C17       -57.5940  -30.7255    9.9588 C.3       14 UNK        -0.0915 
     18 CA        -57.3817  -30.0724   11.3496 C.3       13 UNK         0.0968 
     19 C         -57.2518  -31.1696   12.4475 C.2       13 UNK         0.5732 
     20 N         -56.1038  -31.3523   13.0880 N.am      13 UNK        -0.7310 
     21 O         -58.2222  -31.8705   12.7261 O.2       13 UNK        -0.5035 
     22 N         -56.2976  -29.0778   11.3298 N.am      13 UNK        -0.4233 
     23 C         -56.0804  -28.1681   12.2868 C.2       13 UNK         0.4989 
     24 O         -56.7939  -28.0264   13.2825 O.2       13 UNK        -0.4996 
     25 CA        -54.8453  -27.2674   12.1019 C.3       12 UNK         0.0216 
     26 CB        -55.2154  -25.7922   12.3372 C.3       12 UNK        -0.1964 
     27 N         -53.7196  -27.6128   12.9779 N.am      12 UNK        -0.4276 
     28 C         -53.2297  -28.8330   13.2498 C.2       12 UNK         0.5020 
     29 O         -53.6916  -29.8797   12.7953 O.2       12 UNK        -0.5489 
     30 CA        -51.9978  -28.9209   14.1702 C.3       11 UNK         0.0294 
     31 CB        -50.8086  -29.5403   13.4168 C.3       11 UNK        -0.2019 
     32 N         -51.5897  -27.6327   14.7403 N.am      11 UNK        -0.4493 
     33 C         -52.1897  -27.0410   15.7835 C.2       11 UNK         0.4932 
     34 O         -53.1660  -27.5205   16.3622 O.2       11 UNK        -0.5029 
     35 CA        -51.6155  -25.6866   16.2431 C.3       10 UNK         0.0280 
     36 CB        -52.0775  -25.2824   17.6597 C.3       10 UNK        -0.1976 
     37 N         -50.1560  -25.6073   16.1258 N.am      10 UNK        -0.4242 
     38 C         -49.2378  -26.3455   16.7700 C.2       10 UNK         0.5072 
     39 O         -49.5094  -27.2374   17.5752 O.2       10 UNK        -0.5224 
     40 CA        -47.7559  -26.0364   16.4782 C.3       9 UNK         0.0343 
     41 CB        -47.0818  -27.2048   15.7406 C.3       9 UNK        -0.2003 
     42 N         -47.5686  -24.7834   15.7320 N.am      9 UNK        -0.4272 
     43 C         -47.5919  -23.5759   16.3170 C.2       9 UNK         0.4988 
     44 O         -47.7209  -23.4049   17.5299 O.2       9 UNK        -0.5108 
     45 CA        -47.4711  -22.3504   15.4051 C.3       8 UNK         0.0248 
     46 CB        -46.0029  -22.0807   15.0335 C.3       8 UNK        -0.2001 
     47 N         -48.2893  -22.4665   14.1947 N.am      8 UNK        -0.4140 
     48 C         -49.5952  -22.1683   14.1496 C.2       8 UNK         0.5028 
     49 O         -50.2715  -21.9137   15.1467 O.2       8 UNK        -0.5428 
     50 CA        -50.2467  -22.0727   12.7626 C.3       7 UNK         0.0264 
     51 CB        -49.6378  -20.9160   11.9507 C.3       7 UNK        -0.1988 
     52 N         -50.1622  -23.3067   11.9850 N.am      7 UNK        -0.4454 
     53 C         -51.0068  -24.3396   12.1166 C.2       7 UNK         0.5027 
     54 O         -51.8578  -24.4273   13.0024 O.2       7 UNK        -0.5083 
     55 CA        -50.8794  -25.4711   11.0720 C.3       6 UNK         0.0844 
     56 C56       -51.3324  -24.9945    9.6670 C.3       14 UNK        -0.0967 
     57 S57       -53.1464  -24.8467    9.5259 S.3       14 UNK        -0.2604 
     58 C58       -53.5043  -25.8063    8.0224 C.3       14 UNK         0.0134 
     59 N         -49.5318  -26.0416   11.0386 N.am      6 UNK        -0.4116 
     60 C         -48.8789  -26.5486   12.0932 C.2       5 UNK         0.5034 
     61 O         -49.3676  -26.6650   13.2169 O.2       5 UNK        -0.5045 
     62 CA        -47.4065  -26.9257   11.8692 C.3       5 UNK         0.0224 
     63 CB        -47.2634  -28.3128   11.2263 C.3       5 UNK        -0.1978 
     64 N         -46.6985  -25.9071   11.0878 N.am      5 UNK        -0.4737 
     65 C         -46.4310  -24.6835   11.5680 C.2       4 UNK         0.5027 
     66 O         -46.7178  -24.3281   12.7103 O.2       4 UNK        -0.5211 
     67 CA        -45.7713  -23.6752   10.6155 C.3       4 UNK         0.0297 
     68 CB        -44.2509  -23.8895   10.5705 C.3       4 UNK        -0.1993 
     69 N         -46.3163  -23.7272    9.2586 N.am      4 UNK        -0.4486 
     70 C         -47.5790  -23.4407    8.9183 C.2       3 UNK         0.4961 
     71 O         -48.4394  -23.0860    9.7232 O.2       3 UNK        -0.5105 
     72 CA        -47.9620  -23.6266    7.4399 C.3       3 UNK         0.0299 
     73 CB        -47.3462  -22.5347    6.5435 C.3       3 UNK        -0.1972 
     74 N         -47.6763  -24.9822    6.9532 N.am      3 UNK        -0.4305 
     75 C         -46.4946  -25.5889    6.7775 C.2       2 UNK         0.5006 
     76 O         -45.4145  -25.0034    6.8725 O.2       2 UNK        -0.5106 
     77 CA        -46.4885  -27.1093    6.5000 C.3       2 UNK         0.0296 
     78 CB        -45.6214  -27.8420    7.5449 C.3       2 UNK        -0.2002 
     79 N         -47.7940  -27.7857    6.3845 N.am      2 UNK        -0.4032 
     80 C         -48.7945  -27.8522    7.2797 C.2       1 UNK         0.5000 
     81 O         -48.8348  -27.1673    8.3031 O.2       1 UNK        -0.5238 
     82 H82       -50.6709  -26.4111    5.5084 H         1 UNK         0.0889 
     83 H83       -52.2304  -27.2570    5.4597 H         1 UNK         0.0889 
     84 H84       -51.5748  -26.5144    4.0055 H         1 UNK         0.0889 
     85 H85       -49.6330  -29.9960    5.2567 H         1 UNK         0.3028 
     86 H86       -50.8818  -28.2569    7.2205 H         1 UNK         0.0864 
     87 H87       -50.6638  -30.8105    7.4113 H         1 UNK         0.0720 
     88 H88       -48.9674  -30.5841    7.7175 H         1 UNK         0.0720 
     89 H89       -52.2801  -30.5079   10.7657 H         1 UNK         0.0814 
     90 H90       -52.1160  -31.4013    9.2814 H         1 UNK         0.0814 
     91 H91       -51.9315  -27.6689    9.2827 H         1 UNK         0.1469 
     92 H92       -55.7334  -27.2195    7.3614 H         1 UNK         0.1381 
     93 H93       -54.4684  -31.0745    8.7329 H         1 UNK         0.1206 
     94 H94       -56.4392  -30.8709    7.3107 H         1 UNK         0.0813 
     95 H95       -56.7916  -29.3530    6.5334 H         1 UNK         0.0813 
     96 H96       -56.7286  -31.3330    9.6904 H         1 UNK         0.0638 
     97 H97       -58.4425  -31.4116    9.9879 H         1 UNK         0.0638 
     98 H98       -58.2966  -29.5278   11.5907 H         1 UNK         0.0568 
     99 H99       -56.0446  -32.0664   13.7950 H         1 UNK         0.3450 
    100 H100      -55.2871  -30.7794   12.8804 H         1 UNK         0.3450 
    101 H101      -55.6536  -29.1434   10.5537 H         1 UNK         0.2987 
    102 H102      -54.4943  -27.3658   11.0749 H         1 UNK         0.0766 
    103 H103      -54.3658  -25.1321   12.1683 H         1 UNK         0.0798 
    104 H104      -55.5670  -25.6201   13.3554 H         1 UNK         0.0798 
    105 H105      -56.0088  -25.4770   11.6582 H         1 UNK         0.0798 
    106 H106      -53.2534  -26.8332   13.4188 H         1 UNK         0.3198 
    107 H107      -52.2588  -29.5915   14.9917 H         1 UNK         0.0843 
    108 H108      -51.0322  -30.5625   13.1090 H         1 UNK         0.0831 
    109 H109      -50.5707  -28.9793   12.5133 H         1 UNK         0.0831 
    110 H110      -49.9136  -29.5767   14.0380 H         1 UNK         0.0831 
    111 H111      -50.7882  -27.1782   14.3041 H         1 UNK         0.3133 
    112 H112      -52.0126  -24.9408   15.5548 H         1 UNK         0.0566 
    113 H113      -51.6658  -24.3156   17.9494 H         1 UNK         0.0814 
    114 H114      -53.1638  -25.1976   17.7072 H         1 UNK         0.0814 
    115 H115      -51.7765  -26.0147   18.4095 H         1 UNK         0.0814 
    116 H116      -49.8121  -24.9296   15.4605 H         1 UNK         0.3091 
    117 H117      -47.2536  -25.9358   17.4429 H         1 UNK         0.0702 
    118 H118      -46.9598  -28.0561   16.4113 H         1 UNK         0.0785 
    119 H119      -46.0908  -26.9372   15.3737 H         1 UNK         0.0785 
    120 H120      -47.6783  -27.5561   14.9015 H         1 UNK         0.0785 
    121 H121      -47.4347  -24.8410   14.7280 H         1 UNK         0.2998 
    122 H122      -47.8220  -21.4847   15.9718 H         1 UNK         0.0697 
    123 H123      -45.5453  -22.9239   14.5167 H         1 UNK         0.0825 
    124 H124      -45.4075  -21.8924   15.9279 H         1 UNK         0.0825 
    125 H125      -45.9096  -21.2036   14.3931 H         1 UNK         0.0825 
    126 H126      -47.8145  -22.7885   13.3577 H         1 UNK         0.3029 
    127 H127      -51.3029  -21.8388   12.9170 H         1 UNK         0.0897 
    128 H128      -50.1706  -20.7716   11.0106 H         1 UNK         0.0792 
    129 H129      -49.6949  -19.9769   12.5029 H         1 UNK         0.0792 
    130 H130      -48.5881  -21.0922   11.7118 H         1 UNK         0.0792 
    131 H131      -49.4886  -23.3160   11.2202 H         1 UNK         0.3086 
    132 H132      -51.5382  -26.2837   11.3860 H         1 UNK         0.0583 
    133 H133      -50.8888  -24.0329    9.4045 H         1 UNK         0.1020 
    134 H134      -50.9723  -25.6841    8.9044 H         1 UNK         0.1020 
    135 H135      -54.3615  -25.3398    7.5345 H         1 UNK         0.0694 
    136 H136      -52.6784  -25.7169    7.3169 H         1 UNK         0.0694 
    137 H137      -49.0643  -26.0548   10.1406 H         1 UNK         0.2989 
    138 H138      -46.9275  -26.9716   12.8476 H         1 UNK         0.1055 
    139 H139      -47.7649  -29.0716   11.8288 H         1 UNK         0.0806 
    140 H140      -46.2169  -28.6059   11.1428 H         1 UNK         0.0806 
    141 H141      -47.7030  -28.3537   10.2321 H         1 UNK         0.0806 
    142 H142      -46.4577  -26.1260   10.1328 H         1 UNK         0.3061 
    143 H143      -45.9640  -22.6757   11.0113 H         1 UNK         0.0734 
    144 H144      -43.7599  -23.1214    9.9728 H         1 UNK         0.0832 
    145 H145      -43.8211  -23.8427   11.5723 H         1 UNK         0.0832 
    146 H146      -43.9904  -24.8608   10.1480 H         1 UNK         0.0832 
    147 H147      -45.7013  -24.0494    8.5155 H         1 UNK         0.3156 
    148 H148      -49.0463  -23.5182    7.3814 H         1 UNK         0.0589 
    149 H149      -46.2563  -22.5428    6.5660 H         1 UNK         0.0808 
    150 H150      -47.6597  -22.6523    5.5063 H         1 UNK         0.0808 
    151 H151      -47.6661  -21.5439    6.8684 H         1 UNK         0.0808 
    152 H152      -48.4723  -25.6061    6.9687 H         1 UNK         0.3098 
    153 H153      -46.0056  -27.2273    5.5288 H         1 UNK         0.0720 
    154 H154      -44.6063  -27.4432    7.5696 H         1 UNK         0.0791 
    155 H155      -45.5408  -28.9050    7.3180 H         1 UNK         0.0791 
    156 H156      -46.0325  -27.7460    8.5491 H         1 UNK         0.0791 
    157 H157      -47.9071  -28.3372    5.5449 H         1 UNK         0.3028 
@<TRIPOS>BOND
     1    1    2 1    
     2    1   82 1    
     3    1   83 1    
     4    1   84 1    
     5    2    3 2    
     6    2    4 am   BACKBONE|DICT|INTERRES
     7    4    5 1    
     8    4   85 1    
     9    5    6 1    
    10    5   80 1    
    11    5   86 1    
    12    6    7 1    
    13    6   87 1    
    14    6   88 1    
    15    7    8 1    
    16    8    9 1    
    17    8   89 1    
    18    8   90 1    
    19    9   10 ar   
    20    9   14 ar   
    21   10   11 ar   
    22   10   91 1    
    23   11   12 ar   
    24   11   58 1    
    25   12   13 ar   
    26   12   92 1    
    27   13   14 ar   
    28   13   15 1    
    29   14   93 1    
    30   15   16 1    
    31   15   94 1    
    32   15   95 1    
    33   16   17 1    
    34   17   18 1    
    35   17   96 1    
    36   17   97 1    
    37   18   19 1    
    38   18   22 1    
    39   18   98 1    
    40   19   20 am   BACKBONE|DICT|INTERRES
    41   19   21 2    
    42   20   99 1    
    43   20  100 1    
    44   22   23 am   BACKBONE|DICT|INTERRES
    45   22  101 1    
    46   23   24 2    
    47   23   25 1    
    48   25   26 1    
    49   25   27 1    
    50   25  102 1    
    51   26  103 1    
    52   26  104 1    
    53   26  105 1    
    54   27   28 am   BACKBONE|DICT|INTERRES
    55   27  106 1    
    56   28   29 2    
    57   28   30 1    
    58   30   31 1    
    59   30   32 1    
    60   30  107 1    
    61   31  108 1    
    62   31  109 1    
    63   31  110 1    
    64   32   33 am   BACKBONE|DICT|INTERRES
    65   32  111 1    
    66   33   34 2    
    67   33   35 1    
    68   35   36 1    
    69   35   37 1    
    70   35  112 1    
    71   36  113 1    
    72   36  114 1    
    73   36  115 1    
    74   37   38 am   BACKBONE|DICT|INTERRES
    75   37  116 1    
    76   38   39 2    
    77   38   40 1    
    78   40   41 1    
    79   40   42 1    
    80   40  117 1    
    81   41  118 1    
    82   41  119 1    
    83   41  120 1    
    84   42   43 am   BACKBONE|DICT|INTERRES
    85   42  121 1    
    86   43   44 2    
    87   43   45 1    
    88   45   46 1    
    89   45   47 1    
    90   45  122 1    
    91   46  123 1    
    92   46  124 1    
    93   46  125 1    
    94   47   48 am   BACKBONE|DICT|INTERRES
    95   47  126 1    
    96   48   49 2    
    97   48   50 1    
    98   50   51 1    
    99   50   52 1    
   100   50  127 1    
   101   51  128 1    
   102   51  129 1    
   103   51  130 1    
   104   52   53 am   BACKBONE|DICT|INTERRES
   105   52  131 1    
   106   53   54 2    
   107   53   55 1    
   108   55   56 1    
   109   55   59 1    
   110   55  132 1    
   111   56   57 1    
   112   56  133 1    
   113   56  134 1    
   114   57   58 1    
   115   58  135 1    
   116   58  136 1    
   117   59   60 am   BACKBONE|DICT|INTERRES
   118   59  137 1    
   119   60   61 2    
   120   60   62 1    
   121   62   63 1    
   122   62   64 1    
   123   62  138 1    
   124   63  139 1    
   125   63  140 1    
   126   63  141 1    
   127   64   65 am   BACKBONE|DICT|INTERRES
   128   64  142 1    
   129   65   66 2    
   130   65   67 1    
   131   67   68 1    
   132   67   69 1    
   133   67  143 1    
   134   68  144 1    
   135   68  145 1    
   136   68  146 1    
   137   69   70 am   BACKBONE|DICT|INTERRES
   138   69  147 1    
   139   70   71 2    
   140   70   72 1    
   141   72   73 1    
   142   72   74 1    
   143   72  148 1    
   144   73  149 1    
   145   73  150 1    
   146   73  151 1    
   147   74   75 am   BACKBONE|DICT|INTERRES
   148   74  152 1    
   149   75   76 2    
   150   75   77 1    
   151   77   78 1    
   152   77   79 1    
   153   77  153 1    
   154   78  154 1    
   155   78  155 1    
   156   78  156 1    
   157   79   80 am   BACKBONE|DICT|INTERRES
   158   79  157 1    
   159   80   81 2    
@<TRIPOS>SUBSTRUCTURE
     1 UNK         1 GROUP             0       ****    0 ROOT    
