@<TRIPOS>MOLECULE
3R207
157   159    1
SMALL
USER_CHARGES


@<TRIPOS>ATOM
      1 CA        -44.5902  -27.9398   11.8589 C.3       0 UNK        -0.1975 
      2 C         -45.5773  -28.8312   11.1202 C.2       0 UNK         0.4852 
      3 O         -45.3805  -30.0466   11.0784 O.2       0 UNK        -0.5216 
      4 N         -46.6310  -28.2416   10.5453 N.am      1 UNK        -0.4461 
      5 CA        -47.6653  -28.9338    9.7726 C.3       1 UNK         0.0864 
      6 C6        -48.9643  -29.1446   10.5943 C.3       14 UNK        -0.0898 
      7 S7        -49.7915  -27.6133   11.1472 S.3       14 UNK        -0.2598 
      8 C8        -51.2885  -27.6287   10.1124 C.3       14 UNK         0.0286 
      9 C9        -52.0324  -26.3123   10.2446 C.ar      14 UNK        -0.0844 
     10 C10       -51.7249  -25.2464    9.3951 C.ar      14 UNK        -0.0881 
     11 C11       -52.3493  -24.0068    9.5591 C.ar      14 UNK        -0.0643 
     12 C12       -53.3085  -23.8469   10.5642 C.ar      14 UNK        -0.0930 
     13 C13       -53.6334  -24.9107   11.4095 C.ar      14 UNK        -0.0827 
     14 C14       -53.0002  -26.1452   11.2379 C.ar      14 UNK        -0.1249 
     15 C15       -54.6389  -24.7200   12.5323 C.3       14 UNK         0.0141 
     16 S16       -56.2756  -25.3525   12.0631 S.3       14 UNK        -0.2313 
     17 C17       -56.8493  -25.9947   13.6710 C.3       14 UNK        -0.0915 
     18 CA        -56.3705  -27.4545   13.9301 C.3       13 UNK         0.0968 
     19 C         -56.7224  -27.9726   15.3589 C.2       13 UNK         0.5732 
     20 N         -56.9630  -29.2651   15.5575 N.am      13 UNK        -0.7310 
     21 O         -56.7618  -27.1970   16.3115 O.2       13 UNK        -0.5035 
     22 N         -56.7252  -28.3859   12.8487 N.am      13 UNK        -0.4233 
     23 C         -57.9666  -28.7471   12.4935 C.2       13 UNK         0.4989 
     24 O         -58.9932  -28.2614   12.9704 O.2       13 UNK        -0.4996 
     25 CA        -58.0985  -29.8687   11.4457 C.3       12 UNK         0.0216 
     26 CB        -58.3962  -29.2730   10.0599 C.3       12 UNK        -0.1964 
     27 N         -56.9270  -30.7462   11.3497 N.am      12 UNK        -0.4276 
     28 C         -56.4121  -31.4809   12.3459 C.2       12 UNK         0.5020 
     29 O         -56.8862  -31.5247   13.4833 O.2       12 UNK        -0.5489 
     30 CA        -55.1254  -32.2694   12.0427 C.3       11 UNK         0.0294 
     31 CB        -54.7698  -32.3523   10.5394 C.3       11 UNK        -0.2019 
     32 N         -53.9805  -31.7568   12.8041 N.am      11 UNK        -0.4493 
     33 C         -53.4932  -30.5065   12.8040 C.2       11 UNK         0.4932 
     34 O         -53.9943  -29.5630   12.1855 O.2       11 UNK        -0.5029 
     35 CA        -52.1855  -30.3185   13.5925 C.3       10 UNK         0.0280 
     36 CB        -51.0240  -31.0275   12.8773 C.3       10 UNK        -0.1976 
     37 N         -51.8316  -28.9103   13.7772 N.am      10 UNK        -0.4242 
     38 C         -52.3868  -28.1048   14.6910 C.2       10 UNK         0.5072 
     39 O         -53.2870  -28.4603   15.4541 O.2       10 UNK        -0.5224 
     40 CA        -51.8139  -26.6741   14.7853 C.3       9 UNK         0.0343 
     41 CB        -52.3270  -25.9035   16.0190 C.3       9 UNK        -0.2003 
     42 N         -50.3479  -26.6096   14.7236 N.am      9 UNK        -0.4272 
     43 C         -49.4643  -27.2833   15.4803 C.2       9 UNK         0.4988 
     44 O         -49.7746  -28.1023   16.3460 O.2       9 UNK        -0.5108 
     45 CA        -47.9694  -26.9981   15.2409 C.3       8 UNK         0.0248 
     46 CB        -47.3671  -28.0331   14.2793 C.3       8 UNK        -0.2001 
     47 N         -47.7065  -25.6482   14.7351 N.am      8 UNK        -0.4140 
     48 C         -47.8534  -24.5312   15.4631 C.2       8 UNK         0.5028 
     49 O         -48.1300  -24.5309   16.6634 O.2       8 UNK        -0.5428 
     50 CA        -47.6733  -23.1808   14.7431 C.3       7 UNK         0.0264 
     51 CB        -46.2788  -22.6023   15.0347 C.3       7 UNK        -0.1988 
     52 N         -47.8797  -23.2124   13.2906 N.am      7 UNK        -0.4454 
     53 C         -49.0006  -23.5926   12.6574 C.2       7 UNK         0.5027 
     54 O         -49.9957  -24.0214   13.2417 O.2       7 UNK        -0.5083 
     55 CA        -49.0220  -23.4876   11.1186 C.3       6 UNK         0.0844 
     56 C56       -49.9504  -22.3340   10.6590 C.3       14 UNK        -0.0967 
     57 S57       -50.2047  -22.3588    8.8471 S.3       14 UNK        -0.2604 
     58 C58       -51.9619  -22.8250    8.6803 C.3       14 UNK         0.0134 
     59 N         -47.6917  -23.3495   10.5200 N.am      6 UNK        -0.4116 
     60 C         -46.7325  -24.2800   10.4589 C.2       5 UNK         0.5034 
     61 O         -46.8059  -25.3744   11.0201 O.2       5 UNK        -0.5045 
     62 CA        -45.4879  -23.9049    9.6248 C.3       5 UNK         0.0224 
     63 CB        -44.5468  -25.0981    9.3846 C.3       5 UNK        -0.1978 
     64 N         -45.8628  -23.3249    8.3297 N.am      5 UNK        -0.4737 
     65 C         -46.2276  -22.0543    8.1173 C.2       4 UNK         0.5027 
     66 O         -46.2169  -21.1976    9.0008 O.2       4 UNK        -0.5211 
     67 CA        -46.7812  -21.6937    6.7276 C.3       4 UNK         0.0297 
     68 CB        -45.6560  -21.5402    5.6851 C.3       4 UNK        -0.1993 
     69 N         -47.8474  -22.6043    6.2807 N.am      4 UNK        -0.4486 
     70 C         -47.7454  -23.8890    5.9176 C.2       3 UNK         0.4961 
     71 O         -46.6746  -24.4960    5.8168 O.2       3 UNK        -0.5105 
     72 CA        -49.0628  -24.6237    5.6416 C.3       3 UNK         0.0299 
     73 CB        -49.6455  -24.2470    4.2687 C.3       3 UNK        -0.1972 
     74 N         -48.7790  -26.0511    5.6834 N.am      3 UNK        -0.4305 
     75 C         -49.5962  -27.0202    6.1021 C.2       2 UNK         0.5006 
     76 O         -50.7708  -26.8416    6.4243 O.2       2 UNK        -0.5106 
     77 CA        -49.0042  -28.4419    6.1750 C.3       2 UNK         0.0296 
     78 CB        -47.7796  -28.6561    5.2547 C.3       2 UNK        -0.2002 
     79 N         -48.6863  -28.8522    7.5488 N.am      2 UNK        -0.4032 
     80 C         -47.8882  -28.2195    8.4252 C.2       1 UNK         0.5000 
     81 O         -47.3188  -27.1501    8.1934 O.2       1 UNK        -0.5238 
     82 H82       -43.7095  -27.7649   11.2421 H         1 UNK         0.0889 
     83 H83       -44.2673  -28.4187   12.7828 H         1 UNK         0.0889 
     84 H84       -45.0294  -26.9774   12.1182 H         1 UNK         0.0889 
     85 H85       -46.7332  -27.2280   10.5762 H         1 UNK         0.3028 
     86 H86       -47.2938  -29.9241    9.5005 H         1 UNK         0.0864 
     87 H87       -48.7193  -29.7205   11.4875 H         1 UNK         0.0720 
     88 H88       -49.6707  -29.7631   10.0390 H         1 UNK         0.0720 
     89 H89       -51.9316  -28.4595   10.4083 H         1 UNK         0.0814 
     90 H90       -51.0177  -27.7978    9.0695 H         1 UNK         0.0814 
     91 H91       -50.9680  -25.3673    8.6322 H         1 UNK         0.1469 
     92 H92       -53.7897  -22.8884   10.7022 H         1 UNK         0.1381 
     93 H93       -53.2473  -26.9714   11.8902 H         1 UNK         0.1206 
     94 H94       -54.7258  -23.6666   12.8026 H         1 UNK         0.0813 
     95 H95       -54.2797  -25.2319   13.4249 H         1 UNK         0.0813 
     96 H96       -57.9381  -25.9359   13.6954 H         1 UNK         0.0638 
     97 H97       -56.4974  -25.3238   14.4567 H         1 UNK         0.0638 
     98 H98       -55.2817  -27.4322   13.9211 H         1 UNK         0.0568 
     99 H99       -57.1789  -29.5852   16.4876 H         1 UNK         0.3450 
    100 H100      -56.9252  -29.9291   14.7922 H         1 UNK         0.3450 
    101 H101      -55.9372  -28.8547   12.4151 H         1 UNK         0.2987 
    102 H102      -58.9462  -30.4891   11.7436 H         1 UNK         0.0766 
    103 H103      -57.5703  -28.6576    9.7000 H         1 UNK         0.0798 
    104 H104      -59.2839  -28.6394   10.0901 H         1 UNK         0.0798 
    105 H105      -58.5834  -30.0532    9.3218 H         1 UNK         0.0798 
    106 H106      -56.4429  -30.7556   10.4636 H         1 UNK         0.3198 
    107 H107      -55.3062  -33.2864   12.3944 H         1 UNK         0.0843 
    108 H108      -53.9093  -33.0025   10.3812 H         1 UNK         0.0831 
    109 H109      -54.5213  -31.3787   10.1150 H         1 UNK         0.0831 
    110 H110      -55.5924  -32.7733    9.9594 H         1 UNK         0.0831 
    111 H111      -53.5110  -32.4419   13.3800 H         1 UNK         0.3133 
    112 H112      -52.3107  -30.7718   14.5783 H         1 UNK         0.0566 
    113 H113      -50.0692  -30.8260   13.3638 H         1 UNK         0.0814 
    114 H114      -51.1608  -32.1094   12.8780 H         1 UNK         0.0814 
    115 H115      -50.9504  -30.7154   11.8363 H         1 UNK         0.0814 
    116 H116      -51.1264  -28.5296   13.1614 H         1 UNK         0.3091 
    117 H117      -52.1637  -26.1433   13.9017 H         1 UNK         0.0702 
    118 H118      -51.9516  -24.8801   16.0285 H         1 UNK         0.0785 
    119 H119      -52.0184  -26.3833   16.9485 H         1 UNK         0.0785 
    120 H120      -53.4165  -25.8493   16.0239 H         1 UNK         0.0785 
    121 H121      -49.9866  -25.9271   14.0653 H         1 UNK         0.2998 
    122 H122      -47.4640  -27.1023   16.2035 H         1 UNK         0.0697 
    123 H123      -46.2826  -27.9418   14.2381 H         1 UNK         0.0825 
    124 H124      -47.5918  -29.0504   14.6030 H         1 UNK         0.0825 
    125 H125      -47.7554  -27.9194   13.2678 H         1 UNK         0.0825 
    126 H126      -47.4716  -25.5578   13.7562 H         1 UNK         0.3029 
    127 H127      -48.4201  -22.5010   15.1589 H         1 UNK         0.0897 
    128 H128      -46.1720  -21.5958   14.6296 H         1 UNK         0.0792 
    129 H129      -46.0999  -22.5356   16.1090 H         1 UNK         0.0792 
    130 H130      -45.4880  -23.2228   14.6111 H         1 UNK         0.0792 
    131 H131      -47.1144  -22.8806   12.7224 H         1 UNK         0.3086 
    132 H132      -49.4377  -24.4308   10.7601 H         1 UNK         0.0583 
    133 H133      -50.9155  -22.3809   11.1661 H         1 UNK         0.1020 
    134 H134      -49.5239  -21.3672   10.9328 H         1 UNK         0.1020 
    135 H135      -52.5748  -21.9529    8.9133 H         1 UNK         0.0694 
    136 H136      -52.1642  -23.0734    7.6376 H         1 UNK         0.0694 
    137 H137      -47.5157  -22.4782   10.0337 H         1 UNK         0.2989 
    138 H138      -44.9342  -23.1581   10.1982 H         1 UNK         0.1055 
    139 H139      -44.1623  -25.4841   10.3281 H         1 UNK         0.0806 
    140 H140      -45.0530  -25.9169    8.8726 H         1 UNK         0.0806 
    141 H141      -43.6851  -24.8092    8.7828 H         1 UNK         0.0806 
    142 H142      -45.9666  -23.9705    7.5506 H         1 UNK         0.3061 
    143 H143      -47.2598  -20.7179    6.8276 H         1 UNK         0.0734 
    144 H144      -45.0789  -22.4565    5.5596 H         1 UNK         0.0832 
    145 H145      -46.0542  -21.2582    4.7106 H         1 UNK         0.0832 
    146 H146      -44.9554  -20.7607    5.9872 H         1 UNK         0.0832 
    147 H147      -48.7810  -22.2241    6.3646 H         1 UNK         0.3156 
    148 H148      -49.7737  -24.3691    6.4306 H         1 UNK         0.0589 
    149 H149      -50.5735  -24.7845    4.0726 H         1 UNK         0.0808 
    150 H150      -49.8722  -23.1815    4.2157 H         1 UNK         0.0808 
    151 H151      -48.9496  -24.4750    3.4603 H         1 UNK         0.0808 
    152 H152      -47.7984  -26.2685    5.5477 H         1 UNK         0.3098 
    153 H153      -49.7915  -29.1124    5.8270 H         1 UNK         0.0720 
    154 H154      -48.0011  -28.3598    4.2284 H         1 UNK         0.0791 
    155 H155      -47.4935  -29.7076    5.2271 H         1 UNK         0.0791 
    156 H156      -46.9071  -28.0900    5.5833 H         1 UNK         0.0791 
    157 H157      -49.1207  -29.7153    7.8432 H         1 UNK         0.3028 
@<TRIPOS>BOND
     1    1    2 1    
     2    1   82 1    
     3    1   83 1    
     4    1   84 1    
     5    2    3 2    
     6    2    4 am   BACKBONE|DICT|INTERRES
     7    4    5 1    
     8    4   85 1    
     9    5    6 1    
    10    5   80 1    
    11    5   86 1    
    12    6    7 1    
    13    6   87 1    
    14    6   88 1    
    15    7    8 1    
    16    8    9 1    
    17    8   89 1    
    18    8   90 1    
    19    9   10 ar   
    20    9   14 ar   
    21   10   11 ar   
    22   10   91 1    
    23   11   12 ar   
    24   11   58 1    
    25   12   13 ar   
    26   12   92 1    
    27   13   14 ar   
    28   13   15 1    
    29   14   93 1    
    30   15   16 1    
    31   15   94 1    
    32   15   95 1    
    33   16   17 1    
    34   17   18 1    
    35   17   96 1    
    36   17   97 1    
    37   18   19 1    
    38   18   22 1    
    39   18   98 1    
    40   19   20 am   BACKBONE|DICT|INTERRES
    41   19   21 2    
    42   20   99 1    
    43   20  100 1    
    44   22   23 am   BACKBONE|DICT|INTERRES
    45   22  101 1    
    46   23   24 2    
    47   23   25 1    
    48   25   26 1    
    49   25   27 1    
    50   25  102 1    
    51   26  103 1    
    52   26  104 1    
    53   26  105 1    
    54   27   28 am   BACKBONE|DICT|INTERRES
    55   27  106 1    
    56   28   29 2    
    57   28   30 1    
    58   30   31 1    
    59   30   32 1    
    60   30  107 1    
    61   31  108 1    
    62   31  109 1    
    63   31  110 1    
    64   32   33 am   BACKBONE|DICT|INTERRES
    65   32  111 1    
    66   33   34 2    
    67   33   35 1    
    68   35   36 1    
    69   35   37 1    
    70   35  112 1    
    71   36  113 1    
    72   36  114 1    
    73   36  115 1    
    74   37   38 am   BACKBONE|DICT|INTERRES
    75   37  116 1    
    76   38   39 2    
    77   38   40 1    
    78   40   41 1    
    79   40   42 1    
    80   40  117 1    
    81   41  118 1    
    82   41  119 1    
    83   41  120 1    
    84   42   43 am   BACKBONE|DICT|INTERRES
    85   42  121 1    
    86   43   44 2    
    87   43   45 1    
    88   45   46 1    
    89   45   47 1    
    90   45  122 1    
    91   46  123 1    
    92   46  124 1    
    93   46  125 1    
    94   47   48 am   BACKBONE|DICT|INTERRES
    95   47  126 1    
    96   48   49 2    
    97   48   50 1    
    98   50   51 1    
    99   50   52 1    
   100   50  127 1    
   101   51  128 1    
   102   51  129 1    
   103   51  130 1    
   104   52   53 am   BACKBONE|DICT|INTERRES
   105   52  131 1    
   106   53   54 2    
   107   53   55 1    
   108   55   56 1    
   109   55   59 1    
   110   55  132 1    
   111   56   57 1    
   112   56  133 1    
   113   56  134 1    
   114   57   58 1    
   115   58  135 1    
   116   58  136 1    
   117   59   60 am   BACKBONE|DICT|INTERRES
   118   59  137 1    
   119   60   61 2    
   120   60   62 1    
   121   62   63 1    
   122   62   64 1    
   123   62  138 1    
   124   63  139 1    
   125   63  140 1    
   126   63  141 1    
   127   64   65 am   BACKBONE|DICT|INTERRES
   128   64  142 1    
   129   65   66 2    
   130   65   67 1    
   131   67   68 1    
   132   67   69 1    
   133   67  143 1    
   134   68  144 1    
   135   68  145 1    
   136   68  146 1    
   137   69   70 am   BACKBONE|DICT|INTERRES
   138   69  147 1    
   139   70   71 2    
   140   70   72 1    
   141   72   73 1    
   142   72   74 1    
   143   72  148 1    
   144   73  149 1    
   145   73  150 1    
   146   73  151 1    
   147   74   75 am   BACKBONE|DICT|INTERRES
   148   74  152 1    
   149   75   76 2    
   150   75   77 1    
   151   77   78 1    
   152   77   79 1    
   153   77  153 1    
   154   78  154 1    
   155   78  155 1    
   156   78  156 1    
   157   79   80 am   BACKBONE|DICT|INTERRES
   158   79  157 1    
   159   80   81 2    
@<TRIPOS>SUBSTRUCTURE
     1 UNK         1 GROUP             0       ****    0 ROOT    
