@<TRIPOS>MOLECULE
3R207
157   159    1
SMALL
USER_CHARGES


@<TRIPOS>ATOM
      1 CA        -46.7122  -25.8961    5.2234 C.3       0 UNK        -0.1975 
      2 C         -47.1934  -26.9250    6.2349 C.2       0 UNK         0.4852 
      3 O         -46.4825  -27.8980    6.4946 O.2       0 UNK        -0.5216 
      4 N         -48.3826  -26.7036    6.8156 N.am      1 UNK        -0.4461 
      5 CA        -49.0452  -27.5346    7.8315 C.3       1 UNK         0.0864 
      6 C6        -49.5167  -28.9156    7.2916 C.3       14 UNK        -0.0898 
      7 S7        -50.6148  -28.7713    5.8430 S.3       14 UNK        -0.2598 
      8 C8        -52.1948  -29.4310    6.4753 C.3       14 UNK         0.0286 
      9 C9        -53.0219  -28.4285    7.2770 C.ar      14 UNK        -0.0844 
     10 C10       -53.1425  -27.0959    6.8669 C.ar      14 UNK        -0.0881 
     11 C11       -53.9790  -26.2094    7.5507 C.ar      14 UNK        -0.0643 
     12 C12       -54.6995  -26.6639    8.6613 C.ar      14 UNK        -0.0930 
     13 C13       -54.6116  -27.9992    9.0714 C.ar      14 UNK        -0.0827 
     14 C14       -53.7626  -28.8705    8.3780 C.ar      14 UNK        -0.1249 
     15 C15       -55.5322  -28.5204   10.1741 C.3       14 UNK         0.0141 
     16 S16       -54.6934  -29.5870   11.3934 S.3       14 UNK        -0.2313 
     17 C17       -56.0775  -30.5821   12.0425 C.3       14 UNK        -0.0915 
     18 CA        -56.6148  -30.1280   13.4279 C.3       13 UNK         0.0968 
     19 C         -57.9150  -30.9235   13.7523 C.2       13 UNK         0.5732 
     20 N         -57.8673  -31.9615   14.5794 N.am      13 UNK        -0.7310 
     21 O         -58.9811  -30.5930   13.2386 O.2       13 UNK        -0.5035 
     22 N         -55.5736  -30.1721   14.4739 N.am      13 UNK        -0.4233 
     23 C         -55.7387  -29.7931   15.7516 C.2       13 UNK         0.4989 
     24 O         -56.7861  -29.3251   16.1994 O.2       13 UNK        -0.4996 
     25 CA        -54.5357  -29.9435   16.6970 C.3       12 UNK         0.0216 
     26 CB        -53.6278  -31.1423   16.3552 C.3       12 UNK        -0.1964 
     27 N         -53.7648  -28.7076   16.6351 N.am      12 UNK        -0.4276 
     28 C         -53.8461  -27.6948   17.5100 C.2       12 UNK         0.5020 
     29 O         -54.4225  -27.7691   18.5964 O.2       12 UNK        -0.5489 
     30 CA        -53.1980  -26.3552   17.0976 C.3       11 UNK         0.0294 
     31 CB        -51.7685  -26.2551   17.6535 C.3       11 UNK        -0.2019 
     32 N         -53.1614  -26.1514   15.6467 N.am      11 UNK        -0.4493 
     33 C         -54.2342  -26.1210   14.8424 C.2       11 UNK         0.4932 
     34 O         -55.3923  -26.0465   15.2527 O.2       11 UNK        -0.5029 
     35 CA        -53.9897  -26.2515   13.3289 C.3       10 UNK         0.0280 
     36 CB        -54.2285  -24.9118   12.6161 C.3       10 UNK        -0.1976 
     37 N         -52.6687  -26.7709   12.9571 N.am      10 UNK        -0.4242 
     38 C         -52.1652  -27.9730   13.2749 C.2       10 UNK         0.5072 
     39 O         -52.7228  -28.7780   14.0194 O.2       10 UNK        -0.5224 
     40 CA        -50.7936  -28.3225   12.6862 C.3       9 UNK         0.0343 
     41 CB        -50.9146  -28.6809   11.1957 C.3       9 UNK        -0.2003 
     42 N         -49.8530  -27.2174   12.8672 N.am      9 UNK        -0.4272 
     43 C         -49.1482  -27.0070   13.9880 C.2       9 UNK         0.4988 
     44 O         -49.1446  -27.7759   14.9496 O.2       9 UNK        -0.5108 
     45 CA        -48.3162  -25.7139   14.0651 C.3       8 UNK         0.0248 
     46 CB        -46.9006  -25.9306   13.5070 C.3       8 UNK        -0.2001 
     47 N         -48.9446  -24.5756   13.3900 N.am      8 UNK        -0.4140 
     48 C         -50.0759  -23.9880   13.8026 C.2       8 UNK         0.5028 
     49 O         -50.7088  -24.3400   14.7984 O.2       8 UNK        -0.5428 
     50 CA        -50.6080  -22.8236   12.9488 C.3       7 UNK         0.0264 
     51 CB        -49.8922  -21.5166   13.3262 C.3       7 UNK        -0.1988 
     52 N         -50.5395  -23.0020   11.4919 N.am      7 UNK        -0.4454 
     53 C         -50.9052  -24.0795   10.7827 C.2       7 UNK         0.5027 
     54 O         -51.2088  -25.1579   11.2863 O.2       7 UNK        -0.5083 
     55 CA        -50.9711  -23.9556    9.2496 C.3       6 UNK         0.0844 
     56 C56       -52.3942  -23.5338    8.8063 C.3       14 UNK        -0.0967 
     57 S57       -52.6502  -23.7991    7.0229 S.3       14 UNK        -0.2604 
     58 C58       -54.1787  -24.7915    7.0251 C.3       14 UNK         0.0134 
     59 N         -49.8912  -23.1487    8.6658 N.am      6 UNK        -0.4116 
     60 C         -49.6771  -21.8299    8.7501 C.2       5 UNK         0.5034 
     61 O         -50.3918  -21.0600    9.3940 O.2       5 UNK        -0.5045 
     62 CA        -48.3985  -21.3096    8.0619 C.3       5 UNK         0.0224 
     63 CB        -48.3073  -19.7721    8.0694 C.3       5 UNK        -0.1978 
     64 N         -47.1938  -21.8607    8.6924 N.am      5 UNK        -0.4737 
     65 C         -46.7663  -23.1214    8.5567 C.2       4 UNK         0.5027 
     66 O         -47.3093  -23.9436    7.8136 O.2       4 UNK        -0.5211 
     67 CA        -45.5824  -23.5412    9.4337 C.3       4 UNK         0.0297 
     68 CB        -45.9738  -23.5333   10.9221 C.3       4 UNK        -0.1993 
     69 N         -45.1782  -24.8896    9.0519 N.am      4 UNK        -0.4486 
     70 C         -43.9315  -25.3702    9.0769 C.2       3 UNK         0.4961 
     71 O         -42.9598  -24.7245    9.4744 O.2       3 UNK        -0.5105 
     72 CA        -43.7422  -26.8065    8.5491 C.3       3 UNK         0.0299 
     73 CB        -42.3757  -27.4168    8.9288 C.3       3 UNK        -0.1972 
     74 N         -44.8419  -27.7094    8.9121 N.am      3 UNK        -0.4305 
     75 C         -45.2183  -28.0846   10.1466 C.2       2 UNK         0.5006 
     76 O         -44.6666  -27.7079   11.1817 O.2       2 UNK        -0.5106 
     77 CA        -46.4082  -29.0651   10.2212 C.3       2 UNK         0.0296 
     78 CB        -47.0053  -29.2159   11.6339 C.3       2 UNK        -0.2002 
     79 N         -47.4539  -28.7717    9.2355 N.am      2 UNK        -0.4032 
     80 C         -48.1541  -27.6342    9.0891 C.2       1 UNK         0.5000 
     81 O         -48.0910  -26.6725    9.8577 O.2       1 UNK        -0.5238 
     82 H82       -47.4363  -25.0934    5.0839 H         1 UNK         0.0889 
     83 H83       -46.5376  -26.3703    4.2582 H         1 UNK         0.0889 
     84 H84       -45.7773  -25.4501    5.5617 H         1 UNK         0.0889 
     85 H85       -48.8762  -25.8560    6.5764 H         1 UNK         0.3028 
     86 H86       -49.9392  -26.9916    8.1395 H         1 UNK         0.0864 
     87 H87       -50.0301  -29.4722    8.0780 H         1 UNK         0.0720 
     88 H88       -48.6703  -29.5297    6.9803 H         1 UNK         0.0720 
     89 H89       -52.0003  -30.3320    7.0593 H         1 UNK         0.0814 
     90 H90       -52.7941  -29.7496    5.6216 H         1 UNK         0.0814 
     91 H91       -52.6114  -26.7502    5.9907 H         1 UNK         0.1469 
     92 H92       -55.3750  -25.9909    9.1714 H         1 UNK         0.1381 
     93 H93       -53.7150  -29.9105    8.6706 H         1 UNK         0.1206 
     94 H94       -56.3353  -29.0767    9.6899 H         1 UNK         0.0813 
     95 H95       -56.0052  -27.6954   10.7089 H         1 UNK         0.0813 
     96 H96       -55.7336  -31.6164   12.1015 H         1 UNK         0.0638 
     97 H97       -56.8794  -30.5844   11.3020 H         1 UNK         0.0638 
     98 H98       -56.9138  -29.0820   13.3395 H         1 UNK         0.0568 
     99 H99       -56.9965  -32.2423   14.9998 H         1 UNK         0.3450 
    100 H100      -58.7138  -32.4685   14.7836 H         1 UNK         0.3450 
    101 H101      -54.6588  -30.4753   14.1721 H         1 UNK         0.2987 
    102 H102      -54.9271  -30.0992   17.7046 H         1 UNK         0.0766 
    103 H103      -54.1999  -32.0705   16.3233 H         1 UNK         0.0798 
    104 H104      -52.8543  -31.2690   17.1128 H         1 UNK         0.0798 
    105 H105      -53.1247  -31.0295   15.3947 H         1 UNK         0.0798 
    106 H106      -53.2941  -28.5445   15.7455 H         1 UNK         0.3198 
    107 H107      -53.7972  -25.5516   17.5306 H         1 UNK         0.0843 
    108 H108      -51.1152  -27.0173   17.2260 H         1 UNK         0.0831 
    109 H109      -51.7600  -26.3859   18.7365 H         1 UNK         0.0831 
    110 H110      -51.3280  -25.2806   17.4414 H         1 UNK         0.0831 
    111 H111      -52.2464  -26.1167   15.2156 H         1 UNK         0.3133 
    112 H112      -54.7263  -26.9652   12.9561 H         1 UNK         0.0566 
    113 H113      -54.1526  -25.0209   11.5343 H         1 UNK         0.0814 
    114 H114      -53.5080  -24.1578   12.9311 H         1 UNK         0.0814 
    115 H115      -55.2246  -24.5239   12.8332 H         1 UNK         0.0814 
    116 H116      -52.1153  -26.1772   12.3385 H         1 UNK         0.3091 
    117 H117      -50.4198  -29.2051   13.2099 H         1 UNK         0.0702 
    118 H118      -49.9734  -29.0682   10.8108 H         1 UNK         0.0785 
    119 H119      -51.2067  -27.8239   10.5873 H         1 UNK         0.0785 
    120 H120      -51.6636  -29.4583   11.0407 H         1 UNK         0.0785 
    121 H121      -49.8445  -26.5080   12.1433 H         1 UNK         0.2998 
    122 H122      -48.2210  -25.4579   15.1227 H         1 UNK         0.0697 
    123 H123      -46.9096  -26.1107   12.4319 H         1 UNK         0.0825 
    124 H124      -46.4214  -26.7917   13.9752 H         1 UNK         0.0825 
    125 H125      -46.2636  -25.0667   13.6961 H         1 UNK         0.0825 
    126 H126      -48.5081  -24.2368   12.5463 H         1 UNK         0.3029 
    127 H127      -51.6635  -22.7067   13.1989 H         1 UNK         0.0897 
    128 H128      -48.8384  -21.5375   13.0454 H         1 UNK         0.0792 
    129 H129      -49.9408  -21.3390   14.4017 H         1 UNK         0.0792 
    130 H130      -50.3515  -20.6569   12.8375 H         1 UNK         0.0792 
    131 H131      -50.3577  -22.1611   10.9504 H         1 UNK         0.3086 
    132 H132      -50.8015  -24.9652    8.8746 H         1 UNK         0.0583 
    133 H133      -53.1475  -24.1032    9.3544 H         1 UNK         0.1020 
    134 H134      -52.5895  -22.4861    9.0396 H         1 UNK         0.1020 
    135 H135      -54.9450  -24.2653    7.5967 H         1 UNK         0.0694 
    136 H136      -54.5532  -24.8506    6.0022 H         1 UNK         0.0694 
    137 H137      -49.1605  -23.6798    8.1999 H         1 UNK         0.2989 
    138 H138      -48.4345  -21.6370    7.0199 H         1 UNK         0.1055 
    139 H139      -48.2512  -19.3732    9.0831 H         1 UNK         0.0806 
    140 H140      -49.1818  -19.3273    7.5923 H         1 UNK         0.0806 
    141 H141      -47.4308  -19.4240    7.5226 H         1 UNK         0.0806 
    142 H142      -46.7089  -21.2527    9.3374 H         1 UNK         0.3061 
    143 H143      -44.7625  -22.8416    9.2582 H         1 UNK         0.0734 
    144 H144      -46.8523  -24.1541   11.0975 H         1 UNK         0.0832 
    145 H145      -45.1651  -23.9116   11.5477 H         1 UNK         0.0832 
    146 H146      -46.2068  -22.5266   11.2701 H         1 UNK         0.0832 
    147 H147      -45.9301  -25.4553    8.6773 H         1 UNK         0.3156 
    148 H148      -43.7710  -26.7285    7.4613 H         1 UNK         0.0589 
    149 H149      -42.2635  -28.4225    8.5239 H         1 UNK         0.0808 
    150 H150      -41.5558  -26.8166    8.5325 H         1 UNK         0.0808 
    151 H151      -42.2426  -27.4727   10.0097 H         1 UNK         0.0808 
    152 H152      -45.3982  -28.0370    8.1256 H         1 UNK         0.3098 
    153 H153      -45.9973  -30.0369    9.9439 H         1 UNK         0.0720 
    154 H154      -47.7636  -29.9979   11.6624 H         1 UNK         0.0791 
    155 H155      -47.4691  -28.2924   11.9677 H         1 UNK         0.0791 
    156 H156      -46.2398  -29.4817   12.3638 H         1 UNK         0.0791 
    157 H157      -47.5608  -29.4678    8.5108 H         1 UNK         0.3028 
@<TRIPOS>BOND
     1    1    2 1    
     2    1   82 1    
     3    1   83 1    
     4    1   84 1    
     5    2    3 2    
     6    2    4 am   BACKBONE|DICT|INTERRES
     7    4    5 1    
     8    4   85 1    
     9    5    6 1    
    10    5   80 1    
    11    5   86 1    
    12    6    7 1    
    13    6   87 1    
    14    6   88 1    
    15    7    8 1    
    16    8    9 1    
    17    8   89 1    
    18    8   90 1    
    19    9   10 ar   
    20    9   14 ar   
    21   10   11 ar   
    22   10   91 1    
    23   11   12 ar   
    24   11   58 1    
    25   12   13 ar   
    26   12   92 1    
    27   13   14 ar   
    28   13   15 1    
    29   14   93 1    
    30   15   16 1    
    31   15   94 1    
    32   15   95 1    
    33   16   17 1    
    34   17   18 1    
    35   17   96 1    
    36   17   97 1    
    37   18   19 1    
    38   18   22 1    
    39   18   98 1    
    40   19   20 am   BACKBONE|DICT|INTERRES
    41   19   21 2    
    42   20   99 1    
    43   20  100 1    
    44   22   23 am   BACKBONE|DICT|INTERRES
    45   22  101 1    
    46   23   24 2    
    47   23   25 1    
    48   25   26 1    
    49   25   27 1    
    50   25  102 1    
    51   26  103 1    
    52   26  104 1    
    53   26  105 1    
    54   27   28 am   BACKBONE|DICT|INTERRES
    55   27  106 1    
    56   28   29 2    
    57   28   30 1    
    58   30   31 1    
    59   30   32 1    
    60   30  107 1    
    61   31  108 1    
    62   31  109 1    
    63   31  110 1    
    64   32   33 am   BACKBONE|DICT|INTERRES
    65   32  111 1    
    66   33   34 2    
    67   33   35 1    
    68   35   36 1    
    69   35   37 1    
    70   35  112 1    
    71   36  113 1    
    72   36  114 1    
    73   36  115 1    
    74   37   38 am   BACKBONE|DICT|INTERRES
    75   37  116 1    
    76   38   39 2    
    77   38   40 1    
    78   40   41 1    
    79   40   42 1    
    80   40  117 1    
    81   41  118 1    
    82   41  119 1    
    83   41  120 1    
    84   42   43 am   BACKBONE|DICT|INTERRES
    85   42  121 1    
    86   43   44 2    
    87   43   45 1    
    88   45   46 1    
    89   45   47 1    
    90   45  122 1    
    91   46  123 1    
    92   46  124 1    
    93   46  125 1    
    94   47   48 am   BACKBONE|DICT|INTERRES
    95   47  126 1    
    96   48   49 2    
    97   48   50 1    
    98   50   51 1    
    99   50   52 1    
   100   50  127 1    
   101   51  128 1    
   102   51  129 1    
   103   51  130 1    
   104   52   53 am   BACKBONE|DICT|INTERRES
   105   52  131 1    
   106   53   54 2    
   107   53   55 1    
   108   55   56 1    
   109   55   59 1    
   110   55  132 1    
   111   56   57 1    
   112   56  133 1    
   113   56  134 1    
   114   57   58 1    
   115   58  135 1    
   116   58  136 1    
   117   59   60 am   BACKBONE|DICT|INTERRES
   118   59  137 1    
   119   60   61 2    
   120   60   62 1    
   121   62   63 1    
   122   62   64 1    
   123   62  138 1    
   124   63  139 1    
   125   63  140 1    
   126   63  141 1    
   127   64   65 am   BACKBONE|DICT|INTERRES
   128   64  142 1    
   129   65   66 2    
   130   65   67 1    
   131   67   68 1    
   132   67   69 1    
   133   67  143 1    
   134   68  144 1    
   135   68  145 1    
   136   68  146 1    
   137   69   70 am   BACKBONE|DICT|INTERRES
   138   69  147 1    
   139   70   71 2    
   140   70   72 1    
   141   72   73 1    
   142   72   74 1    
   143   72  148 1    
   144   73  149 1    
   145   73  150 1    
   146   73  151 1    
   147   74   75 am   BACKBONE|DICT|INTERRES
   148   74  152 1    
   149   75   76 2    
   150   75   77 1    
   151   77   78 1    
   152   77   79 1    
   153   77  153 1    
   154   78  154 1    
   155   78  155 1    
   156   78  156 1    
   157   79   80 am   BACKBONE|DICT|INTERRES
   158   79  157 1    
   159   80   81 2    
@<TRIPOS>SUBSTRUCTURE
     1 UNK         1 GROUP             0       ****    0 ROOT    
