@<TRIPOS>MOLECULE
3R207
157   159    1
SMALL
USER_CHARGES


@<TRIPOS>ATOM
      1 CA        -53.7410  -30.5412    6.1178 C.3       0 UNK        -0.1975 
      2 C         -52.7756  -29.3850    6.3308 C.2       0 UNK         0.4852 
      3 O         -52.4321  -29.0864    7.4738 O.2       0 UNK        -0.5216 
      4 N         -52.3294  -28.7471    5.2366 N.am      1 UNK        -0.4461 
      5 CA        -51.4515  -27.5654    5.1543 C.3       1 UNK         0.0864 
      6 C6        -52.0477  -26.3014    5.8266 C.3       14 UNK        -0.0898 
      7 S7        -53.4872  -25.5921    4.9482 S.3       14 UNK        -0.2598 
      8 C8        -54.9545  -26.3173    5.7727 C.3       14 UNK         0.0286 
      9 C9        -54.9476  -26.2946    7.3015 C.ar      14 UNK        -0.0844 
     10 C10       -54.2792  -25.3063    8.0326 C.ar      14 UNK        -0.0881 
     11 C11       -54.1633  -25.4029    9.4219 C.ar      14 UNK        -0.0643 
     12 C12       -54.8001  -26.4493   10.0973 C.ar      14 UNK        -0.0930 
     13 C13       -55.5136  -27.4175    9.3831 C.ar      14 UNK        -0.0827 
     14 C14       -55.5905  -27.3259    7.9904 C.ar      14 UNK        -0.1249 
     15 C15       -56.1582  -28.5975   10.0969 C.3       14 UNK         0.0141 
     16 S16       -55.3493  -30.1571    9.6215 S.3       14 UNK        -0.2313 
     17 C17       -56.4049  -31.3933   10.4503 C.3       14 UNK        -0.0915 
     18 CA        -55.6238  -32.6515   10.9225 C.3       13 UNK         0.0968 
     19 C         -55.0562  -33.5038    9.7548 C.2       13 UNK         0.5732 
     20 N         -55.9190  -34.0501    8.9087 N.am      13 UNK        -0.7310 
     21 O         -53.8472  -33.6806    9.6071 O.2       13 UNK        -0.5035 
     22 N         -54.5793  -32.3052   11.8911 N.am      13 UNK        -0.4233 
     23 C         -54.7330  -32.2572   13.2168 C.2       13 UNK         0.4989 
     24 O         -55.7832  -32.5290   13.8006 O.2       13 UNK        -0.4996 
     25 CA        -53.5045  -31.8326   14.0403 C.3       12 UNK         0.0216 
     26 CB        -52.6605  -33.0607   14.4200 C.3       12 UNK        -0.1964 
     27 N         -52.6517  -30.8400   13.3750 N.am      12 UNK        -0.4276 
     28 C         -53.0224  -29.5808   13.1053 C.2       12 UNK         0.5020 
     29 O         -54.1507  -29.1323   13.3262 O.2       12 UNK        -0.5489 
     30 CA        -51.9460  -28.6655   12.4957 C.3       11 UNK         0.0294 
     31 CB        -51.9761  -28.7167   10.9604 C.3       11 UNK        -0.2019 
     32 N         -52.1476  -27.2862   12.9425 N.am      11 UNK        -0.4493 
     33 C         -51.8372  -26.8538   14.1699 C.2       11 UNK         0.4932 
     34 O         -51.1785  -27.5049   14.9854 O.2       11 UNK        -0.5029 
     35 CA        -52.3900  -25.4846   14.5767 C.3       10 UNK         0.0280 
     36 CB        -53.7815  -25.6420   15.2199 C.3       10 UNK        -0.1976 
     37 N         -51.4504  -24.8850   15.5198 N.am      10 UNK        -0.4242 
     38 C         -51.4363  -23.6143   15.9351 C.2       10 UNK         0.5072 
     39 O         -52.2295  -22.7543   15.5511 O.2       10 UNK        -0.5224 
     40 CA        -50.3637  -23.2480   16.9688 C.3       9 UNK         0.0343 
     41 CB        -50.4993  -24.0989   18.2497 C.3       9 UNK        -0.2003 
     42 N         -49.0234  -23.3675   16.3931 N.am      9 UNK        -0.4272 
     43 C         -47.9188  -22.8068   16.9051 C.2       9 UNK         0.4988 
     44 O         -47.9037  -22.1421   17.9423 O.2       9 UNK        -0.5108 
     45 CA        -46.6061  -23.0045   16.1278 C.3       8 UNK         0.0248 
     46 CB        -46.0703  -24.4376   16.2858 C.3       8 UNK        -0.2001 
     47 N         -46.7530  -22.6743   14.7097 N.am      8 UNK        -0.4140 
     48 C         -46.8441  -21.4244   14.2309 C.2       8 UNK         0.5028 
     49 O         -46.7346  -20.4136   14.9265 O.2       8 UNK        -0.5428 
     50 CA        -47.1098  -21.2660   12.7226 C.3       7 UNK         0.0264 
     51 CB        -45.7872  -21.2316   11.9401 C.3       7 UNK        -0.1988 
     52 N         -47.9723  -22.3163   12.1775 N.am      7 UNK        -0.4454 
     53 C         -49.2577  -22.4976   12.5137 C.2       7 UNK         0.5027 
     54 O         -49.8819  -21.7353   13.2512 O.2       7 UNK        -0.5083 
     55 CA        -49.9556  -23.7603   11.9694 C.3       6 UNK         0.0844 
     56 C56       -50.6259  -23.4759   10.6064 C.3       14 UNK        -0.0967 
     57 S57       -51.5291  -24.9225    9.9646 S.3       14 UNK        -0.2604 
     58 C58       -53.2693  -24.4222   10.1626 C.3       14 UNK         0.0134 
     59 N         -49.0633  -24.9271   11.9451 N.am      6 UNK        -0.4116 
     60 C         -48.5138  -25.4839   13.0344 C.2       5 UNK         0.5034 
     61 O         -48.7291  -25.0972   14.1815 O.2       5 UNK        -0.5045 
     62 CA        -47.5079  -26.6197   12.8114 C.3       5 UNK         0.0224 
     63 CB        -48.2223  -27.9677   12.6357 C.3       5 UNK        -0.1978 
     64 N         -46.6517  -26.3444   11.6579 N.am      5 UNK        -0.4737 
     65 C         -45.6332  -25.4727   11.6809 C.2       4 UNK         0.5027 
     66 O         -45.2731  -24.8754   12.6952 O.2       4 UNK        -0.5211 
     67 CA        -44.9170  -25.1923   10.3472 C.3       4 UNK         0.0297 
     68 CB        -43.7631  -26.1853   10.1383 C.3       4 UNK        -0.1993 
     69 N         -45.8142  -25.2345    9.1889 N.am      4 UNK        -0.4486 
     70 C         -46.8306  -24.3849    8.9854 C.2       3 UNK         0.4961 
     71 O         -47.0867  -23.4382    9.7276 O.2       3 UNK        -0.5105 
     72 CA        -47.7489  -24.6585    7.7818 C.3       3 UNK         0.0299 
     73 CB        -47.2526  -23.8965    6.5437 C.3       3 UNK        -0.1972 
     74 N         -47.9248  -26.0755    7.4437 N.am      3 UNK        -0.4305 
     75 C         -48.3465  -27.0370    8.2771 C.2       2 UNK         0.5006 
     76 O         -48.5444  -26.8608    9.4802 O.2       2 UNK        -0.5106 
     77 CA        -48.6187  -28.4112    7.6397 C.3       2 UNK         0.0296 
     78 CB        -48.7197  -29.5356    8.6864 C.3       2 UNK        -0.2002 
     79 N         -49.8619  -28.3562    6.8719 N.am      2 UNK        -0.4032 
     80 C         -50.0114  -27.7909    5.6683 C.2       1 UNK         0.5000 
     81 O         -49.0604  -27.3990    4.9877 O.2       1 UNK        -0.5238 
     82 H82       -54.7201  -30.2852    6.5217 H         1 UNK         0.0889 
     83 H83       -53.3829  -31.4297    6.6375 H         1 UNK         0.0889 
     84 H84       -53.8600  -30.7878    5.0631 H         1 UNK         0.0889 
     85 H85       -52.6375  -29.0871    4.3361 H         1 UNK         0.3028 
     86 H86       -51.3524  -27.3532    4.0884 H         1 UNK         0.0864 
     87 H87       -51.3046  -25.5014    5.8549 H         1 UNK         0.0720 
     88 H88       -52.2803  -26.5058    6.8704 H         1 UNK         0.0720 
     89 H89       -55.0509  -27.3461    5.4225 H         1 UNK         0.0814 
     90 H90       -55.8436  -25.7918    5.4226 H         1 UNK         0.0814 
     91 H91       -53.7704  -24.5037    7.5173 H         1 UNK         0.1469 
     92 H92       -54.7075  -26.5353   11.1708 H         1 UNK         0.1381 
     93 H93       -56.1136  -28.0954    7.4390 H         1 UNK         0.1206 
     94 H94       -56.0981  -28.4798   11.1803 H         1 UNK         0.0813 
     95 H95       -57.2174  -28.6415    9.8399 H         1 UNK         0.0813 
     96 H96       -57.2145  -31.6683    9.7727 H         1 UNK         0.0638 
     97 H97       -56.8851  -30.9256   11.3111 H         1 UNK         0.0638 
     98 H98       -56.3341  -33.3117   11.4237 H         1 UNK         0.0568 
     99 H99       -56.9122  -33.9169    9.0161 H         1 UNK         0.3450 
    100 H100      -55.5681  -34.6070    8.1456 H         1 UNK         0.3450 
    101 H101      -53.6745  -32.1123   11.4863 H         1 UNK         0.2987 
    102 H102      -53.8760  -31.3799   14.9624 H         1 UNK         0.0766 
    103 H103      -53.2665  -33.8046   14.9396 H         1 UNK         0.0798 
    104 H104      -51.8426  -32.7902   15.0882 H         1 UNK         0.0798 
    105 H105      -52.2324  -33.5460   13.5419 H         1 UNK         0.0798 
    106 H106      -51.7075  -31.1271   13.1592 H         1 UNK         0.3198 
    107 H107      -50.9654  -29.0046   12.8334 H         1 UNK         0.0843 
    108 H108      -52.9541  -28.4496   10.5626 H         1 UNK         0.0831 
    109 H109      -51.7491  -29.7186   10.5951 H         1 UNK         0.0831 
    110 H110      -51.2447  -28.0366   10.5225 H         1 UNK         0.0831 
    111 H111      -52.7074  -26.7016   12.3412 H         1 UNK         0.3133 
    112 H112      -52.4789  -24.8512   13.6942 H         1 UNK         0.0566 
    113 H113      -53.7358  -26.2363   16.1334 H         1 UNK         0.0814 
    114 H114      -54.4721  -26.1435   14.5402 H         1 UNK         0.0814 
    115 H115      -54.2212  -24.6766   15.4699 H         1 UNK         0.0814 
    116 H116      -50.7399  -25.5285   15.8491 H         1 UNK         0.3091 
    117 H117      -50.5257  -22.2015   17.2362 H         1 UNK         0.0702 
    118 H118      -49.8643  -23.7186   19.0498 H         1 UNK         0.0785 
    119 H119      -50.2266  -25.1407   18.0780 H         1 UNK         0.0785 
    120 H120      -51.5245  -24.0845   18.6222 H         1 UNK         0.0785 
    121 H121      -48.9484  -23.9045   15.5291 H         1 UNK         0.2998 
    122 H122      -45.8622  -22.3285   16.5555 H         1 UNK         0.0697 
    123 H123      -45.1238  -24.5663   15.7602 H         1 UNK         0.0825 
    124 H124      -46.7664  -25.1835   15.9035 H         1 UNK         0.0825 
    125 H125      -45.8926  -24.6704   17.3365 H         1 UNK         0.0825 
    126 H126      -46.8342  -23.4486   14.0645 H         1 UNK         0.3029 
    127 H127      -47.6174  -20.3100   12.5771 H         1 UNK         0.0897 
    128 H128      -45.2402  -22.1707   12.0306 H         1 UNK         0.0792 
    129 H129      -45.1363  -20.4372   12.3078 H         1 UNK         0.0792 
    130 H130      -45.9586  -21.0459   10.8796 H         1 UNK         0.0792 
    131 H131      -47.5634  -22.9229   11.4694 H         1 UNK         0.3086 
    132 H132      -50.7490  -23.9917   12.6769 H         1 UNK         0.0583 
    133 H133      -51.3107  -22.6294   10.6872 H         1 UNK         0.1020 
    134 H134      -49.8788  -23.1859    9.8660 H         1 UNK         0.1020 
    135 H135      -53.5239  -24.3816   11.2227 H         1 UNK         0.0694 
    136 H136      -53.4158  -23.4180    9.7618 H         1 UNK         0.0694 
    137 H137      -48.8693  -25.3365   11.0385 H         1 UNK         0.2989 
    138 H138      -46.8794  -26.6877   13.7026 H         1 UNK         0.1055 
    139 H139      -47.5121  -28.7750   12.4578 H         1 UNK         0.0806 
    140 H140      -48.9285  -27.9522   11.8055 H         1 UNK         0.0806 
    141 H141      -48.7830  -28.2216   13.5361 H         1 UNK         0.0806 
    142 H142      -46.9549  -26.7284   10.7694 H         1 UNK         0.3061 
    143 H143      -44.4962  -24.1861   10.4062 H         1 UNK         0.0734 
    144 H144      -44.1224  -27.2114   10.0499 H         1 UNK         0.0832 
    145 H145      -43.1922  -25.9488    9.2402 H         1 UNK         0.0832 
    146 H146      -43.0679  -26.1555   10.9787 H         1 UNK         0.0832 
    147 H147      -45.6802  -25.9858    8.5280 H         1 UNK         0.3156 
    148 H148      -48.7376  -24.2747    8.0388 H         1 UNK         0.0589 
    149 H149      -47.9558  -23.9837    5.7151 H         1 UNK         0.0808 
    150 H150      -46.2841  -24.2653    6.2036 H         1 UNK         0.0808 
    151 H151      -47.1396  -22.8328    6.7591 H         1 UNK         0.0808 
    152 H152      -47.8455  -26.3193    6.4631 H         1 UNK         0.3098 
    153 H153      -47.7894  -28.6476    6.9698 H         1 UNK         0.0720 
    154 H154      -47.8107  -29.5940    9.2863 H         1 UNK         0.0791 
    155 H155      -48.8600  -30.5066    8.2115 H         1 UNK         0.0791 
    156 H156      -49.5522  -29.3768    9.3715 H         1 UNK         0.0791 
    157 H157      -50.7192  -28.6289    7.3535 H         1 UNK         0.3028 
@<TRIPOS>BOND
     1    1    2 1    
     2    1   82 1    
     3    1   83 1    
     4    1   84 1    
     5    2    3 2    
     6    2    4 am   BACKBONE|DICT|INTERRES
     7    4    5 1    
     8    4   85 1    
     9    5    6 1    
    10    5   80 1    
    11    5   86 1    
    12    6    7 1    
    13    6   87 1    
    14    6   88 1    
    15    7    8 1    
    16    8    9 1    
    17    8   89 1    
    18    8   90 1    
    19    9   10 ar   
    20    9   14 ar   
    21   10   11 ar   
    22   10   91 1    
    23   11   12 ar   
    24   11   58 1    
    25   12   13 ar   
    26   12   92 1    
    27   13   14 ar   
    28   13   15 1    
    29   14   93 1    
    30   15   16 1    
    31   15   94 1    
    32   15   95 1    
    33   16   17 1    
    34   17   18 1    
    35   17   96 1    
    36   17   97 1    
    37   18   19 1    
    38   18   22 1    
    39   18   98 1    
    40   19   20 am   BACKBONE|DICT|INTERRES
    41   19   21 2    
    42   20   99 1    
    43   20  100 1    
    44   22   23 am   BACKBONE|DICT|INTERRES
    45   22  101 1    
    46   23   24 2    
    47   23   25 1    
    48   25   26 1    
    49   25   27 1    
    50   25  102 1    
    51   26  103 1    
    52   26  104 1    
    53   26  105 1    
    54   27   28 am   BACKBONE|DICT|INTERRES
    55   27  106 1    
    56   28   29 2    
    57   28   30 1    
    58   30   31 1    
    59   30   32 1    
    60   30  107 1    
    61   31  108 1    
    62   31  109 1    
    63   31  110 1    
    64   32   33 am   BACKBONE|DICT|INTERRES
    65   32  111 1    
    66   33   34 2    
    67   33   35 1    
    68   35   36 1    
    69   35   37 1    
    70   35  112 1    
    71   36  113 1    
    72   36  114 1    
    73   36  115 1    
    74   37   38 am   BACKBONE|DICT|INTERRES
    75   37  116 1    
    76   38   39 2    
    77   38   40 1    
    78   40   41 1    
    79   40   42 1    
    80   40  117 1    
    81   41  118 1    
    82   41  119 1    
    83   41  120 1    
    84   42   43 am   BACKBONE|DICT|INTERRES
    85   42  121 1    
    86   43   44 2    
    87   43   45 1    
    88   45   46 1    
    89   45   47 1    
    90   45  122 1    
    91   46  123 1    
    92   46  124 1    
    93   46  125 1    
    94   47   48 am   BACKBONE|DICT|INTERRES
    95   47  126 1    
    96   48   49 2    
    97   48   50 1    
    98   50   51 1    
    99   50   52 1    
   100   50  127 1    
   101   51  128 1    
   102   51  129 1    
   103   51  130 1    
   104   52   53 am   BACKBONE|DICT|INTERRES
   105   52  131 1    
   106   53   54 2    
   107   53   55 1    
   108   55   56 1    
   109   55   59 1    
   110   55  132 1    
   111   56   57 1    
   112   56  133 1    
   113   56  134 1    
   114   57   58 1    
   115   58  135 1    
   116   58  136 1    
   117   59   60 am   BACKBONE|DICT|INTERRES
   118   59  137 1    
   119   60   61 2    
   120   60   62 1    
   121   62   63 1    
   122   62   64 1    
   123   62  138 1    
   124   63  139 1    
   125   63  140 1    
   126   63  141 1    
   127   64   65 am   BACKBONE|DICT|INTERRES
   128   64  142 1    
   129   65   66 2    
   130   65   67 1    
   131   67   68 1    
   132   67   69 1    
   133   67  143 1    
   134   68  144 1    
   135   68  145 1    
   136   68  146 1    
   137   69   70 am   BACKBONE|DICT|INTERRES
   138   69  147 1    
   139   70   71 2    
   140   70   72 1    
   141   72   73 1    
   142   72   74 1    
   143   72  148 1    
   144   73  149 1    
   145   73  150 1    
   146   73  151 1    
   147   74   75 am   BACKBONE|DICT|INTERRES
   148   74  152 1    
   149   75   76 2    
   150   75   77 1    
   151   77   78 1    
   152   77   79 1    
   153   77  153 1    
   154   78  154 1    
   155   78  155 1    
   156   78  156 1    
   157   79   80 am   BACKBONE|DICT|INTERRES
   158   79  157 1    
   159   80   81 2    
@<TRIPOS>SUBSTRUCTURE
     1 UNK         1 GROUP             0       ****    0 ROOT    
