@<TRIPOS>MOLECULE
3R207
157   159    1
SMALL
USER_CHARGES


@<TRIPOS>ATOM
      1 CA        -51.3920  -29.8044    2.3032 C.3       0 UNK        -0.1975 
      2 C         -50.8227  -29.0241    3.4792 C.2       0 UNK         0.4852 
      3 O         -51.2782  -27.9125    3.7530 O.2       0 UNK        -0.5216 
      4 N         -49.8380  -29.6011    4.1800 N.am      1 UNK        -0.4461 
      5 CA        -49.1386  -28.9769    5.3073 C.3       1 UNK         0.0864 
      6 C6        -48.3649  -30.0215    6.1512 C.3       14 UNK        -0.0898 
      7 S7        -49.4770  -30.8690    7.3216 S.3       14 UNK        -0.2598 
      8 C8        -49.2254  -29.8675    8.8244 C.3       14 UNK         0.0286 
      9 C9        -50.5401  -29.3691    9.4006 C.ar      14 UNK        -0.0844 
     10 C10       -51.1320  -28.2015    8.9063 C.ar      14 UNK        -0.0881 
     11 C11       -52.3288  -27.7261    9.4520 C.ar      14 UNK        -0.0643 
     12 C12       -52.9284  -28.4258   10.5025 C.ar      14 UNK        -0.0930 
     13 C13       -52.3462  -29.5943   11.0023 C.ar      14 UNK        -0.0827 
     14 C14       -51.1528  -30.0626   10.4476 C.ar      14 UNK        -0.1249 
     15 C15       -53.0060  -30.3414   12.1476 C.3       14 UNK         0.0141 
     16 S16       -54.2415  -31.5235   11.5313 S.3       14 UNK        -0.2313 
     17 C17       -55.2840  -31.7291   13.0139 C.3       14 UNK        -0.0915 
     18 CA        -56.6611  -31.0270   12.8718 C.3       13 UNK         0.0968 
     19 C         -57.5808  -31.3483   14.0866 C.2       13 UNK         0.5732 
     20 N         -58.0377  -30.3692   14.8586 N.am      13 UNK        -0.7310 
     21 O         -57.8938  -32.5119   14.3280 O.2       13 UNK        -0.5035 
     22 N         -56.5173  -29.5912   12.5743 N.am      13 UNK        -0.4233 
     23 C         -57.4414  -28.8309   11.9778 C.2       13 UNK         0.4989 
     24 O         -58.5352  -29.2545   11.5998 O.2       13 UNK        -0.4996 
     25 CA        -57.0837  -27.3415   11.8011 C.3       12 UNK         0.0216 
     26 CB        -58.1725  -26.5529   11.0488 C.3       12 UNK        -0.1964 
     27 N         -56.8297  -26.6914   13.0906 N.am      12 UNK        -0.4276 
     28 C         -55.6878  -26.7793   13.7818 C.2       12 UNK         0.5020 
     29 O         -54.7101  -27.4330   13.4097 O.2       12 UNK        -0.5489 
     30 CA        -55.6450  -26.0693   15.1355 C.3       11 UNK         0.0294 
     31 CB        -56.1712  -26.9942   16.2494 C.3       11 UNK        -0.2019 
     32 N         -54.2608  -25.6935   15.3987 N.am      11 UNK        -0.4493 
     33 C         -53.8524  -24.7676   16.2722 C.2       11 UNK         0.4932 
     34 O         -54.6252  -24.1323   16.9919 O.2       11 UNK        -0.5029 
     35 CA        -52.3419  -24.4650   16.3359 C.3       10 UNK         0.0280 
     36 CB        -51.8686  -24.1139   17.7625 C.3       10 UNK        -0.1976 
     37 N         -51.4834  -25.4936   15.7370 N.am      10 UNK        -0.4242 
     38 C         -51.2752  -26.7501   16.1579 C.2       10 UNK         0.5072 
     39 O         -51.8592  -27.2724   17.1081 O.2       10 UNK        -0.5224 
     40 CA        -50.2058  -27.5541   15.3955 C.3       9 UNK         0.0343 
     41 CB        -50.7977  -28.1764   14.1200 C.3       9 UNK        -0.2003 
     42 N         -49.0278  -26.7468   15.0579 N.am      9 UNK        -0.4272 
     43 C         -48.1766  -26.2300   15.9586 C.2       9 UNK         0.4988 
     44 O         -48.2346  -26.4605   17.1672 O.2       9 UNK        -0.5108 
     45 CA        -47.0836  -25.2818   15.4333 C.3       8 UNK         0.0248 
     46 CB        -45.8780  -26.0730   14.9009 C.3       8 UNK        -0.2001 
     47 N         -47.5760  -24.3624   14.4039 N.am      8 UNK        -0.4140 
     48 C         -48.4626  -23.3803   14.6270 C.2       8 UNK         0.5028 
     49 O         -48.8931  -23.0858   15.7421 O.2       8 UNK        -0.5428 
     50 CA        -48.9842  -22.6099   13.4007 C.3       7 UNK         0.0264 
     51 CB        -48.0377  -21.4549   13.0382 C.3       7 UNK        -0.1988 
     52 N         -49.1996  -23.4652   12.2295 N.am      7 UNK        -0.4454 
     53 C         -50.0875  -24.4705   12.1795 C.2       7 UNK         0.5027 
     54 O         -50.8511  -24.7430   13.1057 O.2       7 UNK        -0.5083 
     55 CA        -50.0817  -25.3580   10.9169 C.3       6 UNK         0.0844 
     56 C56       -50.9080  -24.7427    9.7609 C.3       14 UNK        -0.0967 
     57 S57       -52.6990  -25.0178    9.9744 S.3       14 UNK        -0.2604 
     58 C58       -52.9835  -26.4649    8.9041 C.3       14 UNK         0.0134 
     59 N         -48.7207  -25.6929   10.4959 N.am      6 UNK        -0.4116 
     60 C         -47.8572  -26.4211   11.2167 C.2       5 UNK         0.5034 
     61 O         -48.1355  -26.9497   12.2922 O.2       5 UNK        -0.5045 
     62 CA        -46.4211  -26.5222   10.6783 C.3       5 UNK         0.0224 
     63 CB        -46.2921  -27.6216    9.6138 C.3       5 UNK        -0.1978 
     64 N         -45.9488  -25.2486   10.1318 N.am      5 UNK        -0.4737 
     65 C         -45.6790  -24.1676   10.8758 C.2       4 UNK         0.5027 
     66 O         -45.7653  -24.1454   12.1025 O.2       4 UNK        -0.5211 
     67 CA        -45.2821  -22.8892   10.1198 C.3       4 UNK         0.0297 
     68 CB        -43.7780  -22.8936    9.8051 C.3       4 UNK        -0.1993 
     69 N         -46.0447  -22.7001    8.8825 N.am      4 UNK        -0.4486 
     70 C         -47.3638  -22.4658    8.8358 C.2       3 UNK         0.4961 
     71 O         -48.0822  -22.3761    9.8307 O.2       3 UNK        -0.5105 
     72 CA        -47.9976  -22.3691    7.4383 C.3       3 UNK         0.0299 
     73 CB        -47.7545  -20.9807    6.8254 C.3       3 UNK        -0.1972 
     74 N         -47.5394  -23.4113    6.5113 N.am      3 UNK        -0.4305 
     75 C         -47.6883  -24.7255    6.7208 C.2       2 UNK         0.5006 
     76 O         -48.1678  -25.2083    7.7517 O.2       2 UNK        -0.5106 
     77 CA        -47.2099  -25.6695    5.6139 C.3       2 UNK         0.0296 
     78 CB        -45.7039  -25.9604    5.7468 C.3       2 UNK        -0.2002 
     79 N         -47.9784  -26.8965    5.7681 N.am      2 UNK        -0.4032 
     80 C         -48.2082  -27.8361    4.8475 C.2       1 UNK         0.5000 
     81 O         -47.7145  -27.8382    3.7161 O.2       1 UNK        -0.5238 
     82 H82       -52.4589  -29.9736    2.4464 H         1 UNK         0.0889 
     83 H83       -50.9082  -30.7738    2.1842 H         1 UNK         0.0889 
     84 H84       -51.2564  -29.2422    1.3797 H         1 UNK         0.0889 
     85 H85       -49.4935  -30.5076    3.8986 H         1 UNK         0.3028 
     86 H86       -49.9009  -28.5151    5.9390 H         1 UNK         0.0864 
     87 H87       -47.8951  -30.7679    5.5081 H         1 UNK         0.0720 
     88 H88       -47.5424  -29.5743    6.7133 H         1 UNK         0.0720 
     89 H89       -48.5968  -29.0052    8.6114 H         1 UNK         0.0814 
     90 H90       -48.6837  -30.4613    9.5623 H         1 UNK         0.0814 
     91 H91       -50.6601  -27.6596    8.0996 H         1 UNK         0.1469 
     92 H92       -53.8484  -28.0577   10.9345 H         1 UNK         0.1381 
     93 H93       -50.7000  -30.9658   10.8335 H         1 UNK         0.1206 
     94 H94       -52.2599  -30.8743   12.7389 H         1 UNK         0.0813 
     95 H95       -53.4761  -29.6269   12.8222 H         1 UNK         0.0813 
     96 H96       -55.4180  -32.8018   13.1650 H         1 UNK         0.0638 
     97 H97       -54.7547  -31.3649   13.8963 H         1 UNK         0.0638 
     98 H98       -57.1588  -31.4802   12.0123 H         1 UNK         0.0568 
     99 H99       -58.6359  -30.5949   15.6374 H         1 UNK         0.3450 
    100 H100      -57.8027  -29.4117   14.6602 H         1 UNK         0.3450 
    101 H101      -55.6625  -29.1411   12.8833 H         1 UNK         0.2987 
    102 H102      -56.1740  -27.2985   11.1983 H         1 UNK         0.0766 
    103 H103      -57.8711  -25.5179   10.8860 H         1 UNK         0.0798 
    104 H104      -59.1182  -26.5462   11.5923 H         1 UNK         0.0798 
    105 H105      -58.3632  -26.9895   10.0673 H         1 UNK         0.0798 
    106 H106      -57.5980  -26.1677   13.4863 H         1 UNK         0.3198 
    107 H107      -56.2560  -25.1656   15.0820 H         1 UNK         0.0843 
    108 H108      -55.5753  -27.9046   16.3293 H         1 UNK         0.0831 
    109 H109      -57.2029  -27.2923   16.0596 H         1 UNK         0.0831 
    110 H110      -56.1545  -26.4997   17.2207 H         1 UNK         0.0831 
    111 H111      -53.5842  -26.1636   14.8086 H         1 UNK         0.3133 
    112 H112      -52.1943  -23.5771   15.7195 H         1 UNK         0.0566 
    113 H113      -50.8027  -23.8850   17.7793 H         1 UNK         0.0814 
    114 H114      -52.3921  -23.2376   18.1462 H         1 UNK         0.0814 
    115 H115      -52.0479  -24.9313   18.4615 H         1 UNK         0.0814 
    116 H116      -51.0200  -25.2082   14.8752 H         1 UNK         0.3091 
    117 H117      -49.8753  -28.3668   16.0457 H         1 UNK         0.0702 
    118 H118      -51.6498  -28.8121   14.3621 H         1 UNK         0.0785 
    119 H119      -51.1483  -27.4191   13.4182 H         1 UNK         0.0785 
    120 H120      -50.0659  -28.7957   13.6009 H         1 UNK         0.0785 
    121 H121      -48.8560  -26.5767   14.0710 H         1 UNK         0.2998 
    122 H122      -46.7399  -24.6776   16.2756 H         1 UNK         0.0697 
    123 H123      -46.1468  -26.7023   14.0529 H         1 UNK         0.0825 
    124 H124      -45.4694  -26.7256   15.6735 H         1 UNK         0.0825 
    125 H125      -45.0763  -25.4068   14.5817 H         1 UNK         0.0825 
    126 H126      -47.1992  -24.4760   13.4677 H         1 UNK         0.3029 
    127 H127      -49.9511  -22.1813   13.6734 H         1 UNK         0.0897 
    128 H128      -48.4372  -20.8569   12.2189 H         1 UNK         0.0792 
    129 H129      -47.0541  -21.8170   12.7393 H         1 UNK         0.0792 
    130 H130      -47.8949  -20.7864   13.8883 H         1 UNK         0.0792 
    131 H131      -48.6490  -23.2509   11.4005 H         1 UNK         0.3086 
    132 H132      -50.5442  -26.3070   11.1968 H         1 UNK         0.0583 
    133 H133      -50.7151  -23.6728    9.6581 H         1 UNK         0.1020 
    134 H134      -50.6116  -25.1795    8.8068 H         1 UNK         0.1020 
    135 H135      -54.0588  -26.6278    8.8175 H         1 UNK         0.0694 
    136 H136      -52.6285  -26.2496    7.8950 H         1 UNK         0.0694 
    137 H137      -48.4191  -25.3304    9.5951 H         1 UNK         0.2989 
    138 H138      -45.7767  -26.7899   11.5188 H         1 UNK         0.1055 
    139 H139      -46.6283  -28.5822   10.0062 H         1 UNK         0.0806 
    140 H140      -45.2554  -27.7484    9.3015 H         1 UNK         0.0806 
    141 H141      -46.8818  -27.3983    8.7253 H         1 UNK         0.0806 
    142 H142      -45.8937  -25.1690    9.1274 H         1 UNK         0.3061 
    143 H143      -45.4901  -22.0403   10.7746 H         1 UNK         0.0734 
    144 H144      -43.4657  -21.9563    9.3444 H         1 UNK         0.0832 
    145 H145      -43.1909  -23.0152   10.7167 H         1 UNK         0.0832 
    146 H146      -43.5053  -23.7074    9.1319 H         1 UNK         0.0832 
    147 H147      -45.5365  -22.7626    8.0123 H         1 UNK         0.3156 
    148 H148      -49.0751  -22.4972    7.5626 H         1 UNK         0.0589 
    149 H149      -48.1004  -20.1928    7.4963 H         1 UNK         0.0808 
    150 H150      -46.6965  -20.8008    6.6304 H         1 UNK         0.0808 
    151 H151      -48.2943  -20.8615    5.8858 H         1 UNK         0.0808 
    152 H152      -47.1285  -23.0993    5.6427 H         1 UNK         0.3098 
    153 H153      -47.4267  -25.2243    4.6407 H         1 UNK         0.0720 
    154 H154      -45.1167  -25.0461    5.6533 H         1 UNK         0.0791 
    155 H155      -45.3623  -26.6426    4.9681 H         1 UNK         0.0791 
    156 H156      -45.4621  -26.4092    6.7110 H         1 UNK         0.0791 
    157 H157      -48.4428  -26.9445    6.6667 H         1 UNK         0.3028 
@<TRIPOS>BOND
     1    1    2 1    
     2    1   82 1    
     3    1   83 1    
     4    1   84 1    
     5    2    3 2    
     6    2    4 am   BACKBONE|DICT|INTERRES
     7    4    5 1    
     8    4   85 1    
     9    5    6 1    
    10    5   80 1    
    11    5   86 1    
    12    6    7 1    
    13    6   87 1    
    14    6   88 1    
    15    7    8 1    
    16    8    9 1    
    17    8   89 1    
    18    8   90 1    
    19    9   10 ar   
    20    9   14 ar   
    21   10   11 ar   
    22   10   91 1    
    23   11   12 ar   
    24   11   58 1    
    25   12   13 ar   
    26   12   92 1    
    27   13   14 ar   
    28   13   15 1    
    29   14   93 1    
    30   15   16 1    
    31   15   94 1    
    32   15   95 1    
    33   16   17 1    
    34   17   18 1    
    35   17   96 1    
    36   17   97 1    
    37   18   19 1    
    38   18   22 1    
    39   18   98 1    
    40   19   20 am   BACKBONE|DICT|INTERRES
    41   19   21 2    
    42   20   99 1    
    43   20  100 1    
    44   22   23 am   BACKBONE|DICT|INTERRES
    45   22  101 1    
    46   23   24 2    
    47   23   25 1    
    48   25   26 1    
    49   25   27 1    
    50   25  102 1    
    51   26  103 1    
    52   26  104 1    
    53   26  105 1    
    54   27   28 am   BACKBONE|DICT|INTERRES
    55   27  106 1    
    56   28   29 2    
    57   28   30 1    
    58   30   31 1    
    59   30   32 1    
    60   30  107 1    
    61   31  108 1    
    62   31  109 1    
    63   31  110 1    
    64   32   33 am   BACKBONE|DICT|INTERRES
    65   32  111 1    
    66   33   34 2    
    67   33   35 1    
    68   35   36 1    
    69   35   37 1    
    70   35  112 1    
    71   36  113 1    
    72   36  114 1    
    73   36  115 1    
    74   37   38 am   BACKBONE|DICT|INTERRES
    75   37  116 1    
    76   38   39 2    
    77   38   40 1    
    78   40   41 1    
    79   40   42 1    
    80   40  117 1    
    81   41  118 1    
    82   41  119 1    
    83   41  120 1    
    84   42   43 am   BACKBONE|DICT|INTERRES
    85   42  121 1    
    86   43   44 2    
    87   43   45 1    
    88   45   46 1    
    89   45   47 1    
    90   45  122 1    
    91   46  123 1    
    92   46  124 1    
    93   46  125 1    
    94   47   48 am   BACKBONE|DICT|INTERRES
    95   47  126 1    
    96   48   49 2    
    97   48   50 1    
    98   50   51 1    
    99   50   52 1    
   100   50  127 1    
   101   51  128 1    
   102   51  129 1    
   103   51  130 1    
   104   52   53 am   BACKBONE|DICT|INTERRES
   105   52  131 1    
   106   53   54 2    
   107   53   55 1    
   108   55   56 1    
   109   55   59 1    
   110   55  132 1    
   111   56   57 1    
   112   56  133 1    
   113   56  134 1    
   114   57   58 1    
   115   58  135 1    
   116   58  136 1    
   117   59   60 am   BACKBONE|DICT|INTERRES
   118   59  137 1    
   119   60   61 2    
   120   60   62 1    
   121   62   63 1    
   122   62   64 1    
   123   62  138 1    
   124   63  139 1    
   125   63  140 1    
   126   63  141 1    
   127   64   65 am   BACKBONE|DICT|INTERRES
   128   64  142 1    
   129   65   66 2    
   130   65   67 1    
   131   67   68 1    
   132   67   69 1    
   133   67  143 1    
   134   68  144 1    
   135   68  145 1    
   136   68  146 1    
   137   69   70 am   BACKBONE|DICT|INTERRES
   138   69  147 1    
   139   70   71 2    
   140   70   72 1    
   141   72   73 1    
   142   72   74 1    
   143   72  148 1    
   144   73  149 1    
   145   73  150 1    
   146   73  151 1    
   147   74   75 am   BACKBONE|DICT|INTERRES
   148   74  152 1    
   149   75   76 2    
   150   75   77 1    
   151   77   78 1    
   152   77   79 1    
   153   77  153 1    
   154   78  154 1    
   155   78  155 1    
   156   78  156 1    
   157   79   80 am   BACKBONE|DICT|INTERRES
   158   79  157 1    
   159   80   81 2    
@<TRIPOS>SUBSTRUCTURE
     1 UNK         1 GROUP             0       ****    0 ROOT    
