@<TRIPOS>MOLECULE
3R207
157   159    1
SMALL
USER_CHARGES


@<TRIPOS>ATOM
      1 CA        -49.4880  -28.7618    9.3958 C.3       0 UNK        -0.1975 
      2 C         -48.7982  -29.1155    8.0922 C.2       0 UNK         0.4852 
      3 O         -47.7886  -29.8220    8.1048 O.2       0 UNK        -0.5216 
      4 N         -49.3180  -28.6187    6.9612 N.am      1 UNK        -0.4461 
      5 CA        -48.6949  -28.7581    5.6442 C.3       1 UNK         0.0864 
      6 C6        -49.6394  -28.3619    4.4796 C.3       14 UNK        -0.0898 
      7 S7        -50.4277  -26.7155    4.6184 S.3       14 UNK        -0.2598 
      8 C8        -52.2049  -27.1103    4.7136 C.3       14 UNK         0.0286 
      9 C9        -52.7728  -26.8187    6.0947 C.ar      14 UNK        -0.0844 
     10 C10       -53.4120  -25.6009    6.3455 C.ar      14 UNK        -0.0881 
     11 C11       -53.9662  -25.3296    7.6004 C.ar      14 UNK        -0.0643 
     12 C12       -53.8635  -26.2888    8.6141 C.ar      14 UNK        -0.0930 
     13 C13       -53.2356  -27.5176    8.3749 C.ar      14 UNK        -0.0827 
     14 C14       -52.6937  -27.7746    7.1109 C.ar      14 UNK        -0.1249 
     15 C15       -53.1167  -28.5697    9.4731 C.3       14 UNK         0.0141 
     16 S16       -54.6852  -28.8895   10.3485 S.3       14 UNK        -0.2313 
     17 C17       -54.2750  -28.3519   12.0454 C.3       14 UNK        -0.0915 
     18 CA        -54.1325  -29.5315   13.0505 C.3       13 UNK         0.0968 
     19 C         -52.7499  -30.2509   13.0039 C.2       13 UNK         0.5732 
     20 N         -52.1726  -30.6586   14.1301 N.am      13 UNK        -0.7310 
     21 O         -52.1906  -30.4672   11.9327 O.2       13 UNK        -0.5035 
     22 N         -54.4775  -29.0913   14.4087 N.am      13 UNK        -0.4233 
     23 C         -55.5102  -29.5343   15.1347 C.2       13 UNK         0.4989 
     24 O         -56.3559  -30.3223   14.7073 O.2       13 UNK        -0.4996 
     25 CA        -55.6354  -29.0040   16.5792 C.3       12 UNK         0.0216 
     26 CB        -56.3311  -30.0126   17.5187 C.3       12 UNK        -0.1964 
     27 N         -54.3754  -28.5355   17.1737 N.am      12 UNK        -0.4276 
     28 C         -53.2552  -29.2447   17.3909 C.2       12 UNK         0.5020 
     29 O         -53.1204  -30.4207   17.0480 O.2       12 UNK        -0.5489 
     30 CA        -52.0793  -28.5092   18.0653 C.3       11 UNK         0.0294 
     31 CB        -50.7169  -29.0634   17.6077 C.3       11 UNK        -0.2019 
     32 N         -52.1272  -27.0787   17.7638 N.am      11 UNK        -0.4493 
     33 C         -52.4250  -26.0964   18.6255 C.2       11 UNK         0.4932 
     34 O         -52.6109  -26.2755   19.8289 O.2       11 UNK        -0.5029 
     35 CA        -52.5716  -24.6726   18.0477 C.3       10 UNK         0.0280 
     36 CB        -51.2909  -23.8604   18.2963 C.3       10 UNK        -0.1976 
     37 N         -52.8823  -24.6470   16.6142 N.am      10 UNK        -0.4242 
     38 C         -54.0006  -25.1396   16.0576 C.2       10 UNK         0.5072 
     39 O         -54.9490  -25.5785   16.7085 O.2       10 UNK        -0.5224 
     40 CA        -54.0322  -25.2491   14.5205 C.3       9 UNK         0.0343 
     41 CB        -54.7773  -24.0544   13.9088 C.3       9 UNK        -0.2003 
     42 N         -52.6976  -25.3755   13.9169 N.am      9 UNK        -0.4272 
     43 C         -51.8479  -26.3852   14.1751 C.2       9 UNK         0.4988 
     44 O         -52.1643  -27.3477   14.8739 O.2       9 UNK        -0.5108 
     45 CA        -50.4110  -26.3238   13.6218 C.3       8 UNK         0.0248 
     46 CB        -50.1582  -27.4640   12.6276 C.3       8 UNK        -0.2001 
     47 N         -50.0603  -25.0522   12.9904 N.am      8 UNK        -0.4140 
     48 C         -49.9018  -23.8879   13.6390 C.2       8 UNK         0.5028 
     49 O         -49.9806  -23.7735   14.8629 O.2       8 UNK        -0.5428 
     50 CA        -49.6924  -22.6302   12.7720 C.3       7 UNK         0.0264 
     51 CB        -48.1964  -22.3109   12.6468 C.3       7 UNK        -0.1988 
     52 N         -50.2888  -22.7505   11.4342 N.am      7 UNK        -0.4454 
     53 C         -51.6029  -22.9365   11.2208 C.2       7 UNK         0.5027 
     54 O         -52.4329  -22.9044   12.1288 O.2       7 UNK        -0.5083 
     55 CA        -52.0926  -23.2818    9.8003 C.3       6 UNK         0.0844 
     56 C56       -53.0686  -22.2073    9.2658 C.3       14 UNK        -0.0967 
     57 S57       -53.6884  -22.5468    7.5812 S.3       14 UNK        -0.2604 
     58 C58       -54.7250  -24.0264    7.8346 C.3       14 UNK         0.0134 
     59 N         -51.0253  -23.5884    8.8488 N.am      6 UNK        -0.4116 
     60 C         -50.2239  -24.6583    8.8927 C.2       5 UNK         0.5034 
     61 O         -50.2241  -25.4734    9.8168 O.2       5 UNK        -0.5045 
     62 CA        -49.2388  -24.8332    7.7209 C.3       5 UNK         0.0224 
     63 CB        -49.4197  -23.8065    6.5795 C.3       5 UNK        -0.1978 
     64 N         -47.8374  -24.8503    8.1508 N.am      5 UNK        -0.4737 
     65 C         -47.2185  -23.9615    8.9427 C.2       4 UNK         0.5027 
     66 O         -47.7823  -22.9856    9.4435 O.2       4 UNK        -0.5211 
     67 CA        -45.7078  -24.1733    9.1821 C.3       4 UNK         0.0297 
     68 CB        -45.2234  -23.5792   10.5219 C.3       4 UNK        -0.1993 
     69 N         -45.2522  -25.5633    9.0402 N.am      4 UNK        -0.4486 
     70 C         -45.6222  -26.6295    9.7641 C.2       3 UNK         0.4961 
     71 O         -46.4691  -26.5973   10.6575 O.2       3 UNK        -0.5105 
     72 CA        -44.9172  -27.9550    9.4127 C.3       3 UNK         0.0299 
     73 CB        -45.3313  -29.1147   10.3381 C.3       3 UNK        -0.1972 
     74 N         -45.1467  -28.3382    8.0154 N.am      3 UNK        -0.4305 
     75 C         -44.4807  -27.8338    6.9636 C.2       2 UNK         0.5006 
     76 O         -43.5909  -26.9887    7.0751 O.2       2 UNK        -0.5106 
     77 CA        -44.8711  -28.3149    5.5515 C.3       2 UNK         0.0296 
     78 CB        -43.9149  -29.4226    5.0804 C.3       2 UNK        -0.2002 
     79 N         -46.2524  -28.7904    5.4436 N.am      2 UNK        -0.4032 
     80 C         -47.3367  -28.0233    5.6225 C.2       1 UNK         0.5000 
     81 O         -47.2851  -26.8111    5.8424 O.2       1 UNK        -0.5238 
     82 H82       -48.7632  -28.3425   10.0924 H         1 UNK         0.0889 
     83 H83       -49.9342  -29.6467    9.8492 H         1 UNK         0.0889 
     84 H84       -50.2666  -28.0185    9.2406 H         1 UNK         0.0889 
     85 H85       -50.1301  -28.0192    6.9919 H         1 UNK         0.3028 
     86 H86       -48.4889  -29.8232    5.5139 H         1 UNK         0.0864 
     87 H87       -49.0993  -28.3952    3.5315 H         1 UNK         0.0720 
     88 H88       -50.4125  -29.1249    4.3875 H         1 UNK         0.0720 
     89 H89       -52.7275  -26.5128    3.9649 H         1 UNK         0.0814 
     90 H90       -52.3988  -28.1485    4.4430 H         1 UNK         0.0814 
     91 H91       -53.4922  -24.8635    5.5583 H         1 UNK         0.1469 
     92 H92       -54.2896  -26.0888    9.5875 H         1 UNK         0.1381 
     93 H93       -52.2171  -28.7247    6.9117 H         1 UNK         0.1206 
     94 H94       -52.3487  -28.2523   10.1754 H         1 UNK         0.0813 
     95 H95       -52.7690  -29.5177    9.0601 H         1 UNK         0.0813 
     96 H96       -55.0993  -27.7063   12.3518 H         1 UNK         0.0638 
     97 H97       -53.3931  -27.7118   12.0555 H         1 UNK         0.0638 
     98 H98       -54.8406  -30.3041   12.7476 H         1 UNK         0.0568 
     99 H99       -51.2846  -31.1294   14.0762 H         1 UNK         0.3450 
    100 H100      -52.6169  -30.5260   15.0310 H         1 UNK         0.3450 
    101 H101      -53.7904  -28.4803   14.8393 H         1 UNK         0.2987 
    102 H102      -56.2766  -28.1239   16.5124 H         1 UNK         0.0766 
    103 H103      -56.4355  -29.6096   18.5261 H         1 UNK         0.0798 
    104 H104      -57.3342  -30.2546   17.1651 H         1 UNK         0.0798 
    105 H105      -55.7760  -30.9487   17.5875 H         1 UNK         0.0798 
    106 H106      -54.3709  -27.5552   17.4324 H         1 UNK         0.3198 
    107 H107      -52.1740  -28.6771   19.1400 H         1 UNK         0.0843 
    108 H108      -50.5940  -28.9858   16.5264 H         1 UNK         0.0831 
    109 H109      -50.6107  -30.1158   17.8739 H         1 UNK         0.0831 
    110 H110      -49.8927  -28.5276   18.0784 H         1 UNK         0.0831 
    111 H111      -52.0289  -26.8550   16.7783 H         1 UNK         0.3133 
    112 H112      -53.3949  -24.1873   18.5758 H         1 UNK         0.0566 
    113 H113      -50.4352  -24.2851   17.7690 H         1 UNK         0.0814 
    114 H114      -51.0417  -23.8369   19.3582 H         1 UNK         0.0814 
    115 H115      -51.4056  -22.8269   17.9688 H         1 UNK         0.0814 
    116 H116      -52.1504  -24.3108   16.0012 H         1 UNK         0.3091 
    117 H117      -54.5911  -26.1533   14.2737 H         1 UNK         0.0702 
    118 H118      -54.8656  -24.1535   12.8267 H         1 UNK         0.0785 
    119 H119      -54.2706  -23.1120   14.1203 H         1 UNK         0.0785 
    120 H120      -55.7887  -23.9780   14.3102 H         1 UNK         0.0785 
    121 H121      -52.3947  -24.6039   13.3321 H         1 UNK         0.2998 
    122 H122      -49.7416  -26.4675   14.4723 H         1 UNK         0.0697 
    123 H123      -50.8042  -27.3848   11.7538 H         1 UNK         0.0825 
    124 H124      -50.3412  -28.4356   13.0873 H         1 UNK         0.0825 
    125 H125      -49.1237  -27.4612   12.2837 H         1 UNK         0.0825 
    126 H126      -49.9902  -25.0581   11.9783 H         1 UNK         0.3029 
    127 H127      -50.1810  -21.7959   13.2801 H         1 UNK         0.0897 
    128 H128      -48.0259  -21.4155   12.0488 H         1 UNK         0.0792 
    129 H129      -47.7502  -22.1390   13.6273 H         1 UNK         0.0792 
    130 H130      -47.6546  -23.1340   12.1821 H         1 UNK         0.0792 
    131 H131      -49.6463  -22.8056   10.6505 H         1 UNK         0.3086 
    132 H132      -52.6637  -24.2015    9.9258 H         1 UNK         0.0583 
    133 H133      -53.9266  -22.1022    9.9332 H         1 UNK         0.1020 
    134 H134      -52.5822  -21.2300    9.2490 H         1 UNK         0.1020 
    135 H135      -55.1675  -24.0007    8.8316 H         1 UNK         0.0694 
    136 H136      -55.5593  -23.9854    7.1330 H         1 UNK         0.0694 
    137 H137      -50.9487  -22.9655    8.0586 H         1 UNK         0.2989 
    138 H138      -49.4464  -25.8201    7.3097 H         1 UNK         0.1055 
    139 H139      -48.7603  -24.0429    5.7439 H         1 UNK         0.0806 
    140 H140      -49.1931  -22.7883    6.8982 H         1 UNK         0.0806 
    141 H141      -50.4377  -23.8235    6.1865 H         1 UNK         0.0806 
    142 H142      -47.2869  -25.6101    7.7700 H         1 UNK         0.3061 
    143 H143      -45.2123  -23.6166    8.3855 H         1 UNK         0.0734 
    144 H144      -45.4845  -22.5236   10.6064 H         1 UNK         0.0832 
    145 H145      -45.6640  -24.0947   11.3750 H         1 UNK         0.0832 
    146 H146      -44.1398  -23.6490   10.6152 H         1 UNK         0.0832 
    147 H147      -44.5667  -25.7328    8.3089 H         1 UNK         0.3156 
    148 H148      -43.8469  -27.7959    9.5604 H         1 UNK         0.0589 
    149 H149      -46.4016  -29.3139   10.2897 H         1 UNK         0.0808 
    150 H150      -44.8069  -30.0352   10.0817 H         1 UNK         0.0808 
    151 H151      -45.0932  -28.8854   11.3775 H         1 UNK         0.0808 
    152 H152      -45.9126  -28.9848    7.8527 H         1 UNK         0.3098 
    153 H153      -44.7620  -27.4618    4.8784 H         1 UNK         0.0720 
    154 H154      -44.1186  -29.7119    4.0491 H         1 UNK         0.0791 
    155 H155      -42.8778  -29.0862    5.1209 H         1 UNK         0.0791 
    156 H156      -43.9920  -30.3152    5.7027 H         1 UNK         0.0791 
    157 H157      -46.3764  -29.7829    5.3026 H         1 UNK         0.3028 
@<TRIPOS>BOND
     1    1    2 1    
     2    1   82 1    
     3    1   83 1    
     4    1   84 1    
     5    2    3 2    
     6    2    4 am   BACKBONE|DICT|INTERRES
     7    4    5 1    
     8    4   85 1    
     9    5    6 1    
    10    5   80 1    
    11    5   86 1    
    12    6    7 1    
    13    6   87 1    
    14    6   88 1    
    15    7    8 1    
    16    8    9 1    
    17    8   89 1    
    18    8   90 1    
    19    9   10 ar   
    20    9   14 ar   
    21   10   11 ar   
    22   10   91 1    
    23   11   12 ar   
    24   11   58 1    
    25   12   13 ar   
    26   12   92 1    
    27   13   14 ar   
    28   13   15 1    
    29   14   93 1    
    30   15   16 1    
    31   15   94 1    
    32   15   95 1    
    33   16   17 1    
    34   17   18 1    
    35   17   96 1    
    36   17   97 1    
    37   18   19 1    
    38   18   22 1    
    39   18   98 1    
    40   19   20 am   BACKBONE|DICT|INTERRES
    41   19   21 2    
    42   20   99 1    
    43   20  100 1    
    44   22   23 am   BACKBONE|DICT|INTERRES
    45   22  101 1    
    46   23   24 2    
    47   23   25 1    
    48   25   26 1    
    49   25   27 1    
    50   25  102 1    
    51   26  103 1    
    52   26  104 1    
    53   26  105 1    
    54   27   28 am   BACKBONE|DICT|INTERRES
    55   27  106 1    
    56   28   29 2    
    57   28   30 1    
    58   30   31 1    
    59   30   32 1    
    60   30  107 1    
    61   31  108 1    
    62   31  109 1    
    63   31  110 1    
    64   32   33 am   BACKBONE|DICT|INTERRES
    65   32  111 1    
    66   33   34 2    
    67   33   35 1    
    68   35   36 1    
    69   35   37 1    
    70   35  112 1    
    71   36  113 1    
    72   36  114 1    
    73   36  115 1    
    74   37   38 am   BACKBONE|DICT|INTERRES
    75   37  116 1    
    76   38   39 2    
    77   38   40 1    
    78   40   41 1    
    79   40   42 1    
    80   40  117 1    
    81   41  118 1    
    82   41  119 1    
    83   41  120 1    
    84   42   43 am   BACKBONE|DICT|INTERRES
    85   42  121 1    
    86   43   44 2    
    87   43   45 1    
    88   45   46 1    
    89   45   47 1    
    90   45  122 1    
    91   46  123 1    
    92   46  124 1    
    93   46  125 1    
    94   47   48 am   BACKBONE|DICT|INTERRES
    95   47  126 1    
    96   48   49 2    
    97   48   50 1    
    98   50   51 1    
    99   50   52 1    
   100   50  127 1    
   101   51  128 1    
   102   51  129 1    
   103   51  130 1    
   104   52   53 am   BACKBONE|DICT|INTERRES
   105   52  131 1    
   106   53   54 2    
   107   53   55 1    
   108   55   56 1    
   109   55   59 1    
   110   55  132 1    
   111   56   57 1    
   112   56  133 1    
   113   56  134 1    
   114   57   58 1    
   115   58  135 1    
   116   58  136 1    
   117   59   60 am   BACKBONE|DICT|INTERRES
   118   59  137 1    
   119   60   61 2    
   120   60   62 1    
   121   62   63 1    
   122   62   64 1    
   123   62  138 1    
   124   63  139 1    
   125   63  140 1    
   126   63  141 1    
   127   64   65 am   BACKBONE|DICT|INTERRES
   128   64  142 1    
   129   65   66 2    
   130   65   67 1    
   131   67   68 1    
   132   67   69 1    
   133   67  143 1    
   134   68  144 1    
   135   68  145 1    
   136   68  146 1    
   137   69   70 am   BACKBONE|DICT|INTERRES
   138   69  147 1    
   139   70   71 2    
   140   70   72 1    
   141   72   73 1    
   142   72   74 1    
   143   72  148 1    
   144   73  149 1    
   145   73  150 1    
   146   73  151 1    
   147   74   75 am   BACKBONE|DICT|INTERRES
   148   74  152 1    
   149   75   76 2    
   150   75   77 1    
   151   77   78 1    
   152   77   79 1    
   153   77  153 1    
   154   78  154 1    
   155   78  155 1    
   156   78  156 1    
   157   79   80 am   BACKBONE|DICT|INTERRES
   158   79  157 1    
   159   80   81 2    
@<TRIPOS>SUBSTRUCTURE
     1 UNK         1 GROUP             0       ****    0 ROOT    
