@<TRIPOS>MOLECULE
3R207
157   159    1
SMALL
USER_CHARGES


@<TRIPOS>ATOM
      1 CA        -50.8262  -31.6856    2.9675 C.3       0 UNK        -0.1975 
      2 C         -50.0392  -30.4694    3.4327 C.2       0 UNK         0.4852 
      3 O         -49.0130  -30.1408    2.8365 O.2       0 UNK        -0.5216 
      4 N         -50.5099  -29.8008    4.4955 N.am      1 UNK        -0.4461 
      5 CA        -49.8837  -28.6074    5.0820 C.3       1 UNK         0.0864 
      6 C6        -50.8954  -27.8288    5.9624 C.3       14 UNK        -0.0898 
      7 S7        -50.4988  -26.0514    6.0786 S.3       14 UNK        -0.2598 
      8 C8        -50.3406  -25.8201    7.8747 C.3       14 UNK         0.0286 
      9 C9        -51.6966  -25.6456    8.5403 C.ar      14 UNK        -0.0844 
     10 C10       -52.2829  -24.3797    8.5918 C.ar      14 UNK        -0.0881 
     11 C11       -53.5107  -24.1861    9.2322 C.ar      14 UNK        -0.0643 
     12 C12       -54.1603  -25.2848    9.8025 C.ar      14 UNK        -0.0930 
     13 C13       -53.6039  -26.5676    9.7370 C.ar      14 UNK        -0.0827 
     14 C14       -52.3612  -26.7349    9.1099 C.ar      14 UNK        -0.1249 
     15 C15       -54.3818  -27.7238   10.3709 C.3       14 UNK         0.0141 
     16 S16       -53.9784  -29.4018    9.7674 S.3       14 UNK        -0.2313 
     17 C17       -52.5055  -29.8390   10.7527 C.3       14 UNK        -0.0915 
     18 CA        -52.8269  -30.6360   12.0484 C.3       13 UNK         0.0968 
     19 C         -51.5248  -31.1561   12.7098 C.2       13 UNK         0.5732 
     20 N         -50.9196  -32.1944   12.1495 N.am      13 UNK        -0.7310 
     21 O         -51.0413  -30.6201   13.7041 O.2       13 UNK        -0.5035 
     22 N         -53.6232  -29.8604   13.0150 N.am      13 UNK        -0.4233 
     23 C         -54.9232  -30.0595   13.2698 C.2       13 UNK         0.4989 
     24 O         -55.6249  -30.8779   12.6743 O.2       13 UNK        -0.4996 
     25 CA        -55.5645  -29.2126   14.3776 C.3       12 UNK         0.0216 
     26 CB        -55.2570  -29.8165   15.7585 C.3       12 UNK        -0.1964 
     27 N         -55.1128  -27.8198   14.3506 N.am      12 UNK        -0.4276 
     28 C         -55.8305  -26.7874   13.8822 C.2       12 UNK         0.5020 
     29 O         -56.9185  -26.9280   13.3213 O.2       12 UNK        -0.5489 
     30 CA        -55.2613  -25.3558   14.0471 C.3       11 UNK         0.0294 
     31 CB        -56.3545  -24.3390   14.4341 C.3       11 UNK        -0.2019 
     32 N         -54.1141  -25.2408   14.9566 N.am      11 UNK        -0.4493 
     33 C         -54.0331  -25.5873   16.2521 C.2       11 UNK         0.4932 
     34 O         -54.9991  -25.9270   16.9362 O.2       11 UNK        -0.5029 
     35 CA        -52.6081  -25.6314   16.8507 C.3       10 UNK         0.0280 
     36 CB        -52.5037  -26.5759   18.0659 C.3       10 UNK        -0.1976 
     37 N         -51.5850  -25.9694   15.8490 N.am      10 UNK        -0.4242 
     38 C         -51.5639  -27.0452   15.0435 C.2       10 UNK         0.5072 
     39 O         -52.3643  -27.9789   15.1221 O.2       10 UNK        -0.5224 
     40 CA        -50.5910  -27.0214   13.8540 C.3       9 UNK         0.0343 
     41 CB        -51.3993  -26.6829   12.5923 C.3       9 UNK        -0.2003 
     42 N         -49.5057  -26.0501   13.9774 N.am      9 UNK        -0.4272 
     43 C         -48.4970  -26.1145   14.8560 C.2       9 UNK         0.4988 
     44 O         -48.3081  -27.0584   15.6232 O.2       9 UNK        -0.5108 
     45 CA        -47.5753  -24.8848   14.9219 C.3       8 UNK         0.0248 
     46 CB        -46.4571  -24.9785   13.8721 C.3       8 UNK        -0.2001 
     47 N         -48.3119  -23.6288   14.7454 N.am      8 UNK        -0.4140 
     48 C         -49.2071  -23.1408   15.6173 C.2       8 UNK         0.5028 
     49 O         -49.4800  -23.6729   16.6928 O.2       8 UNK        -0.5428 
     50 CA        -49.9625  -21.8714   15.1932 C.3       7 UNK         0.0264 
     51 CB        -49.1030  -20.6188   15.4289 C.3       7 UNK        -0.1988 
     52 N         -50.3918  -21.9202   13.7938 N.am      7 UNK        -0.4454 
     53 C         -51.3338  -22.7484   13.3168 C.2       7 UNK         0.5027 
     54 O         -51.9783  -23.5288   14.0182 O.2       7 UNK        -0.5083 
     55 CA        -51.5833  -22.7156   11.7954 C.3       6 UNK         0.0844 
     56 C56       -52.7133  -21.7070   11.4650 C.3       14 UNK        -0.0967 
     57 S57       -52.9939  -21.4607    9.6783 S.3       14 UNK        -0.2604 
     58 C58       -54.1613  -22.8059    9.2793 C.3       14 UNK         0.0134 
     59 N         -50.3549  -22.4859   11.0232 N.am      6 UNK        -0.4116 
     60 C         -49.3064  -23.3197   10.9866 C.2       5 UNK         0.5034 
     61 O         -49.2145  -24.3452   11.6644 O.2       5 UNK        -0.5045 
     62 CA        -48.1426  -22.9103   10.0818 C.3       5 UNK         0.0224 
     63 CB        -47.1415  -22.0307   10.8511 C.3       5 UNK        -0.1978 
     64 N         -47.4601  -24.1037    9.5830 N.am      5 UNK        -0.4737 
     65 C         -46.8904  -24.2118    8.3785 C.2       4 UNK         0.5027 
     66 O         -46.8766  -23.2927    7.5589 O.2       4 UNK        -0.5211 
     67 CA        -46.2298  -25.5481    7.9873 C.3       4 UNK         0.0297 
     68 CB        -44.7126  -25.5068    8.2563 C.3       4 UNK        -0.1993 
     69 N         -46.8364  -26.7680    8.5421 N.am      4 UNK        -0.4486 
     70 C         -46.8565  -27.1968    9.8143 C.2       3 UNK         0.4961 
     71 O         -46.4247  -26.5382   10.7588 O.2       3 UNK        -0.5105 
     72 CA        -47.4618  -28.5868   10.1027 C.3       3 UNK         0.0299 
     73 CB        -48.7777  -28.4599   10.8818 C.3       3 UNK        -0.1972 
     74 N         -47.6969  -29.3983    8.9067 N.am      3 UNK        -0.4305 
     75 C         -46.7406  -30.0074    8.1927 C.2       2 UNK         0.5006 
     76 O         -45.5491  -30.0098    8.5037 O.2       2 UNK        -0.5106 
     77 CA        -47.1810  -30.7199    6.8999 C.3       2 UNK         0.0296 
     78 CB        -47.3668  -32.2247    7.1546 C.3       2 UNK        -0.2002 
     79 N         -48.3988  -30.1842    6.2753 N.am      2 UNK        -0.4032 
     80 C         -48.5722  -28.9247    5.8408 C.2       1 UNK         0.5000 
     81 O         -47.7435  -28.0306    6.0206 O.2       1 UNK        -0.5238 
     82 H82       -51.1528  -31.5486    1.9369 H         1 UNK         0.0889 
     83 H83       -51.7092  -31.8607    3.5819 H         1 UNK         0.0889 
     84 H84       -50.2005  -32.5766    3.0110 H         1 UNK         0.0889 
     85 H85       -51.3657  -30.1115    4.9344 H         1 UNK         0.3028 
     86 H86       -49.6039  -27.9635    4.2448 H         1 UNK         0.0864 
     87 H87       -51.8937  -27.8842    5.5252 H         1 UNK         0.0720 
     88 H88       -50.9850  -28.2779    6.9524 H         1 UNK         0.0720 
     89 H89       -49.7373  -24.9307    8.0545 H         1 UNK         0.0814 
     90 H90       -49.7909  -26.6518    8.3146 H         1 UNK         0.0814 
     91 H91       -51.7769  -23.5404    8.1353 H         1 UNK         0.1469 
     92 H92       -55.1162  -25.1435   10.2886 H         1 UNK         0.1381 
     93 H93       -51.9032  -27.7098    9.0541 H         1 UNK         0.1206 
     94 H94       -55.4465  -27.5714   10.1875 H         1 UNK         0.0813 
     95 H95       -54.2597  -27.6831   11.4510 H         1 UNK         0.0813 
     96 H96       -51.9239  -28.9481   10.9746 H         1 UNK         0.0638 
     97 H97       -51.8716  -30.4376   10.0961 H         1 UNK         0.0638 
     98 H98       -53.3876  -31.5276   11.7613 H         1 UNK         0.0568 
     99 H99       -50.0681  -32.5411   12.5619 H         1 UNK         0.3450 
    100 H100      -51.3004  -32.6457   11.3328 H         1 UNK         0.3450 
    101 H101      -53.0875  -29.2557   13.6295 H         1 UNK         0.2987 
    102 H102      -56.6468  -29.2533   14.2367 H         1 UNK         0.0766 
    103 H103      -55.6112  -30.8463   15.8223 H         1 UNK         0.0798 
    104 H104      -55.7489  -29.2543   16.5526 H         1 UNK         0.0798 
    105 H105      -54.1872  -29.8253   15.9714 H         1 UNK         0.0798 
    106 H106      -54.2008  -27.6420   14.7644 H         1 UNK         0.3198 
    107 H107      -54.8846  -25.0745   13.0624 H         1 UNK         0.0843 
    108 H108      -56.8170  -24.5887   15.3894 H         1 UNK         0.0831 
    109 H109      -57.1484  -24.3100   13.6868 H         1 UNK         0.0831 
    110 H110      -55.9485  -23.3304   14.5106 H         1 UNK         0.0831 
    111 H111      -53.2630  -24.8755   14.5344 H         1 UNK         0.3133 
    112 H112      -52.3832  -24.6189   17.1888 H         1 UNK         0.0566 
    113 H113      -51.4920  -26.5882   18.4713 H         1 UNK         0.0814 
    114 H114      -52.7736  -27.6001   17.8056 H         1 UNK         0.0814 
    115 H115      -53.1698  -26.2575   18.8686 H         1 UNK         0.0814 
    116 H116      -50.9007  -25.2438   15.6761 H         1 UNK         0.3091 
    117 H117      -50.1575  -28.0176   13.7508 H         1 UNK         0.0702 
    118 H118      -50.7879  -26.6854   11.6931 H         1 UNK         0.0785 
    119 H119      -51.8655  -25.7036   12.6602 H         1 UNK         0.0785 
    120 H120      -52.2090  -27.3933   12.4532 H         1 UNK         0.0785 
    121 H121      -49.5155  -25.2797   13.3140 H         1 UNK         0.2998 
    122 H122      -47.1139  -24.8693   15.9117 H         1 UNK         0.0697 
    123 H123      -46.8530  -24.9503   12.8569 H         1 UNK         0.0825 
    124 H124      -45.9002  -25.9107   13.9752 H         1 UNK         0.0825 
    125 H125      -45.7434  -24.1613   13.9762 H         1 UNK         0.0825 
    126 H126      -48.1787  -23.1451   13.8703 H         1 UNK         0.3029 
    127 H127      -50.8555  -21.7943   15.8180 H         1 UNK         0.0897 
    128 H128      -48.2032  -20.6186   14.8123 H         1 UNK         0.0792 
    129 H129      -48.7839  -20.5566   16.4704 H         1 UNK         0.0792 
    130 H130      -49.6609  -19.7084   15.2090 H         1 UNK         0.0792 
    131 H131      -49.9261  -21.2991   13.1484 H         1 UNK         0.3086 
    132 H132      -51.9403  -23.7073   11.5154 H         1 UNK         0.0583 
    133 H133      -53.6497  -22.0206   11.9313 H         1 UNK         0.1020 
    134 H134      -52.4851  -20.7268   11.8889 H         1 UNK         0.1020 
    135 H135      -54.9851  -22.7858    9.9945 H         1 UNK         0.0694 
    136 H136      -54.5991  -22.6031    8.3012 H         1 UNK         0.0694 
    137 H137      -50.3551  -21.6639   10.4365 H         1 UNK         0.2989 
    138 H138      -48.5510  -22.3443    9.2411 H         1 UNK         0.1055 
    139 H139      -46.3292  -21.7000   10.2035 H         1 UNK         0.0806 
    140 H140      -46.6983  -22.5656   11.6920 H         1 UNK         0.0806 
    141 H141      -47.6223  -21.1350   11.2462 H         1 UNK         0.0806 
    142 H142      -47.4256  -24.8983   10.2171 H         1 UNK         0.3061 
    143 H143      -46.3616  -25.6408    6.9079 H         1 UNK         0.0734 
    144 H144      -44.4897  -25.3915    9.3174 H         1 UNK         0.0832 
    145 H145      -44.2227  -26.4153    7.9061 H         1 UNK         0.0832 
    146 H146      -44.2488  -24.6672    7.7370 H         1 UNK         0.0832 
    147 H147      -47.2322  -27.3786    7.8324 H         1 UNK         0.3156 
    148 H148      -46.7482  -29.1150   10.7386 H         1 UNK         0.0589 
    149 H149      -49.5587  -28.0003   10.2779 H         1 UNK         0.0808 
    150 H150      -48.6400  -27.8442   11.7713 H         1 UNK         0.0808 
    151 H151      -49.1384  -29.4325   11.2172 H         1 UNK         0.0808 
    152 H152      -48.6495  -29.4719    8.5832 H         1 UNK         0.3098 
    153 H153      -46.3710  -30.5951    6.1782 H         1 UNK         0.0720 
    154 H154      -46.4677  -32.6611    7.5924 H         1 UNK         0.0791 
    155 H155      -47.5659  -32.7637    6.2281 H         1 UNK         0.0791 
    156 H156      -48.1910  -32.4193    7.8422 H         1 UNK         0.0791 
    157 H157      -49.1333  -30.8493    6.0822 H         1 UNK         0.3028 
@<TRIPOS>BOND
     1    1    2 1    
     2    1   82 1    
     3    1   83 1    
     4    1   84 1    
     5    2    3 2    
     6    2    4 am   BACKBONE|DICT|INTERRES
     7    4    5 1    
     8    4   85 1    
     9    5    6 1    
    10    5   80 1    
    11    5   86 1    
    12    6    7 1    
    13    6   87 1    
    14    6   88 1    
    15    7    8 1    
    16    8    9 1    
    17    8   89 1    
    18    8   90 1    
    19    9   10 ar   
    20    9   14 ar   
    21   10   11 ar   
    22   10   91 1    
    23   11   12 ar   
    24   11   58 1    
    25   12   13 ar   
    26   12   92 1    
    27   13   14 ar   
    28   13   15 1    
    29   14   93 1    
    30   15   16 1    
    31   15   94 1    
    32   15   95 1    
    33   16   17 1    
    34   17   18 1    
    35   17   96 1    
    36   17   97 1    
    37   18   19 1    
    38   18   22 1    
    39   18   98 1    
    40   19   20 am   BACKBONE|DICT|INTERRES
    41   19   21 2    
    42   20   99 1    
    43   20  100 1    
    44   22   23 am   BACKBONE|DICT|INTERRES
    45   22  101 1    
    46   23   24 2    
    47   23   25 1    
    48   25   26 1    
    49   25   27 1    
    50   25  102 1    
    51   26  103 1    
    52   26  104 1    
    53   26  105 1    
    54   27   28 am   BACKBONE|DICT|INTERRES
    55   27  106 1    
    56   28   29 2    
    57   28   30 1    
    58   30   31 1    
    59   30   32 1    
    60   30  107 1    
    61   31  108 1    
    62   31  109 1    
    63   31  110 1    
    64   32   33 am   BACKBONE|DICT|INTERRES
    65   32  111 1    
    66   33   34 2    
    67   33   35 1    
    68   35   36 1    
    69   35   37 1    
    70   35  112 1    
    71   36  113 1    
    72   36  114 1    
    73   36  115 1    
    74   37   38 am   BACKBONE|DICT|INTERRES
    75   37  116 1    
    76   38   39 2    
    77   38   40 1    
    78   40   41 1    
    79   40   42 1    
    80   40  117 1    
    81   41  118 1    
    82   41  119 1    
    83   41  120 1    
    84   42   43 am   BACKBONE|DICT|INTERRES
    85   42  121 1    
    86   43   44 2    
    87   43   45 1    
    88   45   46 1    
    89   45   47 1    
    90   45  122 1    
    91   46  123 1    
    92   46  124 1    
    93   46  125 1    
    94   47   48 am   BACKBONE|DICT|INTERRES
    95   47  126 1    
    96   48   49 2    
    97   48   50 1    
    98   50   51 1    
    99   50   52 1    
   100   50  127 1    
   101   51  128 1    
   102   51  129 1    
   103   51  130 1    
   104   52   53 am   BACKBONE|DICT|INTERRES
   105   52  131 1    
   106   53   54 2    
   107   53   55 1    
   108   55   56 1    
   109   55   59 1    
   110   55  132 1    
   111   56   57 1    
   112   56  133 1    
   113   56  134 1    
   114   57   58 1    
   115   58  135 1    
   116   58  136 1    
   117   59   60 am   BACKBONE|DICT|INTERRES
   118   59  137 1    
   119   60   61 2    
   120   60   62 1    
   121   62   63 1    
   122   62   64 1    
   123   62  138 1    
   124   63  139 1    
   125   63  140 1    
   126   63  141 1    
   127   64   65 am   BACKBONE|DICT|INTERRES
   128   64  142 1    
   129   65   66 2    
   130   65   67 1    
   131   67   68 1    
   132   67   69 1    
   133   67  143 1    
   134   68  144 1    
   135   68  145 1    
   136   68  146 1    
   137   69   70 am   BACKBONE|DICT|INTERRES
   138   69  147 1    
   139   70   71 2    
   140   70   72 1    
   141   72   73 1    
   142   72   74 1    
   143   72  148 1    
   144   73  149 1    
   145   73  150 1    
   146   73  151 1    
   147   74   75 am   BACKBONE|DICT|INTERRES
   148   74  152 1    
   149   75   76 2    
   150   75   77 1    
   151   77   78 1    
   152   77   79 1    
   153   77  153 1    
   154   78  154 1    
   155   78  155 1    
   156   78  156 1    
   157   79   80 am   BACKBONE|DICT|INTERRES
   158   79  157 1    
   159   80   81 2    
@<TRIPOS>SUBSTRUCTURE
     1 UNK         1 GROUP             0       ****    0 ROOT    
