@<TRIPOS>MOLECULE
3R207
157   159    1
SMALL
USER_CHARGES


@<TRIPOS>ATOM
      1 CA        -46.6451  -25.4674   12.1237 C.3       0 UNK        -0.1975 
      2 C         -47.4325  -26.1195   11.0001 C.2       0 UNK         0.4852 
      3 O         -47.7842  -25.4488   10.0291 O.2       0 UNK        -0.5216 
      4 N         -47.7086  -27.4230   11.1258 N.am      1 UNK        -0.4461 
      5 CA        -48.3102  -28.2835   10.1019 C.3       1 UNK         0.0864 
      6 C6        -49.7862  -27.9091    9.7859 C.3       14 UNK        -0.0898 
      7 S7        -50.8219  -29.3972    9.5958 S.3       14 UNK        -0.2598 
      8 C8        -51.5499  -29.1322    7.9512 C.3       14 UNK         0.0286 
      9 C9        -52.6978  -28.1366    8.0150 C.ar      14 UNK        -0.0844 
     10 C10       -52.5076  -26.8065    7.6307 C.ar      14 UNK        -0.0881 
     11 C11       -53.5615  -25.8876    7.6996 C.ar      14 UNK        -0.0643 
     12 C12       -54.8158  -26.3169    8.1455 C.ar      14 UNK        -0.0930 
     13 C13       -55.0217  -27.6488    8.5168 C.ar      14 UNK        -0.0827 
     14 C14       -53.9585  -28.5532    8.4507 C.ar      14 UNK        -0.1249 
     15 C15       -56.3978  -28.1162    8.9635 C.3       14 UNK         0.0141 
     16 S16       -56.6712  -27.7816   10.7277 S.3       14 UNK        -0.2313 
     17 C17       -58.3251  -28.5189   10.9350 C.3       14 UNK        -0.0915 
     18 CA        -58.7939  -28.5361   12.4135 C.3       13 UNK         0.0968 
     19 C         -60.2727  -29.0113   12.5224 C.2       13 UNK         0.5732 
     20 N         -60.5691  -30.1342   13.1664 N.am      13 UNK        -0.7310 
     21 O         -61.1706  -28.3413   12.0174 O.2       13 UNK        -0.5035 
     22 N         -57.8471  -29.2667   13.2725 N.am      13 UNK        -0.4233 
     23 C         -57.7470  -29.1219   14.5998 C.2       13 UNK         0.4989 
     24 O         -58.4583  -28.3642   15.2612 O.2       13 UNK        -0.4996 
     25 CA        -56.6809  -29.9655   15.3255 C.3       12 UNK         0.0216 
     26 CB        -57.3366  -31.1670   16.0270 C.3       12 UNK        -0.1964 
     27 N         -55.5948  -30.4476   14.4628 N.am      12 UNK        -0.4276 
     28 C         -54.6582  -29.6683   13.9054 C.2       12 UNK         0.5020 
     29 O         -54.6289  -28.4407   14.0232 O.2       12 UNK        -0.5489 
     30 CA        -53.5996  -30.3927   13.0506 C.3       11 UNK         0.0294 
     31 CB        -54.1498  -30.6765   11.6433 C.3       11 UNK        -0.2019 
     32 N         -52.3619  -29.6210   12.9201 N.am      11 UNK        -0.4493 
     33 C         -51.5304  -29.3252   13.9266 C.2       11 UNK         0.4932 
     34 O         -51.6564  -29.7566   15.0762 O.2       11 UNK        -0.5029 
     35 CA        -50.3726  -28.3814   13.5766 C.3       10 UNK         0.0280 
     36 CB        -50.8939  -26.9703   13.2484 C.3       10 UNK        -0.1976 
     37 N         -49.4547  -28.2765   14.7055 N.am      10 UNK        -0.4242 
     38 C         -48.1247  -28.3830   14.6688 C.2       10 UNK         0.5072 
     39 O         -47.4813  -28.6191   13.6433 O.2       10 UNK        -0.5224 
     40 CA        -47.3943  -28.1419   16.0056 C.3       9 UNK         0.0343 
     41 CB        -45.8839  -28.4291   15.9126 C.3       9 UNK        -0.2003 
     42 N         -47.5846  -26.7661   16.4746 N.am      9 UNK        -0.4272 
     43 C         -48.6979  -26.2789   17.0400 C.2       9 UNK         0.4988 
     44 O         -49.6891  -26.9663   17.2939 O.2       9 UNK        -0.5108 
     45 CA        -48.7371  -24.7728   17.3618 C.3       8 UNK         0.0248 
     46 CB        -47.3448  -24.1015   17.4276 C.3       8 UNK        -0.2001 
     47 N         -49.6282  -24.0534   16.4417 N.am      8 UNK        -0.4140 
     48 C         -49.4991  -23.9621   15.1101 C.2       8 UNK         0.5028 
     49 O         -48.5690  -24.4558   14.4692 O.2       8 UNK        -0.5428 
     50 CA        -50.5802  -23.1687   14.3667 C.3       7 UNK         0.0264 
     51 CB        -50.4165  -21.6544   14.5950 C.3       7 UNK        -0.1988 
     52 N         -50.4757  -23.4620   12.9391 N.am      7 UNK        -0.4454 
     53 C         -51.4754  -23.3961   12.0517 C.2       7 UNK         0.5027 
     54 O         -52.6204  -23.0531   12.3537 O.2       7 UNK        -0.5083 
     55 CA        -51.1461  -23.7819   10.5899 C.3       6 UNK         0.0844 
     56 C56       -52.2393  -23.3000    9.5902 C.3       14 UNK        -0.0967 
     57 S57       -51.8446  -23.6729    7.8448 S.3       14 UNK        -0.2604 
     58 C58       -53.3764  -24.4472    7.2362 C.3       14 UNK         0.0134 
     59 N         -49.7841  -23.3982   10.1938 N.am      6 UNK        -0.4116 
     60 C         -49.3055  -22.1538   10.0335 C.2       5 UNK         0.5034 
     61 O         -49.9030  -21.1318   10.3718 O.2       5 UNK        -0.5045 
     62 CA        -47.9441  -22.0267    9.3212 C.3       5 UNK         0.0224 
     63 CB        -46.7870  -21.9449   10.3277 C.3       5 UNK        -0.1978 
     64 N         -47.7230  -23.1467    8.3998 N.am      5 UNK        -0.4737 
     65 C         -48.2387  -23.2021    7.1657 C.2       4 UNK         0.5027 
     66 O         -48.7272  -22.2289    6.5877 O.2       4 UNK        -0.5211 
     67 CA        -48.2254  -24.5861    6.4862 C.3       4 UNK         0.0297 
     68 CB        -48.8936  -24.5783    5.0955 C.3       4 UNK        -0.1993 
     69 N         -46.8930  -25.1947    6.4081 N.am      4 UNK        -0.4486 
     70 C         -45.7841  -24.6760    5.8549 C.2       3 UNK         0.4961 
     71 O         -45.7311  -23.5531    5.3518 O.2       3 UNK        -0.5105 
     72 CA        -44.5246  -25.5689    5.7908 C.3       3 UNK         0.0299 
     73 CB        -43.2605  -24.8236    6.2713 C.3       3 UNK        -0.1972 
     74 N         -44.6632  -26.8802    6.4431 N.am      3 UNK        -0.4305 
     75 C         -44.7691  -27.1330    7.7544 C.2       2 UNK         0.5006 
     76 O         -44.6993  -26.2776    8.6388 O.2       2 UNK        -0.5106 
     77 CA        -45.0241  -28.5985    8.1421 C.3       2 UNK         0.0296 
     78 CB        -43.7550  -29.2361    8.7301 C.3       2 UNK        -0.2002 
     79 N         -46.1092  -28.6812    9.1189 N.am      2 UNK        -0.4032 
     80 C         -47.3906  -28.3766    8.8621 C.2       1 UNK         0.5000 
     81 O         -47.8147  -28.1255    7.7305 O.2       1 UNK        -0.5238 
     82 H82       -45.6234  -25.2753   11.7977 H         1 UNK         0.0889 
     83 H83       -46.6104  -26.0930   13.0151 H         1 UNK         0.0889 
     84 H84       -47.0981  -24.5183   12.4006 H         1 UNK         0.0889 
     85 H85       -47.4645  -27.8951   11.9973 H         1 UNK         0.3028 
     86 H86       -48.2970  -29.2780   10.5514 H         1 UNK         0.0864 
     87 H87       -50.2166  -27.3364   10.6043 H         1 UNK         0.0720 
     88 H88       -49.8688  -27.2511    8.9199 H         1 UNK         0.0720 
     89 H89       -51.9180  -30.0863    7.5711 H         1 UNK         0.0814 
     90 H90       -50.7791  -28.8031    7.2519 H         1 UNK         0.0814 
     91 H91       -51.5388  -26.4850    7.2741 H         1 UNK         0.1469 
     92 H92       -55.6406  -25.6187    8.1902 H         1 UNK         0.1381 
     93 H93       -54.1102  -29.5850    8.7364 H         1 UNK         0.1206 
     94 H94       -56.5109  -29.1852    8.7759 H         1 UNK         0.0813 
     95 H95       -57.1694  -27.6166    8.3758 H         1 UNK         0.0813 
     96 H96       -58.3124  -29.5327   10.5303 H         1 UNK         0.0638 
     97 H97       -59.0206  -27.9471   10.3175 H         1 UNK         0.0638 
     98 H98       -58.7999  -27.4999   12.7574 H         1 UNK         0.0568 
     99 H99       -59.8428  -30.6904   13.5866 H         1 UNK         0.3450 
    100 H100      -61.5316  -30.4255   13.2318 H         1 UNK         0.3450 
    101 H101      -57.2201  -29.9020   12.8045 H         1 UNK         0.2987 
    102 H102      -56.2369  -29.3263   16.0919 H         1 UNK         0.0766 
    103 H103      -58.1325  -30.8414   16.6987 H         1 UNK         0.0798 
    104 H104      -56.6145  -31.7175   16.6305 H         1 UNK         0.0798 
    105 H105      -57.7783  -31.8627   15.3125 H         1 UNK         0.0798 
    106 H106      -55.5490  -31.4456   14.3112 H         1 UNK         0.3198 
    107 H107      -53.3533  -31.3411   13.5332 H         1 UNK         0.0843 
    108 H108      -54.4144  -29.7527   11.1288 H         1 UNK         0.0831 
    109 H109      -55.0466  -31.2957   11.6834 H         1 UNK         0.0831 
    110 H110      -53.4206  -31.2046   11.0283 H         1 UNK         0.0831 
    111 H111      -52.1855  -29.2130   12.0129 H         1 UNK         0.3133 
    112 H112      -49.8605  -28.7956   12.7066 H         1 UNK         0.0566 
    113 H113      -50.0779  -26.3210   12.9327 H         1 UNK         0.0814 
    114 H114      -51.3725  -26.5086   14.1131 H         1 UNK         0.0814 
    115 H115      -51.6300  -26.9841   12.4441 H         1 UNK         0.0814 
    116 H116      -49.8899  -28.1018   15.6066 H         1 UNK         0.3091 
    117 H117      -47.8205  -28.8281   16.7405 H         1 UNK         0.0702 
    118 H118      -45.3969  -28.3080   16.8804 H         1 UNK         0.0785 
    119 H119      -45.3887  -27.7661   15.2019 H         1 UNK         0.0785 
    120 H120      -45.7013  -29.4535   15.5852 H         1 UNK         0.0785 
    121 H121      -46.8529  -26.1096   16.2448 H         1 UNK         0.2998 
    122 H122      -49.1841  -24.6884   18.3536 H         1 UNK         0.0697 
    123 H123      -46.8391  -24.0842   16.4618 H         1 UNK         0.0825 
    124 H124      -46.6929  -24.6174   18.1341 H         1 UNK         0.0825 
    125 H125      -47.4282  -23.0695   17.7684 H         1 UNK         0.0825 
    126 H126      -50.4403  -23.6320   16.8711 H         1 UNK         0.3029 
    127 H127      -51.5552  -23.4966   14.7342 H         1 UNK         0.0897 
    128 H128      -50.4931  -21.4014   15.6530 H         1 UNK         0.0792 
    129 H129      -51.1882  -21.0888   14.0725 H         1 UNK         0.0792 
    130 H130      -49.4473  -21.2991   14.2420 H         1 UNK         0.0792 
    131 H131      -49.5648  -23.8021   12.6568 H         1 UNK         0.3086 
    132 H132      -51.1537  -24.8728   10.5688 H         1 UNK         0.0583 
    133 H133      -53.1996  -23.7541    9.8421 H         1 UNK         0.1020 
    134 H134      -52.3850  -22.2215    9.6754 H         1 UNK         0.1020 
    135 H135      -54.2257  -23.8274    7.5284 H         1 UNK         0.0694 
    136 H136      -53.3536  -24.4415    6.1458 H         1 UNK         0.0694 
    137 H137      -49.1722  -24.1677    9.9355 H         1 UNK         0.2989 
    138 H138      -47.9609  -21.0924    8.7552 H         1 UNK         0.1055 
    139 H139      -46.6706  -22.8700   10.8877 H         1 UNK         0.0806 
    140 H140      -46.9501  -21.1420   11.0480 H         1 UNK         0.0806 
    141 H141      -45.8421  -21.7417    9.8236 H         1 UNK         0.0806 
    142 H142      -47.3848  -24.0120    8.8152 H         1 UNK         0.3061 
    143 H143      -48.8191  -25.2409    7.1270 H         1 UNK         0.0734 
    144 H144      -48.3604  -23.9356    4.3942 H         1 UNK         0.0832 
    145 H145      -48.9353  -25.5807    4.6697 H         1 UNK         0.0832 
    146 H146      -49.9191  -24.2116    5.1594 H         1 UNK         0.0832 
    147 H147      -46.8242  -26.1187    6.8152 H         1 UNK         0.3156 
    148 H148      -44.3810  -25.7905    4.7323 H         1 UNK         0.0589 
    149 H149      -42.3769  -25.4592    6.2136 H         1 UNK         0.0808 
    150 H150      -43.0669  -23.9461    5.6530 H         1 UNK         0.0808 
    151 H151      -43.3583  -24.4743    7.2994 H         1 UNK         0.0808 
    152 H152      -44.7454  -27.6624    5.8070 H         1 UNK         0.3098 
    153 H153      -45.3198  -29.1644    7.2559 H         1 UNK         0.0720 
    154 H154      -42.9355  -29.2073    8.0107 H         1 UNK         0.0791 
    155 H155      -43.9195  -30.2818    8.9910 H         1 UNK         0.0791 
    156 H156      -43.4187  -28.7143    9.6273 H         1 UNK         0.0791 
    157 H157      -45.8367  -28.8155   10.0816 H         1 UNK         0.3028 
@<TRIPOS>BOND
     1    1    2 1    
     2    1   82 1    
     3    1   83 1    
     4    1   84 1    
     5    2    3 2    
     6    2    4 am   BACKBONE|DICT|INTERRES
     7    4    5 1    
     8    4   85 1    
     9    5    6 1    
    10    5   80 1    
    11    5   86 1    
    12    6    7 1    
    13    6   87 1    
    14    6   88 1    
    15    7    8 1    
    16    8    9 1    
    17    8   89 1    
    18    8   90 1    
    19    9   10 ar   
    20    9   14 ar   
    21   10   11 ar   
    22   10   91 1    
    23   11   12 ar   
    24   11   58 1    
    25   12   13 ar   
    26   12   92 1    
    27   13   14 ar   
    28   13   15 1    
    29   14   93 1    
    30   15   16 1    
    31   15   94 1    
    32   15   95 1    
    33   16   17 1    
    34   17   18 1    
    35   17   96 1    
    36   17   97 1    
    37   18   19 1    
    38   18   22 1    
    39   18   98 1    
    40   19   20 am   BACKBONE|DICT|INTERRES
    41   19   21 2    
    42   20   99 1    
    43   20  100 1    
    44   22   23 am   BACKBONE|DICT|INTERRES
    45   22  101 1    
    46   23   24 2    
    47   23   25 1    
    48   25   26 1    
    49   25   27 1    
    50   25  102 1    
    51   26  103 1    
    52   26  104 1    
    53   26  105 1    
    54   27   28 am   BACKBONE|DICT|INTERRES
    55   27  106 1    
    56   28   29 2    
    57   28   30 1    
    58   30   31 1    
    59   30   32 1    
    60   30  107 1    
    61   31  108 1    
    62   31  109 1    
    63   31  110 1    
    64   32   33 am   BACKBONE|DICT|INTERRES
    65   32  111 1    
    66   33   34 2    
    67   33   35 1    
    68   35   36 1    
    69   35   37 1    
    70   35  112 1    
    71   36  113 1    
    72   36  114 1    
    73   36  115 1    
    74   37   38 am   BACKBONE|DICT|INTERRES
    75   37  116 1    
    76   38   39 2    
    77   38   40 1    
    78   40   41 1    
    79   40   42 1    
    80   40  117 1    
    81   41  118 1    
    82   41  119 1    
    83   41  120 1    
    84   42   43 am   BACKBONE|DICT|INTERRES
    85   42  121 1    
    86   43   44 2    
    87   43   45 1    
    88   45   46 1    
    89   45   47 1    
    90   45  122 1    
    91   46  123 1    
    92   46  124 1    
    93   46  125 1    
    94   47   48 am   BACKBONE|DICT|INTERRES
    95   47  126 1    
    96   48   49 2    
    97   48   50 1    
    98   50   51 1    
    99   50   52 1    
   100   50  127 1    
   101   51  128 1    
   102   51  129 1    
   103   51  130 1    
   104   52   53 am   BACKBONE|DICT|INTERRES
   105   52  131 1    
   106   53   54 2    
   107   53   55 1    
   108   55   56 1    
   109   55   59 1    
   110   55  132 1    
   111   56   57 1    
   112   56  133 1    
   113   56  134 1    
   114   57   58 1    
   115   58  135 1    
   116   58  136 1    
   117   59   60 am   BACKBONE|DICT|INTERRES
   118   59  137 1    
   119   60   61 2    
   120   60   62 1    
   121   62   63 1    
   122   62   64 1    
   123   62  138 1    
   124   63  139 1    
   125   63  140 1    
   126   63  141 1    
   127   64   65 am   BACKBONE|DICT|INTERRES
   128   64  142 1    
   129   65   66 2    
   130   65   67 1    
   131   67   68 1    
   132   67   69 1    
   133   67  143 1    
   134   68  144 1    
   135   68  145 1    
   136   68  146 1    
   137   69   70 am   BACKBONE|DICT|INTERRES
   138   69  147 1    
   139   70   71 2    
   140   70   72 1    
   141   72   73 1    
   142   72   74 1    
   143   72  148 1    
   144   73  149 1    
   145   73  150 1    
   146   73  151 1    
   147   74   75 am   BACKBONE|DICT|INTERRES
   148   74  152 1    
   149   75   76 2    
   150   75   77 1    
   151   77   78 1    
   152   77   79 1    
   153   77  153 1    
   154   78  154 1    
   155   78  155 1    
   156   78  156 1    
   157   79   80 am   BACKBONE|DICT|INTERRES
   158   79  157 1    
   159   80   81 2    
@<TRIPOS>SUBSTRUCTURE
     1 UNK         1 GROUP             0       ****    0 ROOT    
