@<TRIPOS>MOLECULE
3R207
157   159    1
SMALL
USER_CHARGES


@<TRIPOS>ATOM
      1 CA        -49.6123  -28.5187    6.1649 C.3       0 UNK        -0.1975 
      2 C         -50.4737  -28.2269    4.9364 C.2       0 UNK         0.4852 
      3 O         -50.9422  -29.1768    4.3132 O.2       0 UNK        -0.5216 
      4 N         -50.7162  -26.9713    4.5218 N.am      1 UNK        -0.4461 
      5 CA        -50.2968  -25.6770    5.0862 C.3       1 UNK         0.0864 
      6 C6        -51.0527  -25.2862    6.3871 C.3       14 UNK        -0.0898 
      7 S7        -52.8327  -25.0056    6.0896 S.3       14 UNK        -0.2598 
      8 C8        -53.5931  -26.5835    6.5927 C.3       14 UNK         0.0286 
      9 C9        -53.4194  -26.8606    8.0779 C.ar      14 UNK        -0.0844 
     10 C10       -52.5292  -27.8464    8.5091 C.ar      14 UNK        -0.0881 
     11 C11       -52.3506  -28.0982    9.8702 C.ar      14 UNK        -0.0643 
     12 C12       -53.0836  -27.3604   10.8063 C.ar      14 UNK        -0.0930 
     13 C13       -54.0020  -26.3879   10.3876 C.ar      14 UNK        -0.0827 
     14 C14       -54.1581  -26.1411    9.0205 C.ar      14 UNK        -0.1249 
     15 C15       -54.8087  -25.5711   11.3931 C.3       14 UNK         0.0141 
     16 S16       -55.5706  -26.5748   12.7064 S.3       14 UNK        -0.2313 
     17 C17       -56.9390  -27.4121   11.8253 C.3       14 UNK        -0.0915 
     18 CA        -56.8457  -28.9664   11.8266 C.3       13 UNK         0.0968 
     19 C         -55.9412  -29.5372   10.6983 C.2       13 UNK         0.5732 
     20 N         -54.9141  -30.3318   10.9904 N.am      13 UNK        -0.7310 
     21 O         -56.2103  -29.2979    9.5239 O.2       13 UNK        -0.5035 
     22 N         -56.5190  -29.5065   13.1467 N.am      13 UNK        -0.4233 
     23 C         -57.3181  -29.6331   14.2021 C.2       13 UNK         0.4989 
     24 O         -58.5193  -29.3613   14.1955 O.2       13 UNK        -0.4996 
     25 CA        -56.6586  -30.1384   15.5003 C.3       12 UNK         0.0216 
     26 CB        -56.7133  -31.6766   15.5778 C.3       12 UNK        -0.1964 
     27 N         -55.2900  -29.6437   15.7430 N.am      12 UNK        -0.4276 
     28 C         -54.1593  -29.8608   15.0545 C.2       12 UNK         0.5020 
     29 O         -54.1077  -30.5041   14.0016 O.2       12 UNK        -0.5489 
     30 CA        -52.8835  -29.2090   15.6214 C.3       11 UNK         0.0294 
     31 CB        -51.6067  -29.8123   15.0110 C.3       11 UNK        -0.2019 
     32 N         -52.8557  -27.7602   15.4130 N.am      11 UNK        -0.4493 
     33 C         -53.6236  -26.8581   16.0379 C.2       11 UNK         0.4932 
     34 O         -54.4865  -27.1509   16.8693 O.2       11 UNK        -0.5029 
     35 CA        -53.3325  -25.3850   15.6950 C.3       10 UNK         0.0280 
     36 CB        -54.2532  -24.3913   16.4327 C.3       10 UNK        -0.1976 
     37 N         -51.9186  -25.0537   15.9037 N.am      10 UNK        -0.4242 
     38 C         -51.2134  -25.1367   17.0433 C.2       10 UNK         0.5072 
     39 O         -51.6989  -25.4202   18.1393 O.2       10 UNK        -0.5224 
     40 CA        -49.6951  -24.8905   16.9526 C.3       9 UNK         0.0343 
     41 CB        -48.9452  -26.2323   16.9984 C.3       9 UNK        -0.2003 
     42 N         -49.2855  -24.1577   15.7515 N.am      9 UNK        -0.4272 
     43 C         -49.4900  -22.8482   15.5478 C.2       9 UNK         0.4988 
     44 O         -49.9846  -22.0928   16.3850 O.2       9 UNK        -0.5108 
     45 CA        -49.1092  -22.2950   14.1623 C.3       8 UNK         0.0248 
     46 CB        -47.6020  -22.0038   14.0842 C.3       8 UNK        -0.2001 
     47 N         -49.4958  -23.1912   13.0685 N.am      8 UNK        -0.4140 
     48 C         -50.7580  -23.5371   12.7743 C.2       8 UNK         0.5028 
     49 O         -51.7473  -23.0851   13.3497 O.2       8 UNK        -0.5428 
     50 CA        -50.9515  -24.6156   11.7024 C.3       7 UNK         0.0264 
     51 CB        -50.9220  -24.0277   10.2828 C.3       7 UNK        -0.1988 
     52 N         -49.9634  -25.6829   11.8245 N.am      7 UNK        -0.4454 
     53 C         -50.0059  -26.6556   12.7474 C.2       7 UNK         0.5027 
     54 O         -50.9071  -26.7734   13.5792 O.2       7 UNK        -0.5083 
     55 CA        -48.8229  -27.6486   12.7631 C.3       6 UNK         0.0844 
     56 C56       -49.0878  -28.9367   11.9411 C.3       14 UNK        -0.0967 
     57 S57       -49.6498  -28.6778   10.2170 S.3       14 UNK        -0.2604 
     58 C58       -51.3984  -29.1981   10.3148 C.3       14 UNK         0.0134 
     59 N         -47.5570  -27.0094   12.3940 N.am      6 UNK        -0.4116 
     60 C         -46.9391  -26.0852   13.1431 C.2       5 UNK         0.5034 
     61 O         -47.3698  -25.6748   14.2198 O.2       5 UNK        -0.5045 
     62 CA        -45.6465  -25.4820   12.5773 C.3       5 UNK         0.0224 
     63 CB        -44.4445  -26.3874   12.8878 C.3       5 UNK        -0.1978 
     64 N         -45.7017  -25.2198   11.1378 N.am      5 UNK        -0.4737 
     65 C         -46.5655  -24.4061   10.5211 C.2       4 UNK         0.5027 
     66 O         -47.4873  -23.8328   11.1010 O.2       4 UNK        -0.5211 
     67 CA        -46.3773  -24.1939    9.0087 C.3       4 UNK         0.0297 
     68 CB        -45.2000  -23.2408    8.7304 C.3       4 UNK        -0.1993 
     69 N         -46.2669  -25.4222    8.2084 N.am      4 UNK        -0.4486 
     70 C         -45.3314  -26.3865    8.2434 C.2       3 UNK         0.4961 
     71 O         -44.3776  -26.3984    9.0223 O.2       3 UNK        -0.5105 
     72 CA        -45.4818  -27.5482    7.2427 C.3       3 UNK         0.0299 
     73 CB        -46.2405  -28.7141    7.8979 C.3       3 UNK        -0.1972 
     74 N         -46.1586  -27.1645    6.0012 N.am      3 UNK        -0.4305 
     75 C         -45.6756  -26.2986    5.0990 C.2       2 UNK         0.5006 
     76 O         -44.5472  -25.8089    5.1589 O.2       2 UNK        -0.5106 
     77 CA        -46.6028  -25.8914    3.9367 C.3       2 UNK         0.0296 
     78 CB        -46.2217  -26.6609    2.6609 C.3       2 UNK        -0.2002 
     79 N         -48.0478  -26.0418    4.1687 N.am      2 UNK        -0.4032 
     80 C         -48.7622  -25.5120    5.1753 C.2       1 UNK         0.5000 
     81 O         -48.2571  -24.9371    6.1409 O.2       1 UNK        -0.5238 
     82 H82       -50.0564  -29.3275    6.7444 H         1 UNK         0.0889 
     83 H83       -49.4908  -27.6730    6.8362 H         1 UNK         0.0889 
     84 H84       -48.6266  -28.8552    5.8480 H         1 UNK         0.0889 
     85 H85       -51.2942  -26.8767    3.6979 H         1 UNK         0.3028 
     86 H86       -50.5837  -24.9396    4.3343 H         1 UNK         0.0864 
     87 H87       -50.6668  -24.3463    6.7860 H         1 UNK         0.0720 
     88 H88       -50.9102  -26.0175    7.1799 H         1 UNK         0.0720 
     89 H89       -53.1812  -27.3954    5.9927 H         1 UNK         0.0814 
     90 H90       -54.6582  -26.5487    6.3596 H         1 UNK         0.0814 
     91 H91       -51.9719  -28.4215    7.7853 H         1 UNK         0.1469 
     92 H92       -52.9510  -27.5538   11.8619 H         1 UNK         0.1381 
     93 H93       -54.8508  -25.3821    8.6837 H         1 UNK         0.1206 
     94 H94       -55.5938  -25.0033   10.8914 H         1 UNK         0.0813 
     95 H95       -54.1588  -24.8313   11.8588 H         1 UNK         0.0813 
     96 H96       -57.0240  -27.0244   10.8086 H         1 UNK         0.0638 
     97 H97       -57.8619  -27.1140   12.3245 H         1 UNK         0.0638 
     98 H98       -57.8386  -29.3449   11.5775 H         1 UNK         0.0568 
     99 H99       -54.3650  -30.6955   10.2295 H         1 UNK         0.3450 
    100 H100      -54.6564  -30.5540   11.9421 H         1 UNK         0.3450 
    101 H101      -55.5504  -29.7857   13.2811 H         1 UNK         0.2987 
    102 H102      -57.2603  -29.7464   16.3220 H         1 UNK         0.0766 
    103 H103      -56.3288  -32.0392   16.5311 H         1 UNK         0.0798 
    104 H104      -56.1337  -32.1460   14.7822 H         1 UNK         0.0798 
    105 H105      -57.7395  -32.0349   15.4852 H         1 UNK         0.0798 
    106 H106      -55.2101  -28.9670   16.4982 H         1 UNK         0.3198 
    107 H107      -52.8624  -29.4016   16.6962 H         1 UNK         0.0843 
    108 H108      -51.5684  -29.6439   13.9352 H         1 UNK         0.0831 
    109 H109      -51.5658  -30.8899   15.1749 H         1 UNK         0.0831 
    110 H110      -50.7088  -29.3796   15.4526 H         1 UNK         0.0831 
    111 H111      -52.1734  -27.4158   14.7385 H         1 UNK         0.3133 
    112 H112      -53.5152  -25.2716   14.6254 H         1 UNK         0.0566 
    113 H113      -54.0378  -23.3634   16.1409 H         1 UNK         0.0814 
    114 H114      -55.3000  -24.5844   16.1949 H         1 UNK         0.0814 
    115 H115      -54.1473  -24.4631   17.5156 H         1 UNK         0.0814 
    116 H116      -51.4073  -24.8257   15.0617 H         1 UNK         0.3091 
    117 H117      -49.4036  -24.3051   17.8271 H         1 UNK         0.0702 
    118 H118      -47.8651  -26.0838   16.9990 H         1 UNK         0.0785 
    119 H119      -49.1966  -26.8617   16.1436 H         1 UNK         0.0785 
    120 H120      -49.1958  -26.7916   17.9008 H         1 UNK         0.0785 
    121 H121      -48.7855  -24.6914   15.0447 H         1 UNK         0.2998 
    122 H122      -49.6456  -21.3544   14.0211 H         1 UNK         0.0697 
    123 H123      -47.0080  -22.9075   14.2208 H         1 UNK         0.0825 
    124 H124      -47.3014  -21.2960   14.8579 H         1 UNK         0.0825 
    125 H125      -47.3310  -21.5685   13.1221 H         1 UNK         0.0825 
    126 H126      -48.7451  -23.5636   12.4909 H         1 UNK         0.3029 
    127 H127      -51.9346  -25.0528   11.8646 H         1 UNK         0.0897 
    128 H128      -51.1432  -24.7932    9.5380 H         1 UNK         0.0792 
    129 H129      -49.9539  -23.5895   10.0395 H         1 UNK         0.0792 
    130 H130      -51.6736  -23.2453   10.1713 H         1 UNK         0.0792 
    131 H131      -49.1726  -25.6443   11.1981 H         1 UNK         0.3086 
    132 H132      -48.7112  -27.9652   13.8027 H         1 UNK         0.0583 
    133 H133      -48.1776  -29.5375   11.9048 H         1 UNK         0.1020 
    134 H134      -49.7995  -29.5667   12.4723 H         1 UNK         0.1020 
    135 H135      -51.5350  -30.0731    9.6777 H         1 UNK         0.0694 
    136 H136      -51.6631  -29.5231   11.3212 H         1 UNK         0.0694 
    137 H137      -47.1477  -27.2761   11.5109 H         1 UNK         0.2989 
    138 H138      -45.4903  -24.5240   13.0772 H         1 UNK         0.1055 
    139 H139      -44.3729  -26.5897   13.9576 H         1 UNK         0.0806 
    140 H140      -43.5078  -25.9189   12.5851 H         1 UNK         0.0806 
    141 H141      -44.5178  -27.3482   12.3767 H         1 UNK         0.0806 
    142 H142      -45.0031  -25.6725   10.5496 H         1 UNK         0.3061 
    143 H143      -47.2837  -23.7005    8.6530 H         1 UNK         0.0734 
    144 H144      -45.1261  -23.0057    7.6685 H         1 UNK         0.0832 
    145 H145      -45.3283  -22.2977    9.2634 H         1 UNK         0.0832 
    146 H146      -44.2461  -23.6645    9.0460 H         1 UNK         0.0832 
    147 H147      -46.9905  -25.5030    7.4980 H         1 UNK         0.3156 
    148 H148      -44.4787  -27.8939    6.9842 H         1 UNK         0.0589 
    149 H149      -47.2547  -28.4307    8.1813 H         1 UNK         0.0808 
    150 H150      -46.3039  -29.5742    7.2310 H         1 UNK         0.0808 
    151 H151      -45.7334  -29.0479    8.8044 H         1 UNK         0.0808 
    152 H152      -47.0870  -27.5265    5.8559 H         1 UNK         0.3098 
    153 H153      -46.4241  -24.8294    3.7566 H         1 UNK         0.0720 
    154 H154      -46.7710  -26.2928    1.7941 H         1 UNK         0.0791 
    155 H155      -46.4225  -27.7285    2.7590 H         1 UNK         0.0791 
    156 H156      -45.1596  -26.5486    2.4371 H         1 UNK         0.0791 
    157 H157      -48.5620  -26.5121    3.4371 H         1 UNK         0.3028 
@<TRIPOS>BOND
     1    1    2 1    
     2    1   82 1    
     3    1   83 1    
     4    1   84 1    
     5    2    3 2    
     6    2    4 am   BACKBONE|DICT|INTERRES
     7    4    5 1    
     8    4   85 1    
     9    5    6 1    
    10    5   80 1    
    11    5   86 1    
    12    6    7 1    
    13    6   87 1    
    14    6   88 1    
    15    7    8 1    
    16    8    9 1    
    17    8   89 1    
    18    8   90 1    
    19    9   10 ar   
    20    9   14 ar   
    21   10   11 ar   
    22   10   91 1    
    23   11   12 ar   
    24   11   58 1    
    25   12   13 ar   
    26   12   92 1    
    27   13   14 ar   
    28   13   15 1    
    29   14   93 1    
    30   15   16 1    
    31   15   94 1    
    32   15   95 1    
    33   16   17 1    
    34   17   18 1    
    35   17   96 1    
    36   17   97 1    
    37   18   19 1    
    38   18   22 1    
    39   18   98 1    
    40   19   20 am   BACKBONE|DICT|INTERRES
    41   19   21 2    
    42   20   99 1    
    43   20  100 1    
    44   22   23 am   BACKBONE|DICT|INTERRES
    45   22  101 1    
    46   23   24 2    
    47   23   25 1    
    48   25   26 1    
    49   25   27 1    
    50   25  102 1    
    51   26  103 1    
    52   26  104 1    
    53   26  105 1    
    54   27   28 am   BACKBONE|DICT|INTERRES
    55   27  106 1    
    56   28   29 2    
    57   28   30 1    
    58   30   31 1    
    59   30   32 1    
    60   30  107 1    
    61   31  108 1    
    62   31  109 1    
    63   31  110 1    
    64   32   33 am   BACKBONE|DICT|INTERRES
    65   32  111 1    
    66   33   34 2    
    67   33   35 1    
    68   35   36 1    
    69   35   37 1    
    70   35  112 1    
    71   36  113 1    
    72   36  114 1    
    73   36  115 1    
    74   37   38 am   BACKBONE|DICT|INTERRES
    75   37  116 1    
    76   38   39 2    
    77   38   40 1    
    78   40   41 1    
    79   40   42 1    
    80   40  117 1    
    81   41  118 1    
    82   41  119 1    
    83   41  120 1    
    84   42   43 am   BACKBONE|DICT|INTERRES
    85   42  121 1    
    86   43   44 2    
    87   43   45 1    
    88   45   46 1    
    89   45   47 1    
    90   45  122 1    
    91   46  123 1    
    92   46  124 1    
    93   46  125 1    
    94   47   48 am   BACKBONE|DICT|INTERRES
    95   47  126 1    
    96   48   49 2    
    97   48   50 1    
    98   50   51 1    
    99   50   52 1    
   100   50  127 1    
   101   51  128 1    
   102   51  129 1    
   103   51  130 1    
   104   52   53 am   BACKBONE|DICT|INTERRES
   105   52  131 1    
   106   53   54 2    
   107   53   55 1    
   108   55   56 1    
   109   55   59 1    
   110   55  132 1    
   111   56   57 1    
   112   56  133 1    
   113   56  134 1    
   114   57   58 1    
   115   58  135 1    
   116   58  136 1    
   117   59   60 am   BACKBONE|DICT|INTERRES
   118   59  137 1    
   119   60   61 2    
   120   60   62 1    
   121   62   63 1    
   122   62   64 1    
   123   62  138 1    
   124   63  139 1    
   125   63  140 1    
   126   63  141 1    
   127   64   65 am   BACKBONE|DICT|INTERRES
   128   64  142 1    
   129   65   66 2    
   130   65   67 1    
   131   67   68 1    
   132   67   69 1    
   133   67  143 1    
   134   68  144 1    
   135   68  145 1    
   136   68  146 1    
   137   69   70 am   BACKBONE|DICT|INTERRES
   138   69  147 1    
   139   70   71 2    
   140   70   72 1    
   141   72   73 1    
   142   72   74 1    
   143   72  148 1    
   144   73  149 1    
   145   73  150 1    
   146   73  151 1    
   147   74   75 am   BACKBONE|DICT|INTERRES
   148   74  152 1    
   149   75   76 2    
   150   75   77 1    
   151   77   78 1    
   152   77   79 1    
   153   77  153 1    
   154   78  154 1    
   155   78  155 1    
   156   78  156 1    
   157   79   80 am   BACKBONE|DICT|INTERRES
   158   79  157 1    
   159   80   81 2    
@<TRIPOS>SUBSTRUCTURE
     1 UNK         1 GROUP             0       ****    0 ROOT    
