@<TRIPOS>MOLECULE
3R207
157   159    1
SMALL
USER_CHARGES


@<TRIPOS>ATOM
      1 CA        -52.1811  -27.0360    3.5352 C.3       0 UNK        -0.1975 
      2 C         -51.2478  -26.9700    4.7342 C.2       0 UNK         0.4852 
      3 O         -51.2302  -25.9637    5.4423 O.2       0 UNK        -0.5216 
      4 N         -50.4571  -28.0297    4.9601 N.am      1 UNK        -0.4461 
      5 CA        -49.5489  -28.1807    6.1080 C.3       1 UNK         0.0864 
      6 C6        -49.0285  -29.6345    6.2492 C.3       14 UNK        -0.0898 
      7 S7        -50.2347  -31.0102    6.3968 S.3       14 UNK        -0.2598 
      8 C8        -51.8825  -30.3157    6.7845 C.3       14 UNK         0.0286 
      9 C9        -51.9669  -29.6294    8.1423 C.ar      14 UNK        -0.0844 
     10 C10       -52.4911  -28.3376    8.2378 C.ar      14 UNK        -0.0881 
     11 C11       -52.5867  -27.6951    9.4743 C.ar      14 UNK        -0.0643 
     12 C12       -52.1649  -28.3618   10.6291 C.ar      14 UNK        -0.0930 
     13 C13       -51.6569  -29.6620   10.5516 C.ar      14 UNK        -0.0827 
     14 C14       -51.5624  -30.2900    9.3059 C.ar      14 UNK        -0.1249 
     15 C15       -51.1836  -30.3868   11.8053 C.3       14 UNK         0.0141 
     16 S16       -52.5077  -30.6680   13.0258 S.3       14 UNK        -0.2313 
     17 C17       -53.7540  -31.6120   12.0802 C.3       14 UNK        -0.0915 
     18 CA        -55.1970  -31.0746   12.2776 C.3       13 UNK         0.0968 
     19 C         -55.7883  -31.4873   13.6586 C.2       13 UNK         0.5732 
     20 N         -56.1001  -30.5581   14.5547 N.am      13 UNK        -0.7310 
     21 O         -55.9822  -32.6738   13.9132 O.2       13 UNK        -0.5035 
     22 N         -55.2915  -29.6390   11.9652 N.am      13 UNK        -0.4233 
     23 C         -56.4213  -28.9981   11.6495 C.2       13 UNK         0.4989 
     24 O         -57.5194  -29.5482   11.5478 O.2       13 UNK        -0.4996 
     25 CA        -56.3038  -27.4785   11.4539 C.3       12 UNK         0.0216 
     26 CB        -57.4505  -26.9027   10.6024 C.3       12 UNK        -0.1964 
     27 N         -56.2812  -26.8008   12.7509 N.am      12 UNK        -0.4276 
     28 C         -55.1910  -26.6357   13.5083 C.2       12 UNK         0.5020 
     29 O         -54.0614  -27.0054   13.1783 O.2       12 UNK        -0.5489 
     30 CA        -55.4045  -25.9821   14.8779 C.3       11 UNK         0.0294 
     31 CB        -55.9279  -27.0156   15.8944 C.3       11 UNK        -0.2019 
     32 N         -54.1302  -25.4339   15.3299 N.am      11 UNK        -0.4493 
     33 C         -53.9508  -24.5440   16.3145 C.2       11 UNK         0.4932 
     34 O         -54.8780  -24.0475   16.9568 O.2       11 UNK        -0.5029 
     35 CA        -52.4961  -24.1296   16.6253 C.3       10 UNK         0.0280 
     36 CB        -52.3036  -23.6249   18.0715 C.3       10 UNK        -0.1976 
     37 N         -51.5184  -25.1711   16.2854 N.am      10 UNK        -0.4242 
     38 C         -51.4035  -26.3903   16.8335 C.2       10 UNK         0.5072 
     39 O         -52.0542  -26.7781   17.8048 O.2       10 UNK        -0.5224 
     40 CA        -50.4260  -27.3661   16.1606 C.3       9 UNK         0.0343 
     41 CB        -51.1590  -28.1798   15.0853 C.3       9 UNK        -0.2003 
     42 N         -49.2556  -26.7198   15.5616 N.am      9 UNK        -0.4272 
     43 C         -48.2190  -26.2452   16.2672 C.2       9 UNK         0.4988 
     44 O         -48.1580  -26.2708   17.4972 O.2       9 UNK        -0.5108 
     45 CA        -47.0407  -25.6596   15.4703 C.3       8 UNK         0.0248 
     46 CB        -46.2078  -26.7793   14.8247 C.3       8 UNK        -0.2001 
     47 N         -47.4648  -24.7048   14.4458 N.am      8 UNK        -0.4140 
     48 C         -47.9999  -23.5028   14.7049 C.2       8 UNK         0.5028 
     49 O         -48.1419  -23.0422   15.8383 O.2       8 UNK        -0.5428 
     50 CA        -48.4784  -22.6785   13.4973 C.3       7 UNK         0.0264 
     51 CB        -47.3096  -21.9103   12.8601 C.3       7 UNK        -0.1988 
     52 N         -49.1439  -23.4904   12.4768 N.am      7 UNK        -0.4454 
     53 C         -50.2726  -24.1881   12.6708 C.2       7 UNK         0.5027 
     54 O         -50.9031  -24.1971   13.7265 O.2       7 UNK        -0.5083 
     55 CA        -50.7582  -25.0535   11.4982 C.3       6 UNK         0.0844 
     56 C56       -51.5115  -24.1842   10.4603 C.3       14 UNK        -0.0967 
     57 S57       -51.9591  -25.0631    8.9280 S.3       14 UNK        -0.2604 
     58 C58       -53.1559  -26.2863    9.5423 C.3       14 UNK         0.0134 
     59 N         -49.6563  -25.8263   10.9241 N.am      6 UNK        -0.4116 
     60 C         -48.9852  -26.7970   11.5591 C.2       5 UNK         0.5034 
     61 O         -49.2343  -27.1752   12.7030 O.2       5 UNK        -0.5045 
     62 CA        -47.7932  -27.4094   10.8091 C.3       5 UNK         0.0224 
     63 CB        -48.2556  -28.5503    9.8920 C.3       5 UNK        -0.1978 
     64 N         -47.0526  -26.4052   10.0376 N.am      5 UNK        -0.4737 
     65 C         -46.3567  -25.4113   10.6125 C.2       4 UNK         0.5027 
     66 O         -46.2459  -25.2750   11.8309 O.2       4 UNK        -0.5211 
     67 CA        -45.7135  -24.3685    9.6870 C.3       4 UNK         0.0297 
     68 CB        -44.3747  -24.8867    9.1394 C.3       4 UNK        -0.1993 
     69 N         -46.5705  -23.9674    8.5719 N.am      4 UNK        -0.4486 
     70 C         -47.7908  -23.4246    8.6570 C.2       3 UNK         0.4961 
     71 O         -48.3509  -23.1898    9.7274 O.2       3 UNK        -0.5105 
     72 CA        -48.5288  -23.1040    7.3391 C.3       3 UNK         0.0299 
     73 CB        -48.2723  -21.6485    6.9058 C.3       3 UNK        -0.1972 
     74 N         -48.2734  -24.0505    6.2396 N.am      3 UNK        -0.4305 
     75 C         -47.1191  -24.3173    5.6049 C.2       2 UNK         0.5006 
     76 O         -46.0793  -23.6849    5.7968 O.2       2 UNK        -0.5106 
     77 CA        -47.0953  -25.5304    4.6494 C.3       2 UNK         0.0296 
     78 CB        -45.7046  -26.1986    4.5968 C.3       2 UNK        -0.2002 
     79 N         -48.1243  -26.5412    4.9298 N.am      2 UNK        -0.4032 
     80 C         -48.3567  -27.1922    6.0835 C.2       1 UNK         0.5000 
     81 O         -47.6924  -27.0221    7.1089 O.2       1 UNK        -0.5238 
     82 H82       -52.0871  -27.9783    2.9957 H         1 UNK         0.0889 
     83 H83       -51.9607  -26.2240    2.8427 H         1 UNK         0.0889 
     84 H84       -53.2157  -26.9340    3.8616 H         1 UNK         0.0889 
     85 H85       -50.5015  -28.8248    4.3375 H         1 UNK         0.3028 
     86 H86       -50.1090  -27.9284    7.0078 H         1 UNK         0.0864 
     87 H87       -48.3831  -29.8750    5.4021 H         1 UNK         0.0720 
     88 H88       -48.3863  -29.7075    7.1285 H         1 UNK         0.0720 
     89 H89       -52.5953  -31.1412    6.7893 H         1 UNK         0.0814 
     90 H90       -52.2140  -29.6583    5.9823 H         1 UNK         0.0814 
     91 H91       -52.8162  -27.8182    7.3465 H         1 UNK         0.1469 
     92 H92       -52.2316  -27.8778   11.5928 H         1 UNK         0.1381 
     93 H93       -51.1679  -31.2946    9.2372 H         1 UNK         0.1206 
     94 H94       -50.3972  -29.7960   12.2766 H         1 UNK         0.0813 
     95 H95       -50.7333  -31.3476   11.5518 H         1 UNK         0.0813 
     96 H96       -53.5073  -31.5827   11.0191 H         1 UNK         0.0638 
     97 H97       -53.6828  -32.6639   12.3625 H         1 UNK         0.0638 
     98 H98       -55.8182  -31.5931   11.5448 H         1 UNK         0.0568 
     99 H99       -56.4876  -30.8381   15.4414 H         1 UNK         0.3450 
    100 H100      -55.9349  -29.5871   14.3531 H         1 UNK         0.3450 
    101 H101      -54.4415  -29.1044   12.0934 H         1 UNK         0.2987 
    102 H102      -55.3720  -27.2866   10.9229 H         1 UNK         0.0766 
    103 H103      -57.3077  -25.8381   10.4158 H         1 UNK         0.0798 
    104 H104      -58.4212  -27.0313   11.0831 H         1 UNK         0.0798 
    105 H105      -57.4995  -27.3968    9.6311 H         1 UNK         0.0798 
    106 H106      -57.1756  -26.5018   13.1140 H         1 UNK         0.3198 
    107 H107      -56.1231  -25.1667   14.7702 H         1 UNK         0.0843 
    108 H108      -55.2130  -27.8258   16.0450 H         1 UNK         0.0831 
    109 H109      -56.8662  -27.4609   15.5613 H         1 UNK         0.0831 
    110 H110      -56.1196  -26.5591   16.8655 H         1 UNK         0.0831 
    111 H111      -53.3324  -25.7718   14.8040 H         1 UNK         0.3133 
    112 H112      -52.2779  -23.2931   15.9603 H         1 UNK         0.0566 
    113 H113      -51.2666  -23.3457   18.2585 H         1 UNK         0.0814 
    114 H114      -52.9151  -22.7421   18.2613 H         1 UNK         0.0814 
    115 H115      -52.5875  -24.3782   18.8067 H         1 UNK         0.0814 
    116 H116      -50.9763  -24.9696   15.4479 H         1 UNK         0.3091 
    117 H117      -50.0769  -28.0616   16.9269 H         1 UNK         0.0702 
    118 H118      -52.0339  -28.6836   15.4989 H         1 UNK         0.0785 
    119 H119      -51.5047  -27.5510   14.2635 H         1 UNK         0.0785 
    120 H120      -50.5102  -28.9483   14.6658 H         1 UNK         0.0785 
    121 H121      -49.2137  -26.7082   14.5449 H         1 UNK         0.2998 
    122 H122      -46.3970  -25.1274   16.1740 H         1 UNK         0.0697 
    123 H123      -46.7811  -27.3343   14.0815 H         1 UNK         0.0825 
    124 H124      -45.8655  -27.4939   15.5743 H         1 UNK         0.0825 
    125 H125      -45.3227  -26.3787   14.3301 H         1 UNK         0.0825 
    126 H126      -47.3107  -24.9719   13.4774 H         1 UNK         0.3029 
    127 H127      -49.2063  -21.9513   13.8635 H         1 UNK         0.0897 
    128 H128      -47.6511  -21.2751   12.0425 H         1 UNK         0.0792 
    129 H129      -46.5511  -22.5856   12.4631 H         1 UNK         0.0792 
    130 H130      -46.8219  -21.2649   13.5919 H         1 UNK         0.0792 
    131 H131      -48.7206  -23.5034   11.5507 H         1 UNK         0.3086 
    132 H132      -51.4689  -25.7685   11.9144 H         1 UNK         0.0583 
    133 H133      -52.4224  -23.7759   10.9028 H         1 UNK         0.1020 
    134 H134      -50.9146  -23.3188   10.1680 H         1 UNK         0.1020 
    135 H135      -53.4593  -26.0382   10.5599 H         1 UNK         0.0694 
    136 H136      -54.0590  -26.2307    8.9329 H         1 UNK         0.0694 
    137 H137      -49.3641  -25.5624    9.9951 H         1 UNK         0.2989 
    138 H138      -47.1122  -27.8280   11.5535 H         1 UNK         0.1055 
    139 H139      -48.6729  -29.3711   10.4751 H         1 UNK         0.0806 
    140 H140      -47.4275  -28.9558    9.3109 H         1 UNK         0.0806 
    141 H141      -49.0298  -28.2227    9.1977 H         1 UNK         0.0806 
    142 H142      -47.1148  -26.4586    9.0245 H         1 UNK         0.3061 
    143 H143      -45.5175  -23.4752   10.2833 H         1 UNK         0.0734 
    144 H144      -43.8596  -24.1205    8.5597 H         1 UNK         0.0832 
    145 H145      -43.7082  -25.1806    9.9516 H         1 UNK         0.0832 
    146 H146      -44.5117  -25.7577    8.4968 H         1 UNK         0.0832 
    147 H147      -46.1853  -24.0656    7.6366 H         1 UNK         0.3156 
    148 H148      -49.5942  -23.1970    7.5567 H         1 UNK         0.0589 
    149 H149      -47.2190  -21.4631    6.6935 H         1 UNK         0.0808 
    150 H150      -48.8449  -21.3934    6.0143 H         1 UNK         0.0808 
    151 H151      -48.5693  -20.9530    7.6920 H         1 UNK         0.0808 
    152 H152      -49.0591  -24.6483    6.0153 H         1 UNK         0.3098 
    153 H153      -47.3140  -25.1353    3.6564 H         1 UNK         0.0720 
    154 H154      -45.6955  -27.0425    3.9070 H         1 UNK         0.0791 
    155 H155      -45.3965  -26.5641    5.5772 H         1 UNK         0.0791 
    156 H156      -44.9416  -25.4977    4.2556 H         1 UNK         0.0791 
    157 H157      -48.7480  -26.7481    4.1623 H         1 UNK         0.3028 
@<TRIPOS>BOND
     1    1    2 1    
     2    1   82 1    
     3    1   83 1    
     4    1   84 1    
     5    2    3 2    
     6    2    4 am   BACKBONE|DICT|INTERRES
     7    4    5 1    
     8    4   85 1    
     9    5    6 1    
    10    5   80 1    
    11    5   86 1    
    12    6    7 1    
    13    6   87 1    
    14    6   88 1    
    15    7    8 1    
    16    8    9 1    
    17    8   89 1    
    18    8   90 1    
    19    9   10 ar   
    20    9   14 ar   
    21   10   11 ar   
    22   10   91 1    
    23   11   12 ar   
    24   11   58 1    
    25   12   13 ar   
    26   12   92 1    
    27   13   14 ar   
    28   13   15 1    
    29   14   93 1    
    30   15   16 1    
    31   15   94 1    
    32   15   95 1    
    33   16   17 1    
    34   17   18 1    
    35   17   96 1    
    36   17   97 1    
    37   18   19 1    
    38   18   22 1    
    39   18   98 1    
    40   19   20 am   BACKBONE|DICT|INTERRES
    41   19   21 2    
    42   20   99 1    
    43   20  100 1    
    44   22   23 am   BACKBONE|DICT|INTERRES
    45   22  101 1    
    46   23   24 2    
    47   23   25 1    
    48   25   26 1    
    49   25   27 1    
    50   25  102 1    
    51   26  103 1    
    52   26  104 1    
    53   26  105 1    
    54   27   28 am   BACKBONE|DICT|INTERRES
    55   27  106 1    
    56   28   29 2    
    57   28   30 1    
    58   30   31 1    
    59   30   32 1    
    60   30  107 1    
    61   31  108 1    
    62   31  109 1    
    63   31  110 1    
    64   32   33 am   BACKBONE|DICT|INTERRES
    65   32  111 1    
    66   33   34 2    
    67   33   35 1    
    68   35   36 1    
    69   35   37 1    
    70   35  112 1    
    71   36  113 1    
    72   36  114 1    
    73   36  115 1    
    74   37   38 am   BACKBONE|DICT|INTERRES
    75   37  116 1    
    76   38   39 2    
    77   38   40 1    
    78   40   41 1    
    79   40   42 1    
    80   40  117 1    
    81   41  118 1    
    82   41  119 1    
    83   41  120 1    
    84   42   43 am   BACKBONE|DICT|INTERRES
    85   42  121 1    
    86   43   44 2    
    87   43   45 1    
    88   45   46 1    
    89   45   47 1    
    90   45  122 1    
    91   46  123 1    
    92   46  124 1    
    93   46  125 1    
    94   47   48 am   BACKBONE|DICT|INTERRES
    95   47  126 1    
    96   48   49 2    
    97   48   50 1    
    98   50   51 1    
    99   50   52 1    
   100   50  127 1    
   101   51  128 1    
   102   51  129 1    
   103   51  130 1    
   104   52   53 am   BACKBONE|DICT|INTERRES
   105   52  131 1    
   106   53   54 2    
   107   53   55 1    
   108   55   56 1    
   109   55   59 1    
   110   55  132 1    
   111   56   57 1    
   112   56  133 1    
   113   56  134 1    
   114   57   58 1    
   115   58  135 1    
   116   58  136 1    
   117   59   60 am   BACKBONE|DICT|INTERRES
   118   59  137 1    
   119   60   61 2    
   120   60   62 1    
   121   62   63 1    
   122   62   64 1    
   123   62  138 1    
   124   63  139 1    
   125   63  140 1    
   126   63  141 1    
   127   64   65 am   BACKBONE|DICT|INTERRES
   128   64  142 1    
   129   65   66 2    
   130   65   67 1    
   131   67   68 1    
   132   67   69 1    
   133   67  143 1    
   134   68  144 1    
   135   68  145 1    
   136   68  146 1    
   137   69   70 am   BACKBONE|DICT|INTERRES
   138   69  147 1    
   139   70   71 2    
   140   70   72 1    
   141   72   73 1    
   142   72   74 1    
   143   72  148 1    
   144   73  149 1    
   145   73  150 1    
   146   73  151 1    
   147   74   75 am   BACKBONE|DICT|INTERRES
   148   74  152 1    
   149   75   76 2    
   150   75   77 1    
   151   77   78 1    
   152   77   79 1    
   153   77  153 1    
   154   78  154 1    
   155   78  155 1    
   156   78  156 1    
   157   79   80 am   BACKBONE|DICT|INTERRES
   158   79  157 1    
   159   80   81 2    
@<TRIPOS>SUBSTRUCTURE
     1 UNK         1 GROUP             0       ****    0 ROOT    
