@<TRIPOS>MOLECULE
3R207
157   159    1
SMALL
USER_CHARGES


@<TRIPOS>ATOM
      1 CA        -51.6184  -23.9547    3.8846 C.3       0 UNK        -0.1975 
      2 C         -50.6727  -24.7117    4.8042 C.2       0 UNK         0.4852 
      3 O         -49.4555  -24.6173    4.6401 O.2       0 UNK        -0.5216 
      4 N         -51.2209  -25.4367    5.7926 N.am      1 UNK        -0.4461 
      5 CA        -50.5108  -26.3283    6.7313 C.3       1 UNK         0.0864 
      6 C6        -49.8851  -27.5641    6.0217 C.3       14 UNK        -0.0898 
      7 S7        -51.1314  -28.5366    5.1062 S.3       14 UNK        -0.2598 
      8 C8        -51.3202  -30.0128    6.1584 C.3       14 UNK         0.0286 
      9 C9        -51.7057  -29.6639    7.5899 C.ar      14 UNK        -0.0844 
     10 C10       -50.8125  -29.9123    8.6355 C.ar      14 UNK        -0.0881 
     11 C11       -51.1520  -29.5902    9.9528 C.ar      14 UNK        -0.0643 
     12 C12       -52.4042  -29.0288   10.2153 C.ar      14 UNK        -0.0930 
     13 C13       -53.3157  -28.7752    9.1822 C.ar      14 UNK        -0.0827 
     14 C14       -52.9549  -29.1023    7.8712 C.ar      14 UNK        -0.1249 
     15 C15       -54.7108  -28.1981    9.4324 C.3       14 UNK         0.0141 
     16 S16       -54.9720  -27.4419   11.0773 S.3       14 UNK        -0.2313 
     17 C17       -56.7924  -27.2917   11.1085 C.3       14 UNK        -0.0915 
     18 CA        -57.5143  -28.3720   11.9606 C.3       13 UNK         0.0968 
     19 C         -57.3202  -29.8087   11.3859 C.2       13 UNK         0.5732 
     20 N         -56.6055  -30.7076   12.0553 N.am      13 UNK        -0.7310 
     21 O         -57.8394  -30.1122   10.3144 O.2       13 UNK        -0.5035 
     22 N         -57.2196  -28.2405   13.3967 N.am      13 UNK        -0.4233 
     23 C         -57.9406  -28.8352   14.3608 C.2       13 UNK         0.4989 
     24 O         -59.0205  -29.3898   14.1466 O.2       13 UNK        -0.4996 
     25 CA        -57.3789  -28.8273   15.8009 C.3       12 UNK         0.0216 
     26 CB        -57.7365  -30.1174   16.5695 C.3       12 UNK        -0.1964 
     27 N         -55.9362  -28.5692   15.8940 N.am      12 UNK        -0.4276 
     28 C         -54.9338  -29.2384   15.3036 C.2       12 UNK         0.5020 
     29 O         -55.1020  -30.2423   14.6078 O.2       12 UNK        -0.5489 
     30 CA        -53.5111  -28.6662   15.4941 C.3       11 UNK         0.0294 
     31 CB        -52.6327  -28.8731   14.2438 C.3       11 UNK        -0.2019 
     32 N         -53.4622  -27.2522   15.9017 N.am      11 UNK        -0.4493 
     33 C         -53.9940  -26.1922   15.2736 C.2       11 UNK         0.4932 
     34 O         -54.7130  -26.2738   14.2787 O.2       11 UNK        -0.5029 
     35 CA        -53.6940  -24.8047   15.8619 C.3       10 UNK         0.0280 
     36 CB        -54.6366  -24.4732   17.0356 C.3       10 UNK        -0.1976 
     37 N         -52.2810  -24.5980   16.2065 N.am      10 UNK        -0.4242 
     38 C         -51.5509  -25.1504   17.1890 C.2       10 UNK         0.5072 
     39 O         -52.0129  -25.9545   18.0009 O.2       10 UNK        -0.5224 
     40 CA        -50.0524  -24.7846   17.2584 C.3       9 UNK         0.0343 
     41 CB        -49.1908  -25.9913   17.6737 C.3       9 UNK        -0.2003 
     42 N         -49.5563  -24.2713   15.9797 N.am      9 UNK        -0.4272 
     43 C         -49.5205  -22.9779   15.6239 C.2       9 UNK         0.4988 
     44 O         -49.7970  -22.0524   16.3868 O.2       9 UNK        -0.5108 
     45 CA        -49.1689  -22.6588   14.1574 C.3       8 UNK         0.0248 
     46 CB        -47.7101  -22.1897   14.0419 C.3       8 UNK        -0.2001 
     47 N         -49.4090  -23.7900   13.2516 N.am      8 UNK        -0.4140 
     48 C         -50.6317  -24.2691   12.9634 C.2       8 UNK         0.5028 
     49 O         -51.6673  -23.7349   13.3603 O.2       8 UNK        -0.5428 
     50 CA        -50.7408  -25.5734   12.1489 C.3       7 UNK         0.0264 
     51 CB        -51.2562  -25.2869   10.7323 C.3       7 UNK        -0.1988 
     52 N         -49.4959  -26.3444   12.0729 N.am      7 UNK        -0.4454 
     53 C         -48.9155  -26.9496   13.1200 C.2       7 UNK         0.5027 
     54 O         -49.3630  -26.8941   14.2663 O.2       7 UNK        -0.5083 
     55 CA        -47.5878  -27.6958   12.8603 C.3       6 UNK         0.0844 
     56 C56       -47.8240  -29.1728   12.4563 C.3       14 UNK        -0.0967 
     57 S57       -48.4853  -29.3614   10.7622 S.3       14 UNK        -0.2604 
     58 C58       -50.1990  -29.8729   11.1090 C.3       14 UNK         0.0134 
     59 N         -46.6812  -27.0208   11.9240 N.am      6 UNK        -0.4116 
     60 C         -46.2650  -25.7508   11.9724 C.2       5 UNK         0.5034 
     61 O         -46.6717  -24.9344   12.7972 O.2       5 UNK        -0.5045 
     62 CA        -45.2332  -25.2908   10.9272 C.3       5 UNK         0.0224 
     63 CB        -43.8003  -25.4205   11.4780 C.3       5 UNK        -0.1978 
     64 N         -45.3544  -25.9100    9.5979 N.am      5 UNK        -0.4737 
     65 C         -45.1553  -27.1841    9.2225 C.2       4 UNK         0.5027 
     66 O         -44.8452  -28.0790   10.0087 O.2       4 UNK        -0.5211 
     67 CA        -45.3619  -27.5344    7.7353 C.3       4 UNK         0.0297 
     68 CB        -46.3224  -28.7268    7.5772 C.3       4 UNK        -0.1993 
     69 N         -45.8879  -26.3988    6.9741 N.am      4 UNK        -0.4486 
     70 C         -45.1466  -25.5378    6.2608 C.2       3 UNK         0.4961 
     71 O         -43.9344  -25.6628    6.0866 O.2       3 UNK        -0.5105 
     72 CA        -45.8631  -24.3127    5.6563 C.3       3 UNK         0.0299 
     73 CB        -46.1760  -24.5579    4.1720 C.3       3 UNK        -0.1972 
     74 N         -47.0979  -23.9481    6.3588 N.am      3 UNK        -0.4305 
     75 C         -47.1517  -23.5090    7.6278 C.2       2 UNK         0.5006 
     76 O         -46.1515  -23.2693    8.3031 O.2       2 UNK        -0.5106 
     77 CA        -48.5385  -23.3871    8.2905 C.3       2 UNK         0.0296 
     78 CB        -49.0320  -21.9328    8.2567 C.3       2 UNK        -0.2002 
     79 N         -49.5511  -24.2592    7.6889 N.am      2 UNK        -0.4032 
     80 C         -49.4742  -25.5974    7.6188 C.2       1 UNK         0.5000 
     81 O         -48.5937  -26.2393    8.1932 O.2       1 UNK        -0.5238 
     82 H82       -52.6626  -24.1089    4.1556 H         1 UNK         0.0889 
     83 H83       -51.4824  -24.2868    2.8558 H         1 UNK         0.0889 
     84 H84       -51.4092  -22.8862    3.9283 H         1 UNK         0.0889 
     85 H85       -52.2281  -25.4551    5.8760 H         1 UNK         0.3028 
     86 H86       -51.2652  -26.6962    7.4282 H         1 UNK         0.0864 
     87 H87       -49.1101  -27.2534    5.3191 H         1 UNK         0.0720 
     88 H88       -49.3888  -28.2195    6.7387 H         1 UNK         0.0720 
     89 H89       -50.3915  -30.5852    6.1332 H         1 UNK         0.0814 
     90 H90       -52.0874  -30.6579    5.7281 H         1 UNK         0.0814 
     91 H91       -49.8484  -30.3548    8.4258 H         1 UNK         0.1469 
     92 H92       -52.6662  -28.8050   11.2366 H         1 UNK         0.1381 
     93 H93       -53.6486  -28.9202    7.0614 H         1 UNK         0.1206 
     94 H94       -55.4321  -29.0029    9.2893 H         1 UNK         0.0813 
     95 H95       -54.9318  -27.4449    8.6746 H         1 UNK         0.0813 
     96 H96       -57.1738  -27.3000   10.0859 H         1 UNK         0.0638 
     97 H97       -57.0340  -26.3019   11.4984 H         1 UNK         0.0638 
     98 H98       -58.5817  -28.1694   11.8541 H         1 UNK         0.0568 
     99 H99       -56.4945  -31.6316   11.6712 H         1 UNK         0.3450 
    100 H100      -56.1526  -30.4687   12.9324 H         1 UNK         0.3450 
    101 H101      -56.3427  -27.7930   13.6337 H         1 UNK         0.2987 
    102 H102      -57.8690  -27.9937   16.3058 H         1 UNK         0.0766 
    103 H103      -57.3545  -30.0905   17.5900 H         1 UNK         0.0798 
    104 H104      -57.3272  -31.0028   16.0817 H         1 UNK         0.0798 
    105 H105      -58.8168  -30.2522   16.6354 H         1 UNK         0.0798 
    106 H106      -55.6766  -27.7444   16.4167 H         1 UNK         0.3198 
    107 H107      -53.0673  -29.2372   16.3109 H         1 UNK         0.0843 
    108 H108      -53.0290  -28.3211   13.3927 H         1 UNK         0.0831 
    109 H109      -52.5800  -29.9247   13.9595 H         1 UNK         0.0831 
    110 H110      -51.6116  -28.5334   14.4165 H         1 UNK         0.0831 
    111 H111      -52.9222  -27.0483   16.7408 H         1 UNK         0.3133 
    112 H112      -53.9015  -24.0832   15.0700 H         1 UNK         0.0566 
    113 H113      -54.5212  -25.1671   17.8684 H         1 UNK         0.0814 
    114 H114      -54.4596  -23.4659   17.4123 H         1 UNK         0.0814 
    115 H115      -55.6794  -24.5211   16.7189 H         1 UNK         0.0814 
    116 H116      -51.7891  -24.0106   15.5436 H         1 UNK         0.3091 
    117 H117      -49.9467  -24.0177   18.0282 H         1 UNK         0.0702 
    118 H118      -48.1325  -25.7315   17.7048 H         1 UNK         0.0785 
    119 H119      -49.3108  -26.8285   16.9850 H         1 UNK         0.0785 
    120 H120      -49.4637  -26.3459   18.6685 H         1 UNK         0.0785 
    121 H121      -49.3373  -24.9748   15.2826 H         1 UNK         0.2998 
    122 H122      -49.8122  -21.8362   13.8375 H         1 UNK         0.0697 
    123 H123      -47.0145  -22.9306   14.4373 H         1 UNK         0.0825 
    124 H124      -47.5539  -21.2693   14.6060 H         1 UNK         0.0825 
    125 H125      -47.4349  -21.9869   13.0068 H         1 UNK         0.0825 
    126 H126      -48.5864  -24.2864   12.9227 H         1 UNK         0.3029 
    127 H127      -51.4812  -26.1999   12.6523 H         1 UNK         0.0897 
    128 H128      -52.2527  -24.8441   10.7659 H         1 UNK         0.0792 
    129 H129      -51.3294  -26.1991   10.1395 H         1 UNK         0.0792 
    130 H130      -50.6077  -24.5854   10.2103 H         1 UNK         0.0792 
    131 H131      -49.0670  -26.4467   11.1627 H         1 UNK         0.3086 
    132 H132      -47.0622  -27.7068   13.8173 H         1 UNK         0.0583 
    133 H133      -46.8763  -29.7122   12.4986 H         1 UNK         0.1020 
    134 H134      -48.4701  -29.6760   13.1785 H         1 UNK         0.1020 
    135 H135      -50.2159  -30.9396   11.3358 H         1 UNK         0.0694 
    136 H136      -50.5450  -29.3570   12.0058 H         1 UNK         0.0694 
    137 H137      -46.2582  -27.6095   11.2123 H         1 UNK         0.2989 
    138 H138      -45.4233  -24.2277   10.7695 H         1 UNK         0.1055 
    139 H139      -43.6921  -24.8681   12.4125 H         1 UNK         0.0806 
    140 H140      -43.0689  -25.0172   10.7777 H         1 UNK         0.0806 
    141 H141      -43.5326  -26.4573   11.6836 H         1 UNK         0.0806 
    142 H142      -45.6243  -25.2579    8.8705 H         1 UNK         0.3061 
    143 H143      -44.3897  -27.8314    7.3369 H         1 UNK         0.0734 
    144 H144      -46.4881  -28.9698    6.5277 H         1 UNK         0.0832 
    145 H145      -45.9196  -29.6200    8.0564 H         1 UNK         0.0832 
    146 H146      -47.2920  -28.5281    8.0336 H         1 UNK         0.0832 
    147 H147      -46.8753  -26.2078    7.1134 H         1 UNK         0.3156 
    148 H148      -45.1786  -23.4647    5.7251 H         1 UNK         0.0589 
    149 H149      -46.8543  -25.4017    4.0375 H         1 UNK         0.0808 
    150 H150      -46.6362  -23.6829    3.7125 H         1 UNK         0.0808 
    151 H151      -45.2663  -24.7779    3.6115 H         1 UNK         0.0808 
    152 H152      -47.9656  -24.1214    5.8568 H         1 UNK         0.3098 
    153 H153      -48.4232  -23.6862    9.3345 H         1 UNK         0.0720 
    154 H154      -49.9697  -21.8190    8.8012 H         1 UNK         0.0791 
    155 H155      -49.1897  -21.5831    7.2356 H         1 UNK         0.0791 
    156 H156      -48.3064  -21.2641    8.7223 H         1 UNK         0.0791 
    157 H157      -50.2987  -23.8064    7.1834 H         1 UNK         0.3028 
@<TRIPOS>BOND
     1    1    2 1    
     2    1   82 1    
     3    1   83 1    
     4    1   84 1    
     5    2    3 2    
     6    2    4 am   BACKBONE|DICT|INTERRES
     7    4    5 1    
     8    4   85 1    
     9    5    6 1    
    10    5   80 1    
    11    5   86 1    
    12    6    7 1    
    13    6   87 1    
    14    6   88 1    
    15    7    8 1    
    16    8    9 1    
    17    8   89 1    
    18    8   90 1    
    19    9   10 ar   
    20    9   14 ar   
    21   10   11 ar   
    22   10   91 1    
    23   11   12 ar   
    24   11   58 1    
    25   12   13 ar   
    26   12   92 1    
    27   13   14 ar   
    28   13   15 1    
    29   14   93 1    
    30   15   16 1    
    31   15   94 1    
    32   15   95 1    
    33   16   17 1    
    34   17   18 1    
    35   17   96 1    
    36   17   97 1    
    37   18   19 1    
    38   18   22 1    
    39   18   98 1    
    40   19   20 am   BACKBONE|DICT|INTERRES
    41   19   21 2    
    42   20   99 1    
    43   20  100 1    
    44   22   23 am   BACKBONE|DICT|INTERRES
    45   22  101 1    
    46   23   24 2    
    47   23   25 1    
    48   25   26 1    
    49   25   27 1    
    50   25  102 1    
    51   26  103 1    
    52   26  104 1    
    53   26  105 1    
    54   27   28 am   BACKBONE|DICT|INTERRES
    55   27  106 1    
    56   28   29 2    
    57   28   30 1    
    58   30   31 1    
    59   30   32 1    
    60   30  107 1    
    61   31  108 1    
    62   31  109 1    
    63   31  110 1    
    64   32   33 am   BACKBONE|DICT|INTERRES
    65   32  111 1    
    66   33   34 2    
    67   33   35 1    
    68   35   36 1    
    69   35   37 1    
    70   35  112 1    
    71   36  113 1    
    72   36  114 1    
    73   36  115 1    
    74   37   38 am   BACKBONE|DICT|INTERRES
    75   37  116 1    
    76   38   39 2    
    77   38   40 1    
    78   40   41 1    
    79   40   42 1    
    80   40  117 1    
    81   41  118 1    
    82   41  119 1    
    83   41  120 1    
    84   42   43 am   BACKBONE|DICT|INTERRES
    85   42  121 1    
    86   43   44 2    
    87   43   45 1    
    88   45   46 1    
    89   45   47 1    
    90   45  122 1    
    91   46  123 1    
    92   46  124 1    
    93   46  125 1    
    94   47   48 am   BACKBONE|DICT|INTERRES
    95   47  126 1    
    96   48   49 2    
    97   48   50 1    
    98   50   51 1    
    99   50   52 1    
   100   50  127 1    
   101   51  128 1    
   102   51  129 1    
   103   51  130 1    
   104   52   53 am   BACKBONE|DICT|INTERRES
   105   52  131 1    
   106   53   54 2    
   107   53   55 1    
   108   55   56 1    
   109   55   59 1    
   110   55  132 1    
   111   56   57 1    
   112   56  133 1    
   113   56  134 1    
   114   57   58 1    
   115   58  135 1    
   116   58  136 1    
   117   59   60 am   BACKBONE|DICT|INTERRES
   118   59  137 1    
   119   60   61 2    
   120   60   62 1    
   121   62   63 1    
   122   62   64 1    
   123   62  138 1    
   124   63  139 1    
   125   63  140 1    
   126   63  141 1    
   127   64   65 am   BACKBONE|DICT|INTERRES
   128   64  142 1    
   129   65   66 2    
   130   65   67 1    
   131   67   68 1    
   132   67   69 1    
   133   67  143 1    
   134   68  144 1    
   135   68  145 1    
   136   68  146 1    
   137   69   70 am   BACKBONE|DICT|INTERRES
   138   69  147 1    
   139   70   71 2    
   140   70   72 1    
   141   72   73 1    
   142   72   74 1    
   143   72  148 1    
   144   73  149 1    
   145   73  150 1    
   146   73  151 1    
   147   74   75 am   BACKBONE|DICT|INTERRES
   148   74  152 1    
   149   75   76 2    
   150   75   77 1    
   151   77   78 1    
   152   77   79 1    
   153   77  153 1    
   154   78  154 1    
   155   78  155 1    
   156   78  156 1    
   157   79   80 am   BACKBONE|DICT|INTERRES
   158   79  157 1    
   159   80   81 2    
@<TRIPOS>SUBSTRUCTURE
     1 UNK         1 GROUP             0       ****    0 ROOT    
