@<TRIPOS>MOLECULE
3R207
157   159    1
SMALL
USER_CHARGES


@<TRIPOS>ATOM
      1 CA        -47.7118  -28.4641    1.8445 C.3       0 UNK        -0.1975 
      2 C         -46.8453  -29.4138    2.6688 C.2       0 UNK         0.4852 
      3 O         -45.8095  -29.8575    2.1764 O.2       0 UNK        -0.5216 
      4 N         -47.2138  -29.7691    3.9098 N.am      1 UNK        -0.4461 
      5 CA        -48.3742  -29.2946    4.6766 C.3       1 UNK         0.0864 
      6 C6        -48.5887  -30.1732    5.9344 C.3       14 UNK        -0.0898 
      7 S7        -50.2784  -30.0556    6.6039 S.3       14 UNK        -0.2598 
      8 C8        -49.9396  -29.1457    8.1369 C.3       14 UNK         0.0286 
      9 C9        -51.2168  -28.6385    8.7769 C.ar      14 UNK        -0.0844 
     10 C10       -51.7798  -27.4443    8.3262 C.ar      14 UNK        -0.0881 
     11 C11       -52.9073  -26.9121    8.9548 C.ar      14 UNK        -0.0643 
     12 C12       -53.5015  -27.6075   10.0112 C.ar      14 UNK        -0.0930 
     13 C13       -52.9497  -28.8088   10.4654 C.ar      14 UNK        -0.0827 
     14 C14       -51.8068  -29.3223    9.8434 C.ar      14 UNK        -0.1249 
     15 C15       -53.5623  -29.5281   11.6546 C.3       14 UNK         0.0141 
     16 S16       -55.0696  -30.4244   11.1834 S.3       14 UNK        -0.2313 
     17 C17       -55.3154  -31.4826   12.6467 C.3       14 UNK        -0.0915 
     18 CA        -56.4871  -31.0177   13.5491 C.3       13 UNK         0.0968 
     19 C         -56.8346  -32.1238   14.5907 C.2       13 UNK         0.5732 
     20 N         -56.5746  -31.9347   15.8794 N.am      13 UNK        -0.7310 
     21 O         -57.3555  -33.1730   14.2192 O.2       13 UNK        -0.5035 
     22 N         -56.2474  -29.6822   14.1281 N.am      13 UNK        -0.4233 
     23 C         -57.1977  -28.9368   14.7079 C.2       13 UNK         0.4989 
     24 O         -58.3896  -29.2463   14.7399 O.2       13 UNK        -0.4996 
     25 CA        -56.7469  -27.6398   15.3951 C.3       12 UNK         0.0216 
     26 CB        -56.2433  -27.9311   16.8184 C.3       12 UNK        -0.1964 
     27 N         -55.7236  -26.8950   14.6565 N.am      12 UNK        -0.4276 
     28 C         -55.9820  -26.1491   13.5700 C.2       12 UNK         0.5020 
     29 O         -57.0687  -26.1661   12.9887 O.2       12 UNK        -0.5489 
     30 CA        -54.8707  -25.2017   13.0559 C.3       11 UNK         0.0294 
     31 CB        -55.4451  -23.9135   12.4316 C.3       11 UNK        -0.2019 
     32 N         -53.8465  -24.8663   14.0517 N.am      11 UNK        -0.4493 
     33 C         -54.0135  -24.3286   15.2703 C.2       11 UNK         0.4932 
     34 O         -55.0908  -23.9061   15.6930 O.2       11 UNK        -0.5029 
     35 CA        -52.7706  -24.3092   16.1875 C.3       10 UNK         0.0280 
     36 CB        -53.1447  -24.3488   17.6838 C.3       10 UNK        -0.1976 
     37 N         -51.7922  -25.3648   15.8828 N.am      10 UNK        -0.4242 
     38 C         -52.0051  -26.6911   15.8288 C.2       10 UNK         0.5072 
     39 O         -53.0974  -27.2111   16.0648 O.2       10 UNK        -0.5224 
     40 CA        -50.8437  -27.5978   15.3737 C.3       9 UNK         0.0343 
     41 CB        -51.2496  -28.3994   14.1252 C.3       9 UNK        -0.2003 
     42 N         -49.6088  -26.8683   15.0775 N.am      9 UNK        -0.4272 
     43 C         -48.7183  -26.4627   15.9925 C.2       9 UNK         0.4988 
     44 O         -48.8060  -26.7164   17.1941 O.2       9 UNK        -0.5108 
     45 CA        -47.5527  -25.5926   15.4878 C.3       8 UNK         0.0248 
     46 CB        -46.4084  -26.4750   14.9655 C.3       8 UNK        -0.2001 
     47 N         -47.9503  -24.6268   14.4556 N.am      8 UNK        -0.4140 
     48 C         -48.8512  -23.6489   14.6386 C.2       8 UNK         0.5028 
     49 O         -49.4278  -23.4429   15.7065 O.2       8 UNK        -0.5428 
     50 CA        -49.2150  -22.7848   13.4206 C.3       7 UNK         0.0264 
     51 CB        -48.1314  -21.7295   13.1487 C.3       7 UNK        -0.1988 
     52 N         -49.4550  -23.5721   12.2106 N.am      7 UNK        -0.4454 
     53 C         -50.4187  -24.4952   12.0716 C.2       7 UNK         0.5027 
     54 O         -51.2331  -24.7786   12.9505 O.2       7 UNK        -0.5083 
     55 CA        -50.4391  -25.2745   10.7420 C.3       6 UNK         0.0844 
     56 C56       -51.0317  -24.4216    9.5865 C.3       14 UNK        -0.0967 
     57 S57       -52.8501  -24.2546    9.6877 S.3       14 UNK        -0.2604 
     58 C58       -53.4301  -25.5474    8.5417 C.3       14 UNK         0.0134 
     59 N         -49.1167  -25.8273   10.4201 N.am      6 UNK        -0.4116 
     60 C         -48.4230  -26.6634   11.2107 C.2       5 UNK         0.5034 
     61 O         -48.8604  -27.1484   12.2533 O.2       5 UNK        -0.5045 
     62 CA        -46.9625  -26.9472   10.8228 C.3       5 UNK         0.0224 
     63 CB        -46.8417  -28.1343    9.8549 C.3       5 UNK        -0.1978 
     64 N         -46.3059  -25.7662   10.2600 N.am      5 UNK        -0.4737 
     65 C         -45.9653  -24.6871   10.9793 C.2       4 UNK         0.5027 
     66 O         -46.1091  -24.6065   12.1986 O.2       4 UNK        -0.5211 
     67 CA        -45.4242  -23.4777   10.1982 C.3       4 UNK         0.0297 
     68 CB        -43.9240  -23.6456    9.9108 C.3       4 UNK        -0.1993 
     69 N         -46.1464  -23.2562    8.9423 N.am      4 UNK        -0.4486 
     70 C         -47.4436  -22.9254    8.8643 C.2       3 UNK         0.4961 
     71 O         -48.1444  -22.6874    9.8465 O.2       3 UNK        -0.5105 
     72 CA        -48.0831  -22.9052    7.4642 C.3       3 UNK         0.0299 
     73 CB        -48.0214  -21.4908    6.8674 C.3       3 UNK        -0.1972 
     74 N         -47.4784  -23.8608    6.5299 N.am      3 UNK        -0.4305 
     75 C         -47.4801  -25.1930    6.6814 C.2       2 UNK         0.5006 
     76 O         -48.0106  -25.7753    7.6304 O.2       2 UNK        -0.5106 
     77 CA        -46.6576  -25.9765    5.6435 C.3       2 UNK         0.0296 
     78 CB        -45.1705  -25.9601    6.0387 C.3       2 UNK        -0.2002 
     79 N         -47.0692  -27.3702    5.4569 N.am      2 UNK        -0.4032 
     80 C         -48.2627  -27.7883    5.0103 C.2       1 UNK         0.5000 
     81 O         -49.2115  -27.0398    4.7709 O.2       1 UNK        -0.5238 
     82 H82       -48.7715  -28.6991    1.9319 H         1 UNK         0.0889 
     83 H83       -47.4511  -28.5359    0.7888 H         1 UNK         0.0889 
     84 H84       -47.5526  -27.4321    2.1555 H         1 UNK         0.0889 
     85 H85       -46.6174  -30.4200    4.4009 H         1 UNK         0.3028 
     86 H86       -49.2515  -29.4228    4.0396 H         1 UNK         0.0864 
     87 H87       -48.4397  -31.2236    5.6783 H         1 UNK         0.0720 
     88 H88       -47.8491  -29.9538    6.7071 H         1 UNK         0.0720 
     89 H89       -49.2956  -28.2941    7.9146 H         1 UNK         0.0814 
     90 H90       -49.3890  -29.7852    8.8283 H         1 UNK         0.0814 
     91 H91       -51.3098  -26.9094    7.5116 H         1 UNK         0.1469 
     92 H92       -54.3773  -27.2006   10.4959 H         1 UNK         0.1381 
     93 H93       -51.3665  -30.2438   10.1991 H         1 UNK         0.1206 
     94 H94       -52.8380  -30.2240   12.0807 H         1 UNK         0.0813 
     95 H95       -53.8013  -28.8069   12.4370 H         1 UNK         0.0813 
     96 H96       -54.3920  -31.5513   13.2243 H         1 UNK         0.0638 
     97 H97       -55.5035  -32.4891   12.2676 H         1 UNK         0.0638 
     98 H98       -57.3699  -30.9319   12.9124 H         1 UNK         0.0568 
     99 H99       -56.1440  -31.0828   16.1980 H         1 UNK         0.3450 
    100 H100      -56.8095  -32.6593   16.5392 H         1 UNK         0.3450 
    101 H101      -55.2925  -29.3618   14.1540 H         1 UNK         0.2987 
    102 H102      -57.6264  -26.9978   15.4842 H         1 UNK         0.0766 
    103 H103      -55.3561  -28.5653   16.8143 H         1 UNK         0.0798 
    104 H104      -55.9900  -27.0097   17.3437 H         1 UNK         0.0798 
    105 H105      -57.0073  -28.4402   17.4076 H         1 UNK         0.0798 
    106 H106      -54.8019  -26.8436   15.0834 H         1 UNK         0.3198 
    107 H107      -54.3462  -25.7439   12.2698 H         1 UNK         0.0843 
    108 H108      -56.0826  -24.1418   11.5767 H         1 UNK         0.0831 
    109 H109      -54.6508  -23.2587   12.0733 H         1 UNK         0.0831 
    110 H110      -56.0461  -23.3522   13.1476 H         1 UNK         0.0831 
    111 H111      -52.8891  -25.0800   13.7750 H         1 UNK         0.3133 
    112 H112      -52.2652  -23.3624   15.9932 H         1 UNK         0.0566 
    113 H113      -52.2564  -24.3192   18.3147 H         1 UNK         0.0814 
    114 H114      -53.7630  -23.4932   17.9579 H         1 UNK         0.0814 
    115 H115      -53.7054  -25.2500   17.9348 H         1 UNK         0.0814 
    116 H116      -50.8684  -25.0245   15.6403 H         1 UNK         0.3091 
    117 H117      -50.6505  -28.3052   16.1826 H         1 UNK         0.0702 
    118 H118      -50.4471  -29.0618   13.8000 H         1 UNK         0.0785 
    119 H119      -51.4972  -27.7429   13.2894 H         1 UNK         0.0785 
    120 H120      -52.1204  -29.0238   14.3271 H         1 UNK         0.0785 
    121 H121      -49.4294  -26.6694   14.0969 H         1 UNK         0.2998 
    122 H122      -47.1773  -25.0205   16.3387 H         1 UNK         0.0697 
    123 H123      -46.7225  -27.0778   14.1137 H         1 UNK         0.0825 
    124 H124      -46.0610  -27.1610   15.7392 H         1 UNK         0.0825 
    125 H125      -45.5523  -25.8753   14.6557 H         1 UNK         0.0825 
    126 H126      -47.4756  -24.6938   13.5581 H         1 UNK         0.3029 
    127 H127      -50.1447  -22.2625   13.6565 H         1 UNK         0.0897 
    128 H128      -48.4233  -21.0630   12.3367 H         1 UNK         0.0792 
    129 H129      -47.9587  -21.1111   14.0305 H         1 UNK         0.0792 
    130 H130      -47.1791  -22.1860   12.8778 H         1 UNK         0.0792 
    131 H131      -48.8576  -23.3700   11.4106 H         1 UNK         0.3086 
    132 H132      -51.0852  -26.1398   10.8979 H         1 UNK         0.0583 
    133 H133      -50.6051  -23.4183    9.5753 H         1 UNK         0.1020 
    134 H134      -50.7712  -24.8527    8.6197 H         1 UNK         0.1020 
    135 H135      -54.5210  -25.5559    8.5344 H         1 UNK         0.0694 
    136 H136      -53.1154  -25.3012    7.5263 H         1 UNK         0.0694 
    137 H137      -48.6885  -25.5291    9.5509 H         1 UNK         0.2989 
    138 H138      -46.4360  -27.2195   11.7399 H         1 UNK         0.1055 
    139 H139      -47.3779  -29.0047   10.2357 H         1 UNK         0.0806 
    140 H140      -45.8003  -28.4292    9.7257 H         1 UNK         0.0806 
    141 H141      -47.2422  -27.9041    8.8698 H         1 UNK         0.0806 
    142 H142      -46.2128  -25.7320    9.2551 H         1 UNK         0.3061 
    143 H143      -45.5567  -22.5922   10.8237 H         1 UNK         0.0734 
    144 H144      -43.3662  -23.7968   10.8362 H         1 UNK         0.0832 
    145 H145      -43.7257  -24.5041    9.2677 H         1 UNK         0.0832 
    146 H146      -43.5107  -22.7602    9.4274 H         1 UNK         0.0832 
    147 H147      -45.6383  -23.4121    8.0846 H         1 UNK         0.3156 
    148 H148      -49.1335  -23.1784    7.5778 H         1 UNK         0.0589 
    149 H149      -46.9939  -21.1643    6.7016 H         1 UNK         0.0808 
    150 H150      -48.5498  -21.4375    5.9154 H         1 UNK         0.0808 
    151 H151      -48.4894  -20.7659    7.5354 H         1 UNK         0.0808 
    152 H152      -47.0095  -23.4666    5.7263 H         1 UNK         0.3098 
    153 H153      -46.7685  -25.4778    4.6783 H         1 UNK         0.0720 
    154 H154      -44.5541  -26.4494    5.2840 H         1 UNK         0.0791 
    155 H155      -45.0001  -26.4674    6.9895 H         1 UNK         0.0791 
    156 H156      -44.7957  -24.9408    6.1406 H         1 UNK         0.0791 
    157 H157      -46.3566  -28.0670    5.6146 H         1 UNK         0.3028 
@<TRIPOS>BOND
     1    1    2 1    
     2    1   82 1    
     3    1   83 1    
     4    1   84 1    
     5    2    3 2    
     6    2    4 am   BACKBONE|DICT|INTERRES
     7    4    5 1    
     8    4   85 1    
     9    5    6 1    
    10    5   80 1    
    11    5   86 1    
    12    6    7 1    
    13    6   87 1    
    14    6   88 1    
    15    7    8 1    
    16    8    9 1    
    17    8   89 1    
    18    8   90 1    
    19    9   10 ar   
    20    9   14 ar   
    21   10   11 ar   
    22   10   91 1    
    23   11   12 ar   
    24   11   58 1    
    25   12   13 ar   
    26   12   92 1    
    27   13   14 ar   
    28   13   15 1    
    29   14   93 1    
    30   15   16 1    
    31   15   94 1    
    32   15   95 1    
    33   16   17 1    
    34   17   18 1    
    35   17   96 1    
    36   17   97 1    
    37   18   19 1    
    38   18   22 1    
    39   18   98 1    
    40   19   20 am   BACKBONE|DICT|INTERRES
    41   19   21 2    
    42   20   99 1    
    43   20  100 1    
    44   22   23 am   BACKBONE|DICT|INTERRES
    45   22  101 1    
    46   23   24 2    
    47   23   25 1    
    48   25   26 1    
    49   25   27 1    
    50   25  102 1    
    51   26  103 1    
    52   26  104 1    
    53   26  105 1    
    54   27   28 am   BACKBONE|DICT|INTERRES
    55   27  106 1    
    56   28   29 2    
    57   28   30 1    
    58   30   31 1    
    59   30   32 1    
    60   30  107 1    
    61   31  108 1    
    62   31  109 1    
    63   31  110 1    
    64   32   33 am   BACKBONE|DICT|INTERRES
    65   32  111 1    
    66   33   34 2    
    67   33   35 1    
    68   35   36 1    
    69   35   37 1    
    70   35  112 1    
    71   36  113 1    
    72   36  114 1    
    73   36  115 1    
    74   37   38 am   BACKBONE|DICT|INTERRES
    75   37  116 1    
    76   38   39 2    
    77   38   40 1    
    78   40   41 1    
    79   40   42 1    
    80   40  117 1    
    81   41  118 1    
    82   41  119 1    
    83   41  120 1    
    84   42   43 am   BACKBONE|DICT|INTERRES
    85   42  121 1    
    86   43   44 2    
    87   43   45 1    
    88   45   46 1    
    89   45   47 1    
    90   45  122 1    
    91   46  123 1    
    92   46  124 1    
    93   46  125 1    
    94   47   48 am   BACKBONE|DICT|INTERRES
    95   47  126 1    
    96   48   49 2    
    97   48   50 1    
    98   50   51 1    
    99   50   52 1    
   100   50  127 1    
   101   51  128 1    
   102   51  129 1    
   103   51  130 1    
   104   52   53 am   BACKBONE|DICT|INTERRES
   105   52  131 1    
   106   53   54 2    
   107   53   55 1    
   108   55   56 1    
   109   55   59 1    
   110   55  132 1    
   111   56   57 1    
   112   56  133 1    
   113   56  134 1    
   114   57   58 1    
   115   58  135 1    
   116   58  136 1    
   117   59   60 am   BACKBONE|DICT|INTERRES
   118   59  137 1    
   119   60   61 2    
   120   60   62 1    
   121   62   63 1    
   122   62   64 1    
   123   62  138 1    
   124   63  139 1    
   125   63  140 1    
   126   63  141 1    
   127   64   65 am   BACKBONE|DICT|INTERRES
   128   64  142 1    
   129   65   66 2    
   130   65   67 1    
   131   67   68 1    
   132   67   69 1    
   133   67  143 1    
   134   68  144 1    
   135   68  145 1    
   136   68  146 1    
   137   69   70 am   BACKBONE|DICT|INTERRES
   138   69  147 1    
   139   70   71 2    
   140   70   72 1    
   141   72   73 1    
   142   72   74 1    
   143   72  148 1    
   144   73  149 1    
   145   73  150 1    
   146   73  151 1    
   147   74   75 am   BACKBONE|DICT|INTERRES
   148   74  152 1    
   149   75   76 2    
   150   75   77 1    
   151   77   78 1    
   152   77   79 1    
   153   77  153 1    
   154   78  154 1    
   155   78  155 1    
   156   78  156 1    
   157   79   80 am   BACKBONE|DICT|INTERRES
   158   79  157 1    
   159   80   81 2    
@<TRIPOS>SUBSTRUCTURE
     1 UNK         1 GROUP             0       ****    0 ROOT    
