@<TRIPOS>MOLECULE
3R207
157   159    1
SMALL
USER_CHARGES


@<TRIPOS>ATOM
      1 CA        -47.3807  -30.3743   11.5552 C.3       0 UNK        -0.1975 
      2 C         -47.3008  -29.9129   10.1069 C.2       0 UNK         0.4852 
      3 O         -46.2845  -29.3507    9.6971 O.2       0 UNK        -0.5216 
      4 N         -48.3633  -30.1556    9.3283 N.am      1 UNK        -0.4461 
      5 CA        -48.5179  -29.6940    7.9469 C.3       1 UNK         0.0864 
      6 C6        -49.6405  -30.4656    7.2034 C.3       14 UNK        -0.0898 
      7 S7        -51.3012  -30.3009    7.9493 S.3       14 UNK        -0.2598 
      8 C8        -52.1542  -29.1768    6.7882 C.3       14 UNK         0.0286 
      9 C9        -52.8152  -27.9937    7.4891 C.ar      14 UNK        -0.0844 
     10 C10       -52.5689  -26.6880    7.0500 C.ar      14 UNK        -0.0881 
     11 C11       -53.2004  -25.6009    7.6621 C.ar      14 UNK        -0.0643 
     12 C12       -54.0750  -25.8281    8.7295 C.ar      14 UNK        -0.0930 
     13 C13       -54.3409  -27.1256    9.1796 C.ar      14 UNK        -0.0827 
     14 C14       -53.7077  -28.2027    8.5468 C.ar      14 UNK        -0.1249 
     15 C15       -55.2921  -27.3161   10.3633 C.3       14 UNK         0.0141 
     16 S16       -56.3503  -28.7997   10.2813 S.3       14 UNK        -0.2313 
     17 C17       -55.2876  -30.0564   11.0722 C.3       14 UNK        -0.0915 
     18 CA        -55.8005  -30.4901   12.4720 C.3       13 UNK         0.0968 
     19 C         -55.0889  -31.7795   12.9826 C.2       13 UNK         0.5732 
     20 N         -54.6523  -31.8651   14.2344 N.am      13 UNK        -0.7310 
     21 O         -54.9446  -32.7413   12.2314 O.2       13 UNK        -0.5035 
     22 N         -55.7540  -29.3797   13.4384 N.am      13 UNK        -0.4233 
     23 C         -56.6939  -29.1383   14.3609 C.2       13 UNK         0.4989 
     24 O         -57.7531  -29.7648   14.4385 O.2       13 UNK        -0.4996 
     25 CA        -56.3884  -28.0190   15.3787 C.3       12 UNK         0.0216 
     26 CB        -57.3759  -27.9988   16.5649 C.3       12 UNK        -0.1964 
     27 N         -55.0047  -28.0371   15.8711 N.am      12 UNK        -0.4276 
     28 C         -54.3559  -29.0560   16.4593 C.2       12 UNK         0.5020 
     29 O         -54.8685  -30.1564   16.6684 O.2       12 UNK        -0.5489 
     30 CA        -52.8770  -28.8476   16.8464 C.3       11 UNK         0.0294 
     31 CB        -51.9833  -29.8792   16.1346 C.3       11 UNK        -0.2019 
     32 N         -52.3868  -27.5041   16.5319 N.am      11 UNK        -0.4493 
     33 C         -52.5181  -26.4272   17.3193 C.2       11 UNK         0.4932 
     34 O         -52.9845  -26.4612   18.4576 O.2       11 UNK        -0.5029 
     35 CA        -52.0980  -25.0752   16.7121 C.3       10 UNK         0.0280 
     36 CB        -50.6423  -24.7436   17.0763 C.3       10 UNK        -0.1976 
     37 N         -52.2649  -25.0389   15.2544 N.am      10 UNK        -0.4242 
     38 C         -53.4546  -25.0611   14.6322 C.2       10 UNK         0.5072 
     39 O         -54.5331  -25.0437   15.2247 O.2       10 UNK        -0.5224 
     40 CA        -53.4495  -25.2138   13.1034 C.3       9 UNK         0.0343 
     41 CB        -53.4255  -23.8425   12.4115 C.3       9 UNK        -0.2003 
     42 N         -52.3373  -26.0497   12.6366 N.am      9 UNK        -0.4272 
     43 C         -52.2709  -27.3758   12.8446 C.2       9 UNK         0.4988 
     44 O         -53.1855  -28.0164   13.3648 O.2       9 UNK        -0.5108 
     45 CA        -50.9902  -28.1318   12.4433 C.3       8 UNK         0.0248 
     46 CB        -51.2483  -29.0047   11.2138 C.3       8 UNK        -0.2001 
     47 N         -49.8295  -27.2786   12.1886 N.am      8 UNK        -0.4140 
     48 C         -49.1806  -26.5836   13.1340 C.2       8 UNK         0.5028 
     49 O         -49.4772  -26.6224   14.3283 O.2       8 UNK        -0.5428 
     50 CA        -48.0571  -25.6403   12.6615 C.3       7 UNK         0.0264 
     51 CB        -46.7138  -26.3863   12.6483 C.3       7 UNK        -0.1988 
     52 N         -48.2975  -25.0419   11.3410 N.am      7 UNK        -0.4454 
     53 C         -49.4046  -24.3675   10.9968 C.2       7 UNK         0.5027 
     54 O         -50.3048  -24.0987   11.7933 O.2       7 UNK        -0.5083 
     55 CA        -49.5564  -23.9968    9.5118 C.3       6 UNK         0.0844 
     56 C56       -51.0207  -23.6466    9.1321 C.3       14 UNK        -0.0967 
     57 S57       -51.2555  -23.6062    7.3244 S.3       14 UNK        -0.2604 
     58 C58       -52.9761  -24.1814    7.1496 C.3       14 UNK         0.0134 
     59 N         -48.5815  -22.9849    9.1019 N.am      6 UNK        -0.4116 
     60 C         -48.4964  -21.7201    9.5352 C.2       5 UNK         0.5034 
     61 O         -49.2592  -21.2114   10.3586 O.2       5 UNK        -0.5045 
     62 CA        -47.3445  -20.8928    8.9326 C.3       5 UNK         0.0224 
     63 CB        -47.2839  -19.4463    9.4705 C.3       5 UNK        -0.1978 
     64 N         -46.0482  -21.5668    9.0849 N.am      5 UNK        -0.4737 
     65 C         -45.4453  -21.9210   10.2314 C.2       4 UNK         0.5027 
     66 O         -45.8773  -21.6525   11.3532 O.2       4 UNK        -0.5211 
     67 CA        -44.1359  -22.7232   10.0809 C.3       4 UNK         0.0297 
     68 CB        -43.6693  -23.3682   11.4027 C.3       4 UNK        -0.1993 
     69 N         -44.1976  -23.7264    9.0080 N.am      4 UNK        -0.4486 
     70 C         -45.0783  -24.7312    8.8903 C.2       3 UNK         0.4961 
     71 O         -45.9672  -24.9847    9.7062 O.2       3 UNK        -0.5105 
     72 CA        -44.9270  -25.6036    7.6333 C.3       3 UNK         0.0299 
     73 CB        -43.9686  -26.7726    7.9118 C.3       3 UNK        -0.1972 
     74 N         -46.2033  -26.1414    7.1589 N.am      3 UNK        -0.4305 
     75 C         -47.2732  -25.4219    6.7880 C.2       2 UNK         0.5006 
     76 O         -47.2964  -24.1893    6.7799 O.2       2 UNK        -0.5106 
     77 CA        -48.5295  -26.1969    6.3426 C.3       2 UNK         0.0296 
     78 CB        -48.7708  -26.0176    4.8350 C.3       2 UNK        -0.2002 
     79 N         -48.4726  -27.6278    6.6506 N.am      2 UNK        -0.4032 
     80 C         -48.6966  -28.1610    7.8604 C.2       1 UNK         0.5000 
     81 O         -49.0235  -27.5047    8.8556 O.2       1 UNK        -0.5238 
     82 H82       -47.4423  -29.5139   12.2207 H         1 UNK         0.0889 
     83 H83       -46.4911  -30.9462   11.8175 H         1 UNK         0.0889 
     84 H84       -48.2516  -31.0046   11.7344 H         1 UNK         0.0889 
     85 H85       -49.1767  -30.6111    9.7151 H         1 UNK         0.3028 
     86 H86       -47.5799  -29.9255    7.4369 H         1 UNK         0.0864 
     87 H87       -49.6712  -30.1884    6.1488 H         1 UNK         0.0720 
     88 H88       -49.3956  -31.5290    7.2022 H         1 UNK         0.0720 
     89 H89       -51.4580  -28.8187    6.0291 H         1 UNK         0.0814 
     90 H90       -52.9198  -29.7415    6.2548 H         1 UNK         0.0814 
     91 H91       -51.8945  -26.5116    6.2231 H         1 UNK         0.1469 
     92 H92       -54.5604  -24.9880    9.2072 H         1 UNK         0.1381 
     93 H93       -53.8988  -29.2140    8.8737 H         1 UNK         0.1206 
     94 H94       -55.9525  -26.4517   10.4488 H         1 UNK         0.0813 
     95 H95       -54.7124  -27.3451   11.2820 H         1 UNK         0.0813 
     96 H96       -55.2516  -30.9068   10.3891 H         1 UNK         0.0638 
     97 H97       -54.2675  -29.6847   11.1466 H         1 UNK         0.0638 
     98 H98       -56.8403  -30.7929   12.3374 H         1 UNK         0.0568 
     99 H99       -54.8111  -31.1231   14.9065 H         1 UNK         0.3450 
    100 H100      -54.2055  -32.7168   14.5330 H         1 UNK         0.3450 
    101 H101      -54.8844  -28.8520   13.4642 H         1 UNK         0.2987 
    102 H102      -56.5059  -27.0799   14.8356 H         1 UNK         0.0766 
    103 H103      -57.1592  -27.1754   17.2457 H         1 UNK         0.0798 
    104 H104      -58.4026  -27.8700   16.2197 H         1 UNK         0.0798 
    105 H105      -57.3378  -28.9265   17.1376 H         1 UNK         0.0798 
    106 H106      -54.4927  -27.1757   15.7259 H         1 UNK         0.3198 
    107 H107      -52.7969  -29.0135   17.9230 H         1 UNK         0.0843 
    108 H108      -52.2456  -30.8945   16.4359 H         1 UNK         0.0831 
    109 H109      -50.9305  -29.7330   16.3784 H         1 UNK         0.0831 
    110 H110      -52.0897  -29.8290   15.0506 H         1 UNK         0.0831 
    111 H111      -51.9807  -27.3779   15.6154 H         1 UNK         0.3133 
    112 H112      -52.7395  -24.3037   17.1436 H         1 UNK         0.0566 
    113 H113      -49.9471  -25.4912   16.6931 H         1 UNK         0.0814 
    114 H114      -50.5122  -24.7056   18.1587 H         1 UNK         0.0814 
    115 H115      -50.3438  -23.7725   16.6807 H         1 UNK         0.0814 
    116 H116      -51.4221  -25.0875   14.6968 H         1 UNK         0.3091 
    117 H117      -54.3843  -25.7032   12.8269 H         1 UNK         0.0702 
    118 H118      -53.4009  -23.9430   11.3268 H         1 UNK         0.0785 
    119 H119      -52.5647  -23.2470   12.7161 H         1 UNK         0.0785 
    120 H120      -54.3178  -23.2681   12.6635 H         1 UNK         0.0785 
    121 H121      -51.5450  -25.5605   12.2304 H         1 UNK         0.2998 
    122 H122      -50.7371  -28.7925   13.2748 H         1 UNK         0.0697 
    123 H123      -51.4926  -28.4034   10.3371 H         1 UNK         0.0825 
    124 H124      -52.0691  -29.6986   11.3872 H         1 UNK         0.0825 
    125 H125      -50.3780  -29.6097   10.9772 H         1 UNK         0.0825 
    126 H126      -49.5303  -27.1862   11.2249 H         1 UNK         0.3029 
    127 H127      -47.9937  -24.8239   13.3838 H         1 UNK         0.0897 
    128 H128      -46.5288  -26.8856   13.6006 H         1 UNK         0.0792 
    129 H129      -46.6815  -27.1447   11.8648 H         1 UNK         0.0792 
    130 H130      -45.8850  -25.7012   12.4782 H         1 UNK         0.0792 
    131 H131      -47.5570  -25.1607   10.6495 H         1 UNK         0.3086 
    132 H132      -49.2909  -24.9011    8.9685 H         1 UNK         0.0583 
    133 H133      -51.6977  -24.3912    9.5525 H         1 UNK         0.1020 
    134 H134      -51.3265  -22.6902    9.5587 H         1 UNK         0.1020 
    135 H135      -53.6334  -23.4749    7.6598 H         1 UNK         0.0694 
    136 H136      -53.2502  -24.1426    6.0942 H         1 UNK         0.0694 
    137 H137      -47.9122  -23.2999    8.4060 H         1 UNK         0.2989 
    138 H138      -47.5425  -20.8342    7.8607 H         1 UNK         0.1055 
    139 H139      -48.2140  -18.9157    9.2632 H         1 UNK         0.0806 
    140 H140      -46.4781  -18.8819    9.0015 H         1 UNK         0.0806 
    141 H141      -47.1298  -19.4178   10.5495 H         1 UNK         0.0806 
    142 H142      -45.6086  -21.8613    8.2233 H         1 UNK         0.3061 
    143 H143      -43.3740  -22.0009    9.7837 H         1 UNK         0.0734 
    144 H144      -43.4974  -22.6108   12.1684 H         1 UNK         0.0832 
    145 H145      -44.4115  -24.0620   11.7948 H         1 UNK         0.0832 
    146 H146      -42.7350  -23.9138   11.2719 H         1 UNK         0.0832 
    147 H147      -43.5094  -23.6156    8.2752 H         1 UNK         0.3156 
    148 H148      -44.5121  -24.9915    6.8299 H         1 UNK         0.0589 
    149 H149      -44.3548  -27.4300    8.6927 H         1 UNK         0.0808 
    150 H150      -43.8019  -27.3741    7.0180 H         1 UNK         0.0808 
    151 H151      -42.9940  -26.4121    8.2437 H         1 UNK         0.0808 
    152 H152      -46.2936  -27.1454    7.1759 H         1 UNK         0.3098 
    153 H153      -49.3843  -25.7713    6.8672 H         1 UNK         0.0720 
    154 H154      -49.6892  -26.5120    4.5181 H         1 UNK         0.0791 
    155 H155      -48.8716  -24.9613    4.5808 H         1 UNK         0.0791 
    156 H156      -47.9483  -26.4190    4.2418 H         1 UNK         0.0791 
    157 H157      -48.2178  -28.2380    5.8867 H         1 UNK         0.3028 
@<TRIPOS>BOND
     1    1    2 1    
     2    1   82 1    
     3    1   83 1    
     4    1   84 1    
     5    2    3 2    
     6    2    4 am   BACKBONE|DICT|INTERRES
     7    4    5 1    
     8    4   85 1    
     9    5    6 1    
    10    5   80 1    
    11    5   86 1    
    12    6    7 1    
    13    6   87 1    
    14    6   88 1    
    15    7    8 1    
    16    8    9 1    
    17    8   89 1    
    18    8   90 1    
    19    9   10 ar   
    20    9   14 ar   
    21   10   11 ar   
    22   10   91 1    
    23   11   12 ar   
    24   11   58 1    
    25   12   13 ar   
    26   12   92 1    
    27   13   14 ar   
    28   13   15 1    
    29   14   93 1    
    30   15   16 1    
    31   15   94 1    
    32   15   95 1    
    33   16   17 1    
    34   17   18 1    
    35   17   96 1    
    36   17   97 1    
    37   18   19 1    
    38   18   22 1    
    39   18   98 1    
    40   19   20 am   BACKBONE|DICT|INTERRES
    41   19   21 2    
    42   20   99 1    
    43   20  100 1    
    44   22   23 am   BACKBONE|DICT|INTERRES
    45   22  101 1    
    46   23   24 2    
    47   23   25 1    
    48   25   26 1    
    49   25   27 1    
    50   25  102 1    
    51   26  103 1    
    52   26  104 1    
    53   26  105 1    
    54   27   28 am   BACKBONE|DICT|INTERRES
    55   27  106 1    
    56   28   29 2    
    57   28   30 1    
    58   30   31 1    
    59   30   32 1    
    60   30  107 1    
    61   31  108 1    
    62   31  109 1    
    63   31  110 1    
    64   32   33 am   BACKBONE|DICT|INTERRES
    65   32  111 1    
    66   33   34 2    
    67   33   35 1    
    68   35   36 1    
    69   35   37 1    
    70   35  112 1    
    71   36  113 1    
    72   36  114 1    
    73   36  115 1    
    74   37   38 am   BACKBONE|DICT|INTERRES
    75   37  116 1    
    76   38   39 2    
    77   38   40 1    
    78   40   41 1    
    79   40   42 1    
    80   40  117 1    
    81   41  118 1    
    82   41  119 1    
    83   41  120 1    
    84   42   43 am   BACKBONE|DICT|INTERRES
    85   42  121 1    
    86   43   44 2    
    87   43   45 1    
    88   45   46 1    
    89   45   47 1    
    90   45  122 1    
    91   46  123 1    
    92   46  124 1    
    93   46  125 1    
    94   47   48 am   BACKBONE|DICT|INTERRES
    95   47  126 1    
    96   48   49 2    
    97   48   50 1    
    98   50   51 1    
    99   50   52 1    
   100   50  127 1    
   101   51  128 1    
   102   51  129 1    
   103   51  130 1    
   104   52   53 am   BACKBONE|DICT|INTERRES
   105   52  131 1    
   106   53   54 2    
   107   53   55 1    
   108   55   56 1    
   109   55   59 1    
   110   55  132 1    
   111   56   57 1    
   112   56  133 1    
   113   56  134 1    
   114   57   58 1    
   115   58  135 1    
   116   58  136 1    
   117   59   60 am   BACKBONE|DICT|INTERRES
   118   59  137 1    
   119   60   61 2    
   120   60   62 1    
   121   62   63 1    
   122   62   64 1    
   123   62  138 1    
   124   63  139 1    
   125   63  140 1    
   126   63  141 1    
   127   64   65 am   BACKBONE|DICT|INTERRES
   128   64  142 1    
   129   65   66 2    
   130   65   67 1    
   131   67   68 1    
   132   67   69 1    
   133   67  143 1    
   134   68  144 1    
   135   68  145 1    
   136   68  146 1    
   137   69   70 am   BACKBONE|DICT|INTERRES
   138   69  147 1    
   139   70   71 2    
   140   70   72 1    
   141   72   73 1    
   142   72   74 1    
   143   72  148 1    
   144   73  149 1    
   145   73  150 1    
   146   73  151 1    
   147   74   75 am   BACKBONE|DICT|INTERRES
   148   74  152 1    
   149   75   76 2    
   150   75   77 1    
   151   77   78 1    
   152   77   79 1    
   153   77  153 1    
   154   78  154 1    
   155   78  155 1    
   156   78  156 1    
   157   79   80 am   BACKBONE|DICT|INTERRES
   158   79  157 1    
   159   80   81 2    
@<TRIPOS>SUBSTRUCTURE
     1 UNK         1 GROUP             0       ****    0 ROOT    
