@<TRIPOS>MOLECULE
3R207
157   159    1
SMALL
USER_CHARGES


@<TRIPOS>ATOM
      1 CA        -47.7399  -31.2348    2.1717 C.3       0 UNK        -0.1975 
      2 C         -48.4877  -30.3053    3.1156 C.2       0 UNK         0.4852 
      3 O         -48.4501  -30.5089    4.3299 O.2       0 UNK        -0.5216 
      4 N         -49.1534  -29.2768    2.5696 N.am      1 UNK        -0.4461 
      5 CA        -49.9617  -28.2560    3.2571 C.3       1 UNK         0.0864 
      6 C6        -51.1218  -28.8589    4.0971 C.3       14 UNK        -0.0898 
      7 S7        -52.6088  -27.8009    4.1426 S.3       14 UNK        -0.2598 
      8 C8        -52.4295  -26.9136    5.7242 C.3       14 UNK         0.0286 
      9 C9        -52.4917  -27.8428    6.9279 C.ar      14 UNK        -0.0844 
     10 C10       -51.3240  -28.1642    7.6253 C.ar      14 UNK        -0.0881 
     11 C11       -51.3614  -29.0133    8.7330 C.ar      14 UNK        -0.0643 
     12 C12       -52.5876  -29.5544    9.1340 C.ar      14 UNK        -0.0930 
     13 C13       -53.7654  -29.2329    8.4536 C.ar      14 UNK        -0.0827 
     14 C14       -53.7136  -28.3737    7.3521 C.ar      14 UNK        -0.1249 
     15 C15       -55.0861  -29.8272    8.9120 C.3       14 UNK         0.0141 
     16 S16       -55.8635  -28.7835   10.1844 S.3       14 UNK        -0.2313 
     17 C17       -56.6818  -30.0420   11.2269 C.3       14 UNK        -0.0915 
     18 CA        -55.9851  -30.2632   12.5971 C.3       13 UNK         0.0968 
     19 C         -54.5719  -30.9056   12.4539 C.2       13 UNK         0.5732 
     20 N         -53.5014  -30.2795   12.9282 N.am      13 UNK        -0.7310 
     21 O         -54.4492  -31.9987   11.9066 O.2       13 UNK        -0.5035 
     22 N         -56.0455  -29.0483   13.4241 N.am      13 UNK        -0.4233 
     23 C         -55.9265  -29.0040   14.7552 C.2       13 UNK         0.4989 
     24 O         -55.7652  -30.0035   15.4578 O.2       13 UNK        -0.4996 
     25 CA        -55.9908  -27.6041   15.4005 C.3       12 UNK         0.0216 
     26 CB        -55.9104  -27.6560   16.9376 C.3       12 UNK        -0.1964 
     27 N         -54.9401  -26.7112   14.9010 N.am      12 UNK        -0.4276 
     28 C         -54.9462  -26.0968   13.7076 C.2       12 UNK         0.5020 
     29 O         -55.8528  -26.2382   12.8847 O.2       12 UNK        -0.5489 
     30 CA        -53.7364  -25.2027   13.3676 C.3       11 UNK         0.0294 
     31 CB        -54.0385  -24.1548   12.2763 C.3       11 UNK        -0.2019 
     32 N         -53.1266  -24.5795   14.5470 N.am      11 UNK        -0.4493 
     33 C         -53.7093  -23.7354   15.4139 C.2       11 UNK         0.4932 
     34 O         -54.8472  -23.2867   15.2692 O.2       11 UNK        -0.5029 
     35 CA        -52.8925  -23.3291   16.6588 C.3       10 UNK         0.0280 
     36 CB        -53.7901  -23.0849   17.8907 C.3       10 UNK        -0.1976 
     37 N         -51.7983  -24.2499   16.9984 N.am      10 UNK        -0.4242 
     38 C         -51.8890  -25.5537   17.3127 C.2       10 UNK         0.5072 
     39 O         -52.9516  -26.1777   17.3096 O.2       10 UNK        -0.5224 
     40 CA        -50.5740  -26.2911   17.6383 C.3       9 UNK         0.0343 
     41 CB        -50.6397  -27.7803   17.2498 C.3       9 UNK        -0.2003 
     42 N         -49.4510  -25.6728   16.9338 N.am      9 UNK        -0.4272 
     43 C         -48.4738  -24.9413   17.4872 C.2       9 UNK         0.4988 
     44 O         -48.3397  -24.7831   18.7007 O.2       9 UNK        -0.5108 
     45 CA        -47.4943  -24.2355   16.5261 C.3       8 UNK         0.0248 
     46 CB        -46.1900  -25.0389   16.4052 C.3       8 UNK        -0.2001 
     47 N         -48.0488  -24.0044   15.1864 N.am      8 UNK        -0.4140 
     48 C         -49.0935  -23.2040   14.9203 C.2       8 UNK         0.5028 
     49 O         -49.6445  -22.5046   15.7705 O.2       8 UNK        -0.5428 
     50 CA        -49.6761  -23.2409   13.4939 C.3       7 UNK         0.0264 
     51 CB        -49.1053  -22.0868   12.6560 C.3       7 UNK        -0.1988 
     52 N         -49.4677  -24.5144   12.7914 N.am      7 UNK        -0.4454 
     53 C         -49.8728  -25.7161   13.2297 C.2       7 UNK         0.5027 
     54 O         -50.5401  -25.8599   14.2549 O.2       7 UNK        -0.5083 
     55 CA        -49.4215  -26.9742   12.4607 C.3       6 UNK         0.0844 
     56 C56       -50.5709  -27.5975   11.6368 C.3       14 UNK        -0.0967 
     57 S57       -50.2231  -29.3521   11.2749 S.3       14 UNK        -0.2604 
     58 C58       -50.0653  -29.3582    9.4601 C.3       14 UNK         0.0134 
     59 N         -48.2129  -26.7510   11.6600 N.am      6 UNK        -0.4116 
     60 C         -46.9835  -26.6188   12.1774 C.2       5 UNK         0.5034 
     61 O         -46.7385  -26.6533   13.3831 O.2       5 UNK        -0.5045 
     62 CA        -45.8435  -26.3661   11.1813 C.3       5 UNK         0.0224 
     63 CB        -45.4701  -27.6534   10.4271 C.3       5 UNK        -0.1978 
     64 N         -46.1985  -25.3083   10.2329 N.am      5 UNK        -0.4737 
     65 C         -46.1883  -24.0032   10.5447 C.2       4 UNK         0.5027 
     66 O         -45.8035  -23.5691   11.6302 O.2       4 UNK        -0.5211 
     67 CA        -46.6971  -23.0046    9.4876 C.3       4 UNK         0.0297 
     68 CB        -45.5147  -22.3961    8.7169 C.3       4 UNK        -0.1993 
     69 N         -47.6521  -23.5709    8.5323 N.am      4 UNK        -0.4486 
     70 C         -48.8555  -24.0713    8.8449 C.2       3 UNK         0.4961 
     71 O         -49.3087  -24.1082    9.9867 O.2       3 UNK        -0.5105 
     72 CA        -49.6655  -24.6924    7.6954 C.3       3 UNK         0.0299 
     73 CB        -50.5153  -23.6157    7.0022 C.3       3 UNK        -0.1972 
     74 N         -48.8471  -25.3934    6.6974 N.am      3 UNK        -0.4305 
     75 C         -47.9685  -26.3730    6.9530 C.2       2 UNK         0.5006 
     76 O         -47.7265  -26.7879    8.0878 O.2       2 UNK        -0.5106 
     77 CA        -47.2614  -26.9948    5.7355 C.3       2 UNK         0.0296 
     78 CB        -46.0968  -27.9154    6.1458 C.3       2 UNK        -0.2002 
     79 N         -48.1884  -27.7551    4.8952 N.am      2 UNK        -0.4032 
     80 C         -49.1135  -27.2503    4.0688 C.2       1 UNK         0.5000 
     81 O         -49.2970  -26.0399    3.9207 O.2       1 UNK        -0.5238 
     82 H82       -48.1138  -32.2530    2.2755 H         1 UNK         0.0889 
     83 H83       -46.6769  -31.2359    2.4113 H         1 UNK         0.0889 
     84 H84       -47.8529  -30.9366    1.1296 H         1 UNK         0.0889 
     85 H85       -49.1075  -29.1605    1.5661 H         1 UNK         0.3028 
     86 H86       -50.4069  -27.6828    2.4418 H         1 UNK         0.0864 
     87 H87       -50.7979  -29.1289    5.1024 H         1 UNK         0.0720 
     88 H88       -51.4469  -29.7978    3.6464 H         1 UNK         0.0720 
     89 H89       -53.2242  -26.1704    5.8032 H         1 UNK         0.0814 
     90 H90       -51.4940  -26.3550    5.7155 H         1 UNK         0.0814 
     91 H91       -50.3783  -27.7614    7.2976 H         1 UNK         0.1469 
     92 H92       -52.6287  -30.2226    9.9833 H         1 UNK         0.1381 
     93 H93       -54.6213  -28.1240    6.8196 H         1 UNK         0.1206 
     94 H94       -55.7705  -29.9393    8.0698 H         1 UNK         0.0813 
     95 H95       -54.9099  -30.8320    9.2987 H         1 UNK         0.0813 
     96 H96       -56.7677  -30.9840   10.6827 H         1 UNK         0.0638 
     97 H97       -57.7091  -29.7140   11.3922 H         1 UNK         0.0638 
     98 H98       -56.5770  -31.0162   13.1207 H         1 UNK         0.0568 
     99 H99       -53.5959  -29.3921   13.3913 H         1 UNK         0.3450 
    100 H100      -52.5943  -30.7054   12.8259 H         1 UNK         0.3450 
    101 H101      -56.1263  -28.1661   12.9250 H         1 UNK         0.2987 
    102 H102      -56.9605  -27.1759   15.1378 H         1 UNK         0.0766 
    103 H103      -56.7171  -28.2616   17.3527 H         1 UNK         0.0798 
    104 H104      -55.9958  -26.6601   17.3733 H         1 UNK         0.0798 
    105 H105      -54.9682  -28.0880   17.2779 H         1 UNK         0.0798 
    106 H106      -54.1670  -26.5356   15.5348 H         1 UNK         0.3198 
    107 H107      -52.9842  -25.8781   12.9619 H         1 UNK         0.0843 
    108 H108      -54.8319  -23.4712   12.5793 H         1 UNK         0.0831 
    109 H109      -54.3610  -24.6358   11.3520 H         1 UNK         0.0831 
    110 H110      -53.1543  -23.5628   12.0398 H         1 UNK         0.0831 
    111 H111      -52.1874  -24.9065   14.7562 H         1 UNK         0.3133 
    112 H112      -52.4165  -22.3810   16.4052 H         1 UNK         0.0566 
    113 H113      -54.3537  -23.9782   18.1627 H         1 UNK         0.0814 
    114 H114      -54.5130  -22.2907   17.7003 H         1 UNK         0.0814 
    115 H115      -53.2020  -22.7821   18.7569 H         1 UNK         0.0814 
    116 H116      -50.8746  -23.8332   16.9642 H         1 UNK         0.3091 
    117 H117      -50.4310  -26.2250   18.7185 H         1 UNK         0.0702 
    118 H118      -49.7019  -28.2890   17.4730 H         1 UNK         0.0785 
    119 H119      -50.8465  -27.9096   16.1865 H         1 UNK         0.0785 
    120 H120      -51.4259  -28.2971   17.8016 H         1 UNK         0.0785 
    121 H121      -49.5112  -25.7206   15.9215 H         1 UNK         0.2998 
    122 H122      -47.2571  -23.2611   16.9583 H         1 UNK         0.0697 
    123 H123      -45.4698  -24.5363   15.7593 H         1 UNK         0.0825 
    124 H124      -46.3665  -26.0358   15.9995 H         1 UNK         0.0825 
    125 H125      -45.7179  -25.1644   17.3806 H         1 UNK         0.0825 
    126 H126      -47.6551  -24.5515   14.4320 H         1 UNK         0.3029 
    127 H127      -50.7541  -23.0929   13.5825 H         1 UNK         0.0897 
    128 H128      -48.0320  -22.1959   12.4991 H         1 UNK         0.0792 
    129 H129      -49.2665  -21.1279   13.1506 H         1 UNK         0.0792 
    130 H130      -49.5855  -22.0281   11.6793 H         1 UNK         0.0792 
    131 H131      -49.0427  -24.4563   11.8697 H         1 UNK         0.3086 
    132 H132      -49.1598  -27.6933   13.2409 H         1 UNK         0.0583 
    133 H133      -51.5088  -27.5793   12.1943 H         1 UNK         0.1020 
    134 H134      -50.7510  -27.0335   10.7195 H         1 UNK         0.1020 
    135 H135      -49.2663  -28.6707    9.1809 H         1 UNK         0.0694 
    136 H136      -49.7438  -30.3504    9.1415 H         1 UNK         0.0694 
    137 H137      -48.3282  -26.6916   10.6578 H         1 UNK         0.2989 
    138 H138      -44.9676  -26.0460   11.7508 H         1 UNK         0.1055 
    139 H139      -45.1300  -28.4229   11.1214 H         1 UNK         0.0806 
    140 H140      -44.6614  -27.4774    9.7176 H         1 UNK         0.0806 
    141 H141      -46.3140  -28.0683    9.8755 H         1 UNK         0.0806 
    142 H142      -46.5729  -25.6036    9.3373 H         1 UNK         0.3061 
    143 H143      -47.2070  -22.2003   10.0219 H         1 UNK         0.0734 
    144 H144      -44.9772  -23.1499    8.1401 H         1 UNK         0.0832 
    145 H145      -45.8454  -21.6169    8.0299 H         1 UNK         0.0832 
    146 H146      -44.7983  -21.9381    9.4006 H         1 UNK         0.0832 
    147 H147      -47.3661  -23.5988    7.5646 H         1 UNK         0.3156 
    148 H148      -50.3410  -25.4266    8.1377 H         1 UNK         0.0589 
    149 H149      -51.1694  -24.0445    6.2438 H         1 UNK         0.0808 
    150 H150      -49.8944  -22.8606    6.5186 H         1 UNK         0.0808 
    151 H151      -51.1534  -23.1006    7.7219 H         1 UNK         0.0808 
    152 H152      -49.0179  -25.1716    5.7209 H         1 UNK         0.3098 
    153 H153      -46.8472  -26.1760    5.1435 H         1 UNK         0.0720 
    154 H154      -45.3743  -27.3814    6.7647 H         1 UNK         0.0791 
    155 H155      -45.5612  -28.2902    5.2735 H         1 UNK         0.0791 
    156 H156      -46.4450  -28.7754    6.7198 H         1 UNK         0.0791 
    157 H157      -48.1296  -28.7701    4.9444 H         1 UNK         0.3028 
@<TRIPOS>BOND
     1    1    2 1    
     2    1   82 1    
     3    1   83 1    
     4    1   84 1    
     5    2    3 2    
     6    2    4 am   BACKBONE|DICT|INTERRES
     7    4    5 1    
     8    4   85 1    
     9    5    6 1    
    10    5   80 1    
    11    5   86 1    
    12    6    7 1    
    13    6   87 1    
    14    6   88 1    
    15    7    8 1    
    16    8    9 1    
    17    8   89 1    
    18    8   90 1    
    19    9   10 ar   
    20    9   14 ar   
    21   10   11 ar   
    22   10   91 1    
    23   11   12 ar   
    24   11   58 1    
    25   12   13 ar   
    26   12   92 1    
    27   13   14 ar   
    28   13   15 1    
    29   14   93 1    
    30   15   16 1    
    31   15   94 1    
    32   15   95 1    
    33   16   17 1    
    34   17   18 1    
    35   17   96 1    
    36   17   97 1    
    37   18   19 1    
    38   18   22 1    
    39   18   98 1    
    40   19   20 am   BACKBONE|DICT|INTERRES
    41   19   21 2    
    42   20   99 1    
    43   20  100 1    
    44   22   23 am   BACKBONE|DICT|INTERRES
    45   22  101 1    
    46   23   24 2    
    47   23   25 1    
    48   25   26 1    
    49   25   27 1    
    50   25  102 1    
    51   26  103 1    
    52   26  104 1    
    53   26  105 1    
    54   27   28 am   BACKBONE|DICT|INTERRES
    55   27  106 1    
    56   28   29 2    
    57   28   30 1    
    58   30   31 1    
    59   30   32 1    
    60   30  107 1    
    61   31  108 1    
    62   31  109 1    
    63   31  110 1    
    64   32   33 am   BACKBONE|DICT|INTERRES
    65   32  111 1    
    66   33   34 2    
    67   33   35 1    
    68   35   36 1    
    69   35   37 1    
    70   35  112 1    
    71   36  113 1    
    72   36  114 1    
    73   36  115 1    
    74   37   38 am   BACKBONE|DICT|INTERRES
    75   37  116 1    
    76   38   39 2    
    77   38   40 1    
    78   40   41 1    
    79   40   42 1    
    80   40  117 1    
    81   41  118 1    
    82   41  119 1    
    83   41  120 1    
    84   42   43 am   BACKBONE|DICT|INTERRES
    85   42  121 1    
    86   43   44 2    
    87   43   45 1    
    88   45   46 1    
    89   45   47 1    
    90   45  122 1    
    91   46  123 1    
    92   46  124 1    
    93   46  125 1    
    94   47   48 am   BACKBONE|DICT|INTERRES
    95   47  126 1    
    96   48   49 2    
    97   48   50 1    
    98   50   51 1    
    99   50   52 1    
   100   50  127 1    
   101   51  128 1    
   102   51  129 1    
   103   51  130 1    
   104   52   53 am   BACKBONE|DICT|INTERRES
   105   52  131 1    
   106   53   54 2    
   107   53   55 1    
   108   55   56 1    
   109   55   59 1    
   110   55  132 1    
   111   56   57 1    
   112   56  133 1    
   113   56  134 1    
   114   57   58 1    
   115   58  135 1    
   116   58  136 1    
   117   59   60 am   BACKBONE|DICT|INTERRES
   118   59  137 1    
   119   60   61 2    
   120   60   62 1    
   121   62   63 1    
   122   62   64 1    
   123   62  138 1    
   124   63  139 1    
   125   63  140 1    
   126   63  141 1    
   127   64   65 am   BACKBONE|DICT|INTERRES
   128   64  142 1    
   129   65   66 2    
   130   65   67 1    
   131   67   68 1    
   132   67   69 1    
   133   67  143 1    
   134   68  144 1    
   135   68  145 1    
   136   68  146 1    
   137   69   70 am   BACKBONE|DICT|INTERRES
   138   69  147 1    
   139   70   71 2    
   140   70   72 1    
   141   72   73 1    
   142   72   74 1    
   143   72  148 1    
   144   73  149 1    
   145   73  150 1    
   146   73  151 1    
   147   74   75 am   BACKBONE|DICT|INTERRES
   148   74  152 1    
   149   75   76 2    
   150   75   77 1    
   151   77   78 1    
   152   77   79 1    
   153   77  153 1    
   154   78  154 1    
   155   78  155 1    
   156   78  156 1    
   157   79   80 am   BACKBONE|DICT|INTERRES
   158   79  157 1    
   159   80   81 2    
@<TRIPOS>SUBSTRUCTURE
     1 UNK         1 GROUP             0       ****    0 ROOT    
