@<TRIPOS>MOLECULE
3R207
157   159    1
SMALL
USER_CHARGES


@<TRIPOS>ATOM
      1 CA        -50.2699  -25.0566    2.7432 C.3       0 UNK        -0.1975 
      2 C         -50.5620  -25.1111    4.2350 C.2       0 UNK         0.4852 
      3 O         -51.2881  -24.2590    4.7501 O.2       0 UNK        -0.5216 
      4 N         -49.9942  -26.0986    4.9397 N.am      1 UNK        -0.4461 
      5 CA        -50.1601  -26.3341    6.3790 C.3       1 UNK         0.0864 
      6 C6        -49.7927  -27.7898    6.7609 C.3       14 UNK        -0.0898 
      7 S7        -50.9089  -29.0367    6.0310 S.3       14 UNK        -0.2598 
      8 C8        -52.1654  -29.2742    7.3454 C.3       14 UNK         0.0286 
      9 C9        -51.6697  -29.8158    8.6919 C.ar      14 UNK        -0.0844 
     10 C10       -50.3634  -30.2797    8.8931 C.ar      14 UNK        -0.0881 
     11 C11       -49.9339  -30.6910   10.1561 C.ar      14 UNK        -0.0643 
     12 C12       -50.8374  -30.7046   11.2208 C.ar      14 UNK        -0.0930 
     13 C13       -52.1582  -30.2862   11.0325 C.ar      14 UNK        -0.0827 
     14 C14       -52.5600  -29.8289    9.7721 C.ar      14 UNK        -0.1249 
     15 C15       -53.1289  -30.2808   12.2062 C.3       14 UNK         0.0141 
     16 S16       -54.6138  -31.2855   11.9007 S.3       14 UNK        -0.2313 
     17 C17       -55.5298  -31.0242   13.4598 C.3       14 UNK        -0.0915 
     18 CA        -56.6704  -29.9814   13.3088 C.3       13 UNK         0.0968 
     19 C         -57.6355  -29.9761   14.5308 C.2       13 UNK         0.5732 
     20 N         -57.9944  -28.8327   15.1056 N.am      13 UNK        -0.7310 
     21 O         -58.0973  -31.0338   14.9533 O.2       13 UNK        -0.5035 
     22 N         -56.1333  -28.6479   13.0069 N.am      13 UNK        -0.4233 
     23 C         -56.5386  -27.8594   12.0047 C.2       13 UNK         0.4989 
     24 O         -57.3725  -28.1983   11.1628 O.2       13 UNK        -0.4996 
     25 CA        -55.9007  -26.4569   11.9137 C.3       12 UNK         0.0216 
     26 CB        -56.8529  -25.4138   11.2916 C.3       12 UNK        -0.1964 
     27 N         -55.3484  -25.9564   13.1793 N.am      12 UNK        -0.4276 
     28 C         -55.9955  -25.7519   14.3340 C.2       12 UNK         0.5020 
     29 O         -57.1931  -25.9960   14.4990 O.2       12 UNK        -0.5489 
     30 CA        -55.1376  -25.2386   15.5095 C.3       11 UNK         0.0294 
     31 CB        -55.9397  -25.1441   16.8241 C.3       11 UNK        -0.2019 
     32 N         -53.9053  -26.0089   15.7394 N.am      11 UNK        -0.4493 
     33 C         -53.7857  -27.3391   15.8796 C.2       11 UNK         0.4932 
     34 O         -54.7110  -28.1302   15.6919 O.2       11 UNK        -0.5029 
     35 CA        -52.4120  -27.8923   16.3079 C.3       10 UNK         0.0280 
     36 CB        -52.0979  -29.2328   15.6263 C.3       10 UNK        -0.1976 
     37 N         -51.3083  -26.9643   16.0483 N.am      10 UNK        -0.4242 
     38 C         -50.7697  -26.1351   16.9524 C.2       10 UNK         0.5072 
     39 O         -51.1651  -26.0342   18.1143 O.2       10 UNK        -0.5224 
     40 CA        -49.6025  -25.2512   16.4765 C.3       9 UNK         0.0343 
     41 CB        -48.2860  -26.0441   16.4778 C.3       9 UNK        -0.2003 
     42 N         -49.8187  -24.6663   15.1512 N.am      9 UNK        -0.4272 
     43 C         -50.8034  -23.8088   14.8441 C.2       9 UNK         0.4988 
     44 O         -51.6466  -23.4083   15.6472 O.2       9 UNK        -0.5108 
     45 CA        -50.8831  -23.3544   13.3791 C.3       8 UNK         0.0248 
     46 CB        -49.8524  -22.2539   13.0769 C.3       8 UNK        -0.2001 
     47 N         -50.7020  -24.4792   12.4608 N.am      8 UNK        -0.4140 
     48 C         -51.6167  -25.4414   12.2806 C.2       8 UNK         0.5028 
     49 O         -52.7156  -25.4480   12.8301 O.2       8 UNK        -0.5428 
     50 CA        -51.2456  -26.6003   11.3456 C.3       7 UNK         0.0264 
     51 CB        -51.5562  -26.2111    9.8960 C.3       7 UNK        -0.1988 
     52 N         -49.8472  -27.0225   11.4785 N.am      7 UNK        -0.4454 
     53 C         -49.3448  -27.5661   12.5987 C.2       7 UNK         0.5027 
     54 O         -50.0194  -27.7912   13.6030 O.2       7 UNK        -0.5083 
     55 CA        -47.8272  -27.8301   12.6591 C.3       6 UNK         0.0844 
     56 C56       -47.4539  -29.2875   12.2883 C.3       14 UNK        -0.0967 
     57 S57       -47.4007  -29.6421   10.4961 S.3       14 UNK        -0.2604 
     58 C58       -48.4843  -31.1009   10.3548 C.3       14 UNK         0.0134 
     59 N         -47.0258  -26.8277   11.9513 N.am      6 UNK        -0.4116 
     60 C         -47.0170  -25.5137   12.2097 C.2       5 UNK         0.5034 
     61 O         -47.7230  -24.9927   13.0747 O.2       5 UNK        -0.5045 
     62 CA        -46.1028  -24.6087   11.3630 C.3       5 UNK         0.0224 
     63 CB        -44.8023  -24.2830   12.1215 C.3       5 UNK        -0.1978 
     64 N         -45.8225  -25.0821    9.9979 N.am      5 UNK        -0.4737 
     65 C         -45.1302  -26.1588    9.5929 C.2       4 UNK         0.5027 
     66 O         -44.6197  -26.9674   10.3673 O.2       4 UNK        -0.5211 
     67 CA        -45.0133  -26.4062    8.0776 C.3       4 UNK         0.0297 
     68 CB        -45.7085  -27.7237    7.6918 C.3       4 UNK        -0.1993 
     69 N         -45.5928  -25.3148    7.2903 N.am      4 UNK        -0.4486 
     70 C         -44.9077  -24.2583    6.8287 C.2       3 UNK         0.4961 
     71 O         -43.6916  -24.1219    6.9649 O.2       3 UNK        -0.5105 
     72 CA        -45.7008  -23.1579    6.0949 C.3       3 UNK         0.0299 
     73 CB        -45.5790  -23.3375    4.5729 C.3       3 UNK        -0.1972 
     74 N         -47.1199  -23.1020    6.4559 N.am      3 UNK        -0.4305 
     75 C         -47.5988  -22.7731    7.6644 C.2       2 UNK         0.5006 
     76 O         -46.8928  -22.4351    8.6140 O.2       2 UNK        -0.5106 
     77 CA        -49.1183  -22.9142    7.8681 C.3       2 UNK         0.0296 
     78 CB        -49.8379  -21.6043    7.5120 C.3       2 UNK        -0.2002 
     79 N         -49.7189  -24.0243    7.1170 N.am      2 UNK        -0.4032 
     80 C         -49.3630  -25.3122    7.2213 C.2       1 UNK         0.5000 
     81 O         -48.4375  -25.6929    7.9412 O.2       1 UNK        -0.5238 
     82 H82       -51.1982  -25.1308    2.1774 H         1 UNK         0.0889 
     83 H83       -49.6138  -25.8669    2.4260 H         1 UNK         0.0889 
     84 H84       -49.7903  -24.1118    2.4890 H         1 UNK         0.0889 
     85 H85       -49.4085  -26.7684    4.4611 H         1 UNK         0.3028 
     86 H86       -51.2124  -26.1838    6.6306 H         1 UNK         0.0864 
     87 H87       -48.7765  -28.0203    6.4358 H         1 UNK         0.0720 
     88 H88       -49.7824  -27.9112    7.8431 H         1 UNK         0.0720 
     89 H89       -52.9242  -29.9583    6.9634 H         1 UNK         0.0814 
     90 H90       -52.6705  -28.3210    7.5082 H         1 UNK         0.0814 
     91 H91       -49.6516  -30.2922    8.0808 H         1 UNK         0.1469 
     92 H92       -50.5067  -31.0275   12.1983 H         1 UNK         0.1381 
     93 H93       -53.5742  -29.4786    9.6348 H         1 UNK         0.1206 
     94 H94       -53.4164  -29.2533   12.4306 H         1 UNK         0.0813 
     95 H95       -52.6419  -30.6807   13.0952 H         1 UNK         0.0813 
     96 H96       -54.8429  -30.7313   14.2557 H         1 UNK         0.0638 
     97 H97       -55.9334  -31.9952   13.7517 H         1 UNK         0.0638 
     98 H98       -57.2934  -30.3149   12.4774 H         1 UNK         0.0568 
     99 H99       -58.6260  -28.8585   15.8893 H         1 UNK         0.3450 
    100 H100      -57.6374  -27.9407   14.7792 H         1 UNK         0.3450 
    101 H101      -55.5041  -28.2726   13.7069 H         1 UNK         0.2987 
    102 H102      -55.0475  -26.5648   11.2422 H         1 UNK         0.0766 
    103 H103      -56.3733  -24.4383   11.2109 H         1 UNK         0.0798 
    104 H104      -57.7609  -25.2937   11.8836 H         1 UNK         0.0798 
    105 H105      -57.1563  -25.7066   10.2857 H         1 UNK         0.0798 
    106 H106      -54.3447  -25.7492   13.1544 H         1 UNK         0.3198 
    107 H107      -54.8229  -24.2295   15.2382 H         1 UNK         0.0843 
    108 H108      -56.2947  -26.1231   17.1489 H         1 UNK         0.0831 
    109 H109      -56.8141  -24.5030   16.7052 H         1 UNK         0.0831 
    110 H110      -55.3368  -24.7220   17.6280 H         1 UNK         0.0831 
    111 H111      -53.0667  -25.4547   15.8546 H         1 UNK         0.3133 
    112 H112      -52.4819  -28.0854   17.3801 H         1 UNK         0.0566 
    113 H113      -52.0348  -29.1085   14.5480 H         1 UNK         0.0814 
    114 H114      -51.1473  -29.6403   15.9705 H         1 UNK         0.0814 
    115 H115      -52.8648  -29.9802   15.8331 H         1 UNK         0.0814 
    116 H116      -50.8929  -27.0174   15.1205 H         1 UNK         0.3091 
    117 H117      -49.5019  -24.4259   17.1844 H         1 UNK         0.0702 
    118 H118      -47.4448  -25.4204   16.1740 H         1 UNK         0.0785 
    119 H119      -48.3306  -26.8990   15.8032 H         1 UNK         0.0785 
    120 H120      -48.0637  -26.4275   17.4745 H         1 UNK         0.0785 
    121 H121      -49.1501  -24.9108   14.4260 H         1 UNK         0.2998 
    122 H122      -51.8784  -22.9360   13.2130 H         1 UNK         0.0697 
    123 H123      -48.8287  -22.5944   13.2336 H         1 UNK         0.0825 
    124 H124      -50.0082  -21.3903   13.7247 H         1 UNK         0.0825 
    125 H125      -49.9355  -21.9045   12.0476 H         1 UNK         0.0825 
    126 H126      -49.7950  -24.5779   12.0280 H         1 UNK         0.3029 
    127 H127      -51.8748  -27.4512   11.6123 H         1 UNK         0.0897 
    128 H128      -50.9770  -25.3435    9.5818 H         1 UNK         0.0792 
    129 H129      -52.6110  -25.9581    9.7788 H         1 UNK         0.0792 
    130 H130      -51.3479  -27.0327    9.2164 H         1 UNK         0.0792 
    131 H131      -49.2336  -26.8796   10.6886 H         1 UNK         0.3086 
    132 H132      -47.5606  -27.7137   13.7111 H         1 UNK         0.0583 
    133 H133      -46.4601  -29.5063   12.6820 H         1 UNK         0.1020 
    134 H134      -48.1186  -29.9900   12.7946 H         1 UNK         0.1020 
    135 H135      -48.1581  -31.6940    9.4992 H         1 UNK         0.0694 
    136 H136      -48.3720  -31.7460   11.2275 H         1 UNK         0.0694 
    137 H137      -46.3732  -27.1747   11.2560 H         1 UNK         0.2989 
    138 H138      -46.6476  -23.6713   11.2361 H         1 UNK         0.1055 
    139 H139      -45.0203  -23.8305   13.0900 H         1 UNK         0.0806 
    140 H140      -44.1863  -23.5760   11.5657 H         1 UNK         0.0806 
    141 H141      -44.2039  -25.1748   12.3099 H         1 UNK         0.0806 
    142 H142      -46.2127  -24.4964    9.2696 H         1 UNK         0.3061 
    143 H143      -43.9511  -26.5060    7.8448 H         1 UNK         0.0734 
    144 H144      -45.2414  -28.5718    8.1942 H         1 UNK         0.0832 
    145 H145      -45.6467  -27.9094    6.6196 H         1 UNK         0.0832 
    146 H146      -46.7614  -27.7256    7.9745 H         1 UNK         0.0832 
    147 H147      -46.6030  -25.3356    7.1935 H         1 UNK         0.3156 
    148 H148      -45.2519  -22.1991    6.3630 H         1 UNK         0.0589 
    149 H149      -46.0293  -24.2730    4.2384 H         1 UNK         0.0808 
    150 H150      -46.0604  -22.5201    4.0356 H         1 UNK         0.0808 
    151 H151      -44.5325  -23.3519    4.2644 H         1 UNK         0.0808 
    152 H152      -47.7805  -23.3653    5.7396 H         1 UNK         0.3098 
    153 H153      -49.2834  -23.1156    8.9287 H         1 UNK         0.0720 
    154 H154      -50.8998  -21.6573    7.7535 H         1 UNK         0.0791 
    155 H155      -49.7465  -21.3683    6.4510 H         1 UNK         0.0791 
    156 H156      -49.4218  -20.7649    8.0712 H         1 UNK         0.0791 
    157 H157      -50.4535  -23.7983    6.4511 H         1 UNK         0.3028 
@<TRIPOS>BOND
     1    1    2 1    
     2    1   82 1    
     3    1   83 1    
     4    1   84 1    
     5    2    3 2    
     6    2    4 am   BACKBONE|DICT|INTERRES
     7    4    5 1    
     8    4   85 1    
     9    5    6 1    
    10    5   80 1    
    11    5   86 1    
    12    6    7 1    
    13    6   87 1    
    14    6   88 1    
    15    7    8 1    
    16    8    9 1    
    17    8   89 1    
    18    8   90 1    
    19    9   10 ar   
    20    9   14 ar   
    21   10   11 ar   
    22   10   91 1    
    23   11   12 ar   
    24   11   58 1    
    25   12   13 ar   
    26   12   92 1    
    27   13   14 ar   
    28   13   15 1    
    29   14   93 1    
    30   15   16 1    
    31   15   94 1    
    32   15   95 1    
    33   16   17 1    
    34   17   18 1    
    35   17   96 1    
    36   17   97 1    
    37   18   19 1    
    38   18   22 1    
    39   18   98 1    
    40   19   20 am   BACKBONE|DICT|INTERRES
    41   19   21 2    
    42   20   99 1    
    43   20  100 1    
    44   22   23 am   BACKBONE|DICT|INTERRES
    45   22  101 1    
    46   23   24 2    
    47   23   25 1    
    48   25   26 1    
    49   25   27 1    
    50   25  102 1    
    51   26  103 1    
    52   26  104 1    
    53   26  105 1    
    54   27   28 am   BACKBONE|DICT|INTERRES
    55   27  106 1    
    56   28   29 2    
    57   28   30 1    
    58   30   31 1    
    59   30   32 1    
    60   30  107 1    
    61   31  108 1    
    62   31  109 1    
    63   31  110 1    
    64   32   33 am   BACKBONE|DICT|INTERRES
    65   32  111 1    
    66   33   34 2    
    67   33   35 1    
    68   35   36 1    
    69   35   37 1    
    70   35  112 1    
    71   36  113 1    
    72   36  114 1    
    73   36  115 1    
    74   37   38 am   BACKBONE|DICT|INTERRES
    75   37  116 1    
    76   38   39 2    
    77   38   40 1    
    78   40   41 1    
    79   40   42 1    
    80   40  117 1    
    81   41  118 1    
    82   41  119 1    
    83   41  120 1    
    84   42   43 am   BACKBONE|DICT|INTERRES
    85   42  121 1    
    86   43   44 2    
    87   43   45 1    
    88   45   46 1    
    89   45   47 1    
    90   45  122 1    
    91   46  123 1    
    92   46  124 1    
    93   46  125 1    
    94   47   48 am   BACKBONE|DICT|INTERRES
    95   47  126 1    
    96   48   49 2    
    97   48   50 1    
    98   50   51 1    
    99   50   52 1    
   100   50  127 1    
   101   51  128 1    
   102   51  129 1    
   103   51  130 1    
   104   52   53 am   BACKBONE|DICT|INTERRES
   105   52  131 1    
   106   53   54 2    
   107   53   55 1    
   108   55   56 1    
   109   55   59 1    
   110   55  132 1    
   111   56   57 1    
   112   56  133 1    
   113   56  134 1    
   114   57   58 1    
   115   58  135 1    
   116   58  136 1    
   117   59   60 am   BACKBONE|DICT|INTERRES
   118   59  137 1    
   119   60   61 2    
   120   60   62 1    
   121   62   63 1    
   122   62   64 1    
   123   62  138 1    
   124   63  139 1    
   125   63  140 1    
   126   63  141 1    
   127   64   65 am   BACKBONE|DICT|INTERRES
   128   64  142 1    
   129   65   66 2    
   130   65   67 1    
   131   67   68 1    
   132   67   69 1    
   133   67  143 1    
   134   68  144 1    
   135   68  145 1    
   136   68  146 1    
   137   69   70 am   BACKBONE|DICT|INTERRES
   138   69  147 1    
   139   70   71 2    
   140   70   72 1    
   141   72   73 1    
   142   72   74 1    
   143   72  148 1    
   144   73  149 1    
   145   73  150 1    
   146   73  151 1    
   147   74   75 am   BACKBONE|DICT|INTERRES
   148   74  152 1    
   149   75   76 2    
   150   75   77 1    
   151   77   78 1    
   152   77   79 1    
   153   77  153 1    
   154   78  154 1    
   155   78  155 1    
   156   78  156 1    
   157   79   80 am   BACKBONE|DICT|INTERRES
   158   79  157 1    
   159   80   81 2    
@<TRIPOS>SUBSTRUCTURE
     1 UNK         1 GROUP             0       ****    0 ROOT    
