@<TRIPOS>MOLECULE
3R207
157   159    1
SMALL
USER_CHARGES


@<TRIPOS>ATOM
      1 CA        -49.3748  -27.7359    3.2302 C.3       0 UNK        -0.1975 
      2 C         -49.2255  -26.9856    4.5446 C.2       0 UNK         0.4852 
      3 O         -48.3315  -27.3076    5.3264 O.2       0 UNK        -0.5216 
      4 N         -50.0789  -25.9769    4.7775 N.am      1 UNK        -0.4461 
      5 CA        -50.1513  -25.1410    5.9848 C.3       1 UNK         0.0864 
      6 C6        -50.8013  -25.8850    7.1828 C.3       14 UNK        -0.0898 
      7 S7        -51.5623  -24.7125    8.3566 S.3       14 UNK        -0.2598 
      8 C8        -53.2394  -25.4068    8.5644 C.3       14 UNK         0.0286 
      9 C9        -53.2878  -26.7495    9.2937 C.ar      14 UNK        -0.0844 
     10 C10       -52.3409  -27.0991   10.2632 C.ar      14 UNK        -0.0881 
     11 C11       -52.4048  -28.3294   10.9219 C.ar      14 UNK        -0.0643 
     12 C12       -53.4491  -29.2095   10.6299 C.ar      14 UNK        -0.0930 
     13 C13       -54.4219  -28.8633    9.6875 C.ar      14 UNK        -0.0827 
     14 C14       -54.3278  -27.6409    9.0147 C.ar      14 UNK        -0.1249 
     15 C15       -55.5782  -29.8079    9.4029 C.3       14 UNK         0.0141 
     16 S16       -57.1522  -29.1219   10.0129 S.3       14 UNK        -0.2313 
     17 C17       -58.0494  -30.6349   10.5019 C.3       14 UNK        -0.0915 
     18 CA        -58.4238  -30.6558   12.0140 C.3       13 UNK         0.0968 
     19 C         -59.2499  -31.9188   12.4058 C.2       13 UNK         0.5732 
     20 N         -59.1129  -32.4515   13.6144 N.am      13 UNK        -0.7310 
     21 O         -60.0550  -32.4089   11.6167 O.2       13 UNK        -0.5035 
     22 N         -57.2935  -30.3560   12.9128 N.am      13 UNK        -0.4233 
     23 C         -56.1600  -31.0522   13.0503 C.2       13 UNK         0.4989 
     24 O         -55.8927  -32.0663   12.4035 O.2       13 UNK        -0.4996 
     25 CA        -55.1583  -30.5155   14.0958 C.3       12 UNK         0.0216 
     26 CB        -53.9421  -31.4432   14.2798 C.3       12 UNK        -0.1964 
     27 N         -54.6712  -29.1658   13.7952 N.am      12 UNK        -0.4276 
     28 C         -55.3699  -28.0282   13.8854 C.2       12 UNK         0.5020 
     29 O         -56.5502  -27.9725   14.2399 O.2       12 UNK        -0.5489 
     30 CA        -54.6009  -26.7316   13.5851 C.3       11 UNK         0.0294 
     31 CB        -55.4542  -25.7224   12.7986 C.3       11 UNK        -0.2019 
     32 N         -54.1492  -26.1285   14.8389 N.am      11 UNK        -0.4493 
     33 C         -53.1046  -26.5727   15.5481 C.2       11 UNK         0.4932 
     34 O         -52.3675  -27.4891   15.1808 O.2       11 UNK        -0.5029 
     35 CA        -52.8622  -25.9128   16.9076 C.3       10 UNK         0.0280 
     36 CB        -53.4216  -26.8122   18.0292 C.3       10 UNK        -0.1976 
     37 N         -51.4263  -25.6885   17.0690 N.am      10 UNK        -0.4242 
     38 C         -50.8453  -24.9986   18.0602 C.2       10 UNK         0.5072 
     39 O         -51.4602  -24.4719   18.9886 O.2       10 UNK        -0.5224 
     40 CA        -49.3200  -24.8392   17.9885 C.3       9 UNK         0.0343 
     41 CB        -48.5984  -26.1986   18.0242 C.3       9 UNK        -0.2003 
     42 N         -48.9640  -24.1132   16.7719 N.am      9 UNK        -0.4272 
     43 C         -48.8355  -22.7801   16.6902 C.2       9 UNK         0.4988 
     44 O         -48.8568  -22.0276   17.6650 O.2       9 UNK        -0.5108 
     45 CA        -48.6663  -22.1698   15.2844 C.3       8 UNK         0.0248 
     46 CB        -47.1769  -21.9736   14.9594 C.3       8 UNK        -0.2001 
     47 N         -49.2927  -22.9707   14.2294 N.am      8 UNK        -0.4140 
     48 C         -50.6146  -23.1827   14.1204 C.2       8 UNK         0.5028 
     49 O         -51.4558  -22.6113   14.8147 O.2       8 UNK        -0.5428 
     50 CA        -51.0884  -24.2352   13.0993 C.3       7 UNK         0.0264 
     51 CB        -51.6757  -23.5536   11.8544 C.3       7 UNK        -0.1988 
     52 N         -50.0591  -25.2021   12.6981 N.am      7 UNK        -0.4454 
     53 C         -49.4111  -26.0330   13.5310 C.2       7 UNK         0.5027 
     54 O         -49.6427  -26.0953   14.7390 O.2       7 UNK        -0.5083 
     55 CA        -48.2677  -26.8889   12.9473 C.3       6 UNK         0.0844 
     56 C56       -48.6816  -28.3729   12.7668 C.3       14 UNK        -0.0967 
     57 S57       -49.6851  -28.6882   11.2733 S.3       14 UNK        -0.2604 
     58 C58       -51.3635  -28.6769   11.9737 C.3       14 UNK         0.0134 
     59 N         -47.6619  -26.3299   11.7337 N.am      6 UNK        -0.4116 
     60 C         -47.0279  -25.1539   11.6280 C.2       5 UNK         0.5034 
     61 O         -46.9594  -24.3420   12.5524 O.2       5 UNK        -0.5045 
     62 CA        -46.3995  -24.7990   10.2629 C.3       5 UNK         0.0224 
     63 CB        -44.9754  -24.2272   10.4169 C.3       5 UNK        -0.1978 
     64 N         -46.4221  -25.8781    9.2616 N.am      5 UNK        -0.4737 
     65 C         -45.8105  -27.0724    9.3160 C.2       4 UNK         0.5027 
     66 O         -45.1216  -27.4532   10.2619 O.2       4 UNK        -0.5211 
     67 CA        -46.0299  -28.0148    8.1234 C.3       4 UNK         0.0297 
     68 CB        -47.3988  -28.7059    8.2241 C.3       4 UNK        -0.1993 
     69 N         -45.9209  -27.3259    6.8376 N.am      4 UNK        -0.4486 
     70 C         -44.7629  -26.9241    6.2950 C.2       3 UNK         0.4961 
     71 O         -43.6601  -27.1064    6.8121 O.2       3 UNK        -0.5105 
     72 CA        -44.8465  -26.1989    4.9432 C.3       3 UNK         0.0299 
     73 CB        -45.1011  -27.1926    3.7972 C.3       3 UNK        -0.1972 
     74 N         -45.8807  -25.1647    4.9452 N.am      3 UNK        -0.4305 
     75 C         -45.7529  -23.9701    5.5408 C.2       2 UNK         0.5006 
     76 O         -44.7256  -23.5919    6.1052 O.2       2 UNK        -0.5106 
     77 CA        -46.9674  -23.0239    5.4937 C.3       2 UNK         0.0296 
     78 CB        -46.8204  -22.0196    4.3386 C.3       2 UNK        -0.2002 
     79 N         -48.2566  -23.7124    5.3739 N.am      2 UNK        -0.4032 
     80 C         -48.7922  -24.4868    6.3283 C.2       1 UNK         0.5000 
     81 O         -48.2327  -24.7234    7.4014 O.2       1 UNK        -0.5238 
     82 H82       -50.2084  -27.3605    2.6369 H         1 UNK         0.0889 
     83 H83       -49.5454  -28.7946    3.4231 H         1 UNK         0.0889 
     84 H84       -48.4651  -27.6399    2.6382 H         1 UNK         0.0889 
     85 H85       -50.7722  -25.7634    4.0733 H         1 UNK         0.3028 
     86 H86       -50.8152  -24.3188    5.7116 H         1 UNK         0.0864 
     87 H87       -51.5783  -26.5598    6.8205 H         1 UNK         0.0720 
     88 H88       -50.0861  -26.5196    7.7082 H         1 UNK         0.0720 
     89 H89       -53.7043  -25.4928    7.5809 H         1 UNK         0.0814 
     90 H90       -53.8407  -24.6919    9.1272 H         1 UNK         0.0814 
     91 H91       -51.5370  -26.4212   10.5068 H         1 UNK         0.1469 
     92 H92       -53.5144  -30.1584   11.1445 H         1 UNK         0.1381 
     93 H93       -55.0814  -27.3776    8.2847 H         1 UNK         0.1206 
     94 H94       -55.6547  -29.9877    8.3298 H         1 UNK         0.0813 
     95 H95       -55.3849  -30.7771    9.8647 H         1 UNK         0.0813 
     96 H96       -57.4720  -31.5221   10.2396 H         1 UNK         0.0638 
     97 H97       -58.9528  -30.6806    9.8914 H         1 UNK         0.0638 
     98 H98       -59.1183  -29.8301   12.1707 H         1 UNK         0.0568 
     99 H99       -59.6601  -33.2609   13.8613 H         1 UNK         0.3450 
    100 H100      -58.4710  -32.0523   14.2796 H         1 UNK         0.3450 
    101 H101      -57.3759  -29.5021   13.4590 H         1 UNK         0.2987 
    102 H102      -55.6878  -30.4760   15.0501 H         1 UNK         0.0766 
    103 H103      -53.2836  -31.0831   15.0708 H         1 UNK         0.0798 
    104 H104      -53.3537  -31.5273   13.3652 H         1 UNK         0.0798 
    105 H105      -54.2569  -32.4500   14.5580 H         1 UNK         0.0798 
    106 H106      -53.6939  -29.0912   13.5544 H         1 UNK         0.3198 
    107 H107      -53.7305  -26.9671   12.9714 H         1 UNK         0.0843 
    108 H108      -56.3369  -25.4090   13.3573 H         1 UNK         0.0831 
    109 H109      -55.7992  -26.1604   11.8605 H         1 UNK         0.0831 
    110 H110      -54.8799  -24.8308   12.5461 H         1 UNK         0.0831 
    111 H111      -54.7375  -25.4064   15.2302 H         1 UNK         0.3133 
    112 H112      -53.3657  -24.9442   16.9303 H         1 UNK         0.0566 
    113 H113      -53.3522  -26.3354   19.0065 H         1 UNK         0.0814 
    114 H114      -54.4754  -27.0380   17.8604 H         1 UNK         0.0814 
    115 H115      -52.8894  -27.7629   18.0820 H         1 UNK         0.0814 
    116 H116      -50.8506  -26.0655   16.3180 H         1 UNK         0.3091 
    117 H117      -48.9978  -24.2734   18.8654 H         1 UNK         0.0702 
    118 H118      -47.5163  -26.0676   18.0306 H         1 UNK         0.0785 
    119 H119      -48.8504  -26.8275   17.1702 H         1 UNK         0.0785 
    120 H120      -48.8622  -26.7534   18.9255 H         1 UNK         0.0785 
    121 H121      -48.9874  -24.6545   15.9140 H         1 UNK         0.2998 
    122 H122      -49.1477  -21.1897   15.2899 H         1 UNK         0.0697 
    123 H123      -46.6392  -22.9226   14.9423 H         1 UNK         0.0825 
    124 H124      -46.6951  -21.3391   15.7046 H         1 UNK         0.0825 
    125 H125      -47.0407  -21.4951   13.9893 H         1 UNK         0.0825 
    126 H126      -48.6644  -23.4687   13.6088 H         1 UNK         0.3029 
    127 H127      -51.8898  -24.7965   13.5806 H         1 UNK         0.0897 
    128 H128      -52.2228  -24.2653   11.2388 H         1 UNK         0.0792 
    129 H129      -52.3843  -22.7713   12.1307 H         1 UNK         0.0792 
    130 H130      -50.9028  -23.0915   11.2391 H         1 UNK         0.0792 
    131 H131      -49.7870  -25.2005   11.7261 H         1 UNK         0.3086 
    132 H132      -47.4825  -26.8724   13.7063 H         1 UNK         0.0583 
    133 H133      -47.7802  -28.9818   12.6806 H         1 UNK         0.1020 
    134 H134      -49.1957  -28.7513   13.6534 H         1 UNK         0.1020 
    135 H135      -51.5645  -29.6480   12.4285 H         1 UNK         0.0694 
    136 H136      -51.4258  -27.9389   12.7720 H         1 UNK         0.0694 
    137 H137      -47.6855  -26.9257   10.9193 H         1 UNK         0.2989 
    138 H138      -47.0268  -24.0060    9.8522 H         1 UNK         0.1055 
    139 H139      -44.9753  -23.3369   11.0472 H         1 UNK         0.0806 
    140 H140      -44.5596  -23.9386    9.4512 H         1 UNK         0.0806 
    141 H141      -44.2961  -24.9473   10.8738 H         1 UNK         0.0806 
    142 H142      -46.9971  -25.6693    8.4456 H         1 UNK         0.3061 
    143 H143      -45.2600  -28.7887    8.1624 H         1 UNK         0.0734 
    144 H144      -47.5483  -29.4104    7.4058 H         1 UNK         0.0832 
    145 H145      -47.4846  -29.2678    9.1550 H         1 UNK         0.0832 
    146 H146      -48.2191  -27.9880    8.1971 H         1 UNK         0.0832 
    147 H147      -46.7884  -27.1769    6.3233 H         1 UNK         0.3156 
    148 H148      -43.8818  -25.7209    4.7588 H         1 UNK         0.0589 
    149 H149      -46.0498  -27.7173    3.9124 H         1 UNK         0.0808 
    150 H150      -45.1110  -26.6892    2.8304 H         1 UNK         0.0808 
    151 H151      -44.3160  -27.9489    3.7595 H         1 UNK         0.0808 
    152 H152      -46.7709  -25.4072    4.5363 H         1 UNK         0.3098 
    153 H153      -46.9759  -22.4643    6.4317 H         1 UNK         0.0720 
    154 H154      -47.6250  -21.2840    4.3464 H         1 UNK         0.0791 
    155 H155      -46.8264  -22.5162    3.3674 H         1 UNK         0.0791 
    156 H156      -45.8814  -21.4695    4.4171 H         1 UNK         0.0791 
    157 H157      -48.7655  -23.5832    4.5110 H         1 UNK         0.3028 
@<TRIPOS>BOND
     1    1    2 1    
     2    1   82 1    
     3    1   83 1    
     4    1   84 1    
     5    2    3 2    
     6    2    4 am   BACKBONE|DICT|INTERRES
     7    4    5 1    
     8    4   85 1    
     9    5    6 1    
    10    5   80 1    
    11    5   86 1    
    12    6    7 1    
    13    6   87 1    
    14    6   88 1    
    15    7    8 1    
    16    8    9 1    
    17    8   89 1    
    18    8   90 1    
    19    9   10 ar   
    20    9   14 ar   
    21   10   11 ar   
    22   10   91 1    
    23   11   12 ar   
    24   11   58 1    
    25   12   13 ar   
    26   12   92 1    
    27   13   14 ar   
    28   13   15 1    
    29   14   93 1    
    30   15   16 1    
    31   15   94 1    
    32   15   95 1    
    33   16   17 1    
    34   17   18 1    
    35   17   96 1    
    36   17   97 1    
    37   18   19 1    
    38   18   22 1    
    39   18   98 1    
    40   19   20 am   BACKBONE|DICT|INTERRES
    41   19   21 2    
    42   20   99 1    
    43   20  100 1    
    44   22   23 am   BACKBONE|DICT|INTERRES
    45   22  101 1    
    46   23   24 2    
    47   23   25 1    
    48   25   26 1    
    49   25   27 1    
    50   25  102 1    
    51   26  103 1    
    52   26  104 1    
    53   26  105 1    
    54   27   28 am   BACKBONE|DICT|INTERRES
    55   27  106 1    
    56   28   29 2    
    57   28   30 1    
    58   30   31 1    
    59   30   32 1    
    60   30  107 1    
    61   31  108 1    
    62   31  109 1    
    63   31  110 1    
    64   32   33 am   BACKBONE|DICT|INTERRES
    65   32  111 1    
    66   33   34 2    
    67   33   35 1    
    68   35   36 1    
    69   35   37 1    
    70   35  112 1    
    71   36  113 1    
    72   36  114 1    
    73   36  115 1    
    74   37   38 am   BACKBONE|DICT|INTERRES
    75   37  116 1    
    76   38   39 2    
    77   38   40 1    
    78   40   41 1    
    79   40   42 1    
    80   40  117 1    
    81   41  118 1    
    82   41  119 1    
    83   41  120 1    
    84   42   43 am   BACKBONE|DICT|INTERRES
    85   42  121 1    
    86   43   44 2    
    87   43   45 1    
    88   45   46 1    
    89   45   47 1    
    90   45  122 1    
    91   46  123 1    
    92   46  124 1    
    93   46  125 1    
    94   47   48 am   BACKBONE|DICT|INTERRES
    95   47  126 1    
    96   48   49 2    
    97   48   50 1    
    98   50   51 1    
    99   50   52 1    
   100   50  127 1    
   101   51  128 1    
   102   51  129 1    
   103   51  130 1    
   104   52   53 am   BACKBONE|DICT|INTERRES
   105   52  131 1    
   106   53   54 2    
   107   53   55 1    
   108   55   56 1    
   109   55   59 1    
   110   55  132 1    
   111   56   57 1    
   112   56  133 1    
   113   56  134 1    
   114   57   58 1    
   115   58  135 1    
   116   58  136 1    
   117   59   60 am   BACKBONE|DICT|INTERRES
   118   59  137 1    
   119   60   61 2    
   120   60   62 1    
   121   62   63 1    
   122   62   64 1    
   123   62  138 1    
   124   63  139 1    
   125   63  140 1    
   126   63  141 1    
   127   64   65 am   BACKBONE|DICT|INTERRES
   128   64  142 1    
   129   65   66 2    
   130   65   67 1    
   131   67   68 1    
   132   67   69 1    
   133   67  143 1    
   134   68  144 1    
   135   68  145 1    
   136   68  146 1    
   137   69   70 am   BACKBONE|DICT|INTERRES
   138   69  147 1    
   139   70   71 2    
   140   70   72 1    
   141   72   73 1    
   142   72   74 1    
   143   72  148 1    
   144   73  149 1    
   145   73  150 1    
   146   73  151 1    
   147   74   75 am   BACKBONE|DICT|INTERRES
   148   74  152 1    
   149   75   76 2    
   150   75   77 1    
   151   77   78 1    
   152   77   79 1    
   153   77  153 1    
   154   78  154 1    
   155   78  155 1    
   156   78  156 1    
   157   79   80 am   BACKBONE|DICT|INTERRES
   158   79  157 1    
   159   80   81 2    
@<TRIPOS>SUBSTRUCTURE
     1 UNK         1 GROUP             0       ****    0 ROOT    
