@<TRIPOS>MOLECULE
3R207
157   159    1
SMALL
USER_CHARGES


@<TRIPOS>ATOM
      1 CA        -43.9228  -29.6175    7.7131 C.3       0 UNK        -0.1975 
      2 C         -44.9918  -29.3143    6.6732 C.2       0 UNK         0.4852 
      3 O         -44.6625  -28.8962    5.5621 O.2       0 UNK        -0.5216 
      4 N         -46.2667  -29.5330    7.0225 N.am      1 UNK        -0.4461 
      5 CA        -47.4276  -29.2340    6.1797 C.3       1 UNK         0.0864 
      6 C6        -48.7051  -29.9288    6.7171 C.3       14 UNK        -0.0898 
      7 S7        -49.9843  -30.1148    5.4272 S.3       14 UNK        -0.2598 
      8 C8        -51.0464  -31.4089    6.1380 C.3       14 UNK         0.0286 
      9 C9        -51.8299  -30.8962    7.3365 C.ar      14 UNK        -0.0844 
     10 C10       -51.3798  -31.1535    8.6350 C.ar      14 UNK        -0.0881 
     11 C11       -52.0943  -30.6900    9.7439 C.ar      14 UNK        -0.0643 
     12 C12       -53.2874  -29.9871    9.5372 C.ar      14 UNK        -0.0930 
     13 C13       -53.7334  -29.7005    8.2450 C.ar      14 UNK        -0.0827 
     14 C14       -53.0045  -30.1620    7.1461 C.ar      14 UNK        -0.1249 
     15 C15       -54.9877  -28.8651    8.0545 C.3       14 UNK         0.0141 
     16 S16       -54.6276  -27.1139    8.3877 S.3       14 UNK        -0.2313 
     17 C17       -56.3013  -26.4211    8.6154 C.3       14 UNK        -0.0915 
     18 CA        -56.7201  -26.2750   10.1056 C.3       13 UNK         0.0968 
     19 C         -57.1778  -27.6327   10.7179 C.2       13 UNK         0.5732 
     20 N         -56.5044  -28.1875   11.7190 N.am      13 UNK        -0.7310 
     21 O         -58.1769  -28.1933   10.2736 O.2       13 UNK        -0.5035 
     22 N         -55.7026  -25.5535   10.8836 N.am      13 UNK        -0.4233 
     23 C         -55.9144  -24.9569   12.0607 C.2       13 UNK         0.4989 
     24 O         -57.0221  -24.8291   12.5869 O.2       13 UNK        -0.4996 
     25 CA        -54.6626  -24.4365   12.7895 C.3       12 UNK         0.0216 
     26 CB        -54.7652  -22.9253   13.0577 C.3       12 UNK        -0.1964 
     27 N         -54.4380  -25.1441   14.0538 N.am      12 UNK        -0.4276 
     28 C         -54.2539  -26.4670   14.1733 C.2       12 UNK         0.5020 
     29 O         -54.2422  -27.2363   13.2118 O.2       12 UNK        -0.5489 
     30 CA        -54.0279  -27.0024   15.5961 C.3       11 UNK         0.0294 
     31 CB        -53.5991  -28.4810   15.6191 C.3       11 UNK        -0.2019 
     32 N         -52.9999  -26.2040   16.2617 N.am      11 UNK        -0.4493 
     33 C         -53.1480  -25.5581   17.4250 C.2       11 UNK         0.4932 
     34 O         -54.1927  -25.5685   18.0780 O.2       11 UNK        -0.5029 
     35 CA        -51.9464  -24.7335   17.9283 C.3       10 UNK         0.0280 
     36 CB        -51.9608  -24.5120   19.4565 C.3       10 UNK        -0.1976 
     37 N         -50.6472  -25.2421   17.4721 N.am      10 UNK        -0.4242 
     38 C         -50.0510  -26.4000   17.8048 C.2       10 UNK         0.5072 
     39 O         -50.5327  -27.2110   18.5972 O.2       10 UNK        -0.5224 
     40 CA        -48.6906  -26.7235   17.1494 C.3       9 UNK         0.0343 
     41 CB        -48.6809  -28.1422   16.5508 C.3       9 UNK        -0.2003 
     42 N         -48.3299  -25.7679   16.0998 N.am      9 UNK        -0.4272 
     43 C         -47.6096  -24.6519   16.2792 C.2       9 UNK         0.4988 
     44 O         -47.0843  -24.3424   17.3487 O.2       9 UNK        -0.5108 
     45 CA        -47.4749  -23.6982   15.0750 C.3       8 UNK         0.0248 
     46 CB        -46.1452  -23.9458   14.3450 C.3       8 UNK        -0.2001 
     47 N         -48.5813  -23.7888   14.1145 N.am      8 UNK        -0.4140 
     48 C         -49.8652  -23.5178   14.3919 C.2       8 UNK         0.5028 
     49 O         -50.2514  -23.0978   15.4822 O.2       8 UNK        -0.5428 
     50 CA        -50.9053  -23.8559   13.3100 C.3       7 UNK         0.0264 
     51 CB        -51.0284  -22.7192   12.2854 C.3       7 UNK        -0.1988 
     52 N         -50.6287  -25.1226   12.6247 N.am      7 UNK        -0.4454 
     53 C         -50.5698  -26.3187   13.2315 C.2       7 UNK         0.5027 
     54 O         -50.7923  -26.4744   14.4322 O.2       7 UNK        -0.5083 
     55 CA        -50.1266  -27.5209   12.3759 C.3       6 UNK         0.0844 
     56 C56       -51.3025  -28.1458   11.5824 C.3       14 UNK        -0.0967 
     57 S57       -51.9444  -29.6596   12.3781 S.3       14 UNK        -0.2604 
     58 C58       -51.5440  -30.9499   11.1468 C.3       14 UNK         0.0134 
     59 N         -49.0243  -27.1368   11.4959 N.am      6 UNK        -0.4116 
     60 C         -47.7420  -27.0483   11.8707 C.2       5 UNK         0.5034 
     61 O         -47.3307  -27.3344   12.9950 O.2       5 UNK        -0.5045 
     62 CA        -46.7512  -26.5331   10.8117 C.3       5 UNK         0.0224 
     63 CB        -46.1719  -27.7066   10.0100 C.3       5 UNK        -0.1978 
     64 N         -47.3458  -25.5587    9.8892 N.am      5 UNK        -0.4737 
     65 C         -47.7719  -24.3456   10.2705 C.2       4 UNK         0.5027 
     66 O         -47.6862  -23.9275   11.4238 O.2       4 UNK        -0.5211 
     67 CA        -48.4483  -23.4651    9.2106 C.3       4 UNK         0.0297 
     68 CB        -47.3903  -22.7069    8.3943 C.3       4 UNK        -0.1993 
     69 N         -49.3327  -24.1879    8.2968 N.am      4 UNK        -0.4486 
     70 C         -50.3420  -25.0115    8.6060 C.2       3 UNK         0.4961 
     71 O         -50.6468  -25.3154    9.7600 O.2       3 UNK        -0.5105 
     72 CA        -51.1347  -25.6221    7.4318 C.3       3 UNK         0.0299 
     73 CB        -52.2925  -24.6957    7.0144 C.3       3 UNK        -0.1972 
     74 N         -50.3102  -26.0173    6.2764 N.am      3 UNK        -0.4305 
     75 C         -49.5654  -25.2493    5.4628 C.2       2 UNK         0.5006 
     76 O         -49.5614  -24.0178    5.5078 O.2       2 UNK        -0.5106 
     77 CA        -48.6210  -25.9690    4.4764 C.3       2 UNK         0.0296 
     78 CB        -47.3557  -25.1379    4.1730 C.3       2 UNK        -0.2002 
     79 N         -48.2436  -27.3290    4.8867 N.am      2 UNK        -0.4032 
     80 C         -47.6415  -27.7118    6.0250 C.2       1 UNK         0.5000 
     81 O         -47.3270  -26.9435    6.9408 O.2       1 UNK        -0.5238 
     82 H82       -43.3737  -28.7095    7.9608 H         1 UNK         0.0889 
     83 H83       -43.2152  -30.3482    7.3222 H         1 UNK         0.0889 
     84 H84       -44.3490  -30.0176    8.6329 H         1 UNK         0.0889 
     85 H85       -46.4735  -29.8693    7.9509 H         1 UNK         0.3028 
     86 H86       -47.2034  -29.6442    5.1919 H         1 UNK         0.0864 
     87 H87       -48.4567  -30.9298    7.0740 H         1 UNK         0.0720 
     88 H88       -49.1229  -29.3964    7.5745 H         1 UNK         0.0720 
     89 H89       -50.4417  -32.2758    6.4092 H         1 UNK         0.0814 
     90 H90       -51.7413  -31.7539    5.3708 H         1 UNK         0.0814 
     91 H91       -50.4630  -31.7082    8.7823 H         1 UNK         0.1469 
     92 H92       -53.8572  -29.6226   10.3812 H         1 UNK         0.1381 
     93 H93       -53.3436  -29.9426    6.1427 H         1 UNK         0.1206 
     94 H94       -55.3787  -28.9693    7.0413 H         1 UNK         0.0813 
     95 H95       -55.7655  -29.2262    8.7280 H         1 UNK         0.0813 
     96 H96       -57.0276  -27.0089    8.0509 H         1 UNK         0.0638 
     97 H97       -56.3034  -25.4350    8.1487 H         1 UNK         0.0638 
     98 H98       -57.6161  -25.6516   10.1137 H         1 UNK         0.0568 
     99 H99       -55.6745  -27.7494   12.1126 H         1 UNK         0.3450 
    100 H100      -56.8272  -29.0629   12.0962 H         1 UNK         0.3450 
    101 H101      -54.7575  -25.6542   10.5434 H         1 UNK         0.2987 
    102 H102      -53.7879  -24.6105   12.1587 H         1 UNK         0.0766 
    103 H103      -54.8990  -22.3739   12.1260 H         1 UNK         0.0798 
    104 H104      -53.8647  -22.5383   13.5339 H         1 UNK         0.0798 
    105 H105      -55.6126  -22.6858   13.7016 H         1 UNK         0.0798 
    106 H106      -54.4675  -24.5907   14.8974 H         1 UNK         0.3198 
    107 H107      -54.9852  -26.9184   16.1144 H         1 UNK         0.0843 
    108 H108      -52.6415  -28.6249   15.1178 H         1 UNK         0.0831 
    109 H109      -54.3317  -29.1132   15.1156 H         1 UNK         0.0831 
    110 H110      -53.4989  -28.8475   16.6406 H         1 UNK         0.0831 
    111 H111      -52.1110  -26.1501   15.7670 H         1 UNK         0.3133 
    112 H112      -52.0534  -23.7526   17.4637 H         1 UNK         0.0566 
    113 H113      -51.9456  -25.4546   20.0044 H         1 UNK         0.0814 
    114 H114      -52.8582  -23.9744   19.7651 H         1 UNK         0.0814 
    115 H115      -51.1044  -23.9206   19.7802 H         1 UNK         0.0814 
    116 H116      -50.1852  -24.6453   16.7931 H         1 UNK         0.3091 
    117 H117      -47.9398  -26.6914   17.9413 H         1 UNK         0.0702 
    118 H118      -47.7274  -28.3642   16.0708 H         1 UNK         0.0785 
    119 H119      -49.4674  -28.2761   15.8079 H         1 UNK         0.0785 
    120 H120      -48.8358  -28.8948   17.3249 H         1 UNK         0.0785 
    121 H121      -48.7498  -25.9342   15.1941 H         1 UNK         0.2998 
    122 H122      -47.4649  -22.6793   15.4673 H         1 UNK         0.0697 
    123 H123      -45.9878  -23.2172   13.5494 H         1 UNK         0.0825 
    124 H124      -46.1104  -24.9405   13.8991 H         1 UNK         0.0825 
    125 H125      -45.3002  -23.8642   15.0300 H         1 UNK         0.0825 
    126 H126      -48.3346  -24.0503   13.1613 H         1 UNK         0.3029 
    127 H127      -51.8664  -23.9662   13.8137 H         1 UNK         0.0897 
    128 H128      -50.0764  -22.5141   11.7975 H         1 UNK         0.0792 
    129 H129      -51.3491  -21.7954   12.7687 H         1 UNK         0.0792 
    130 H130      -51.7606  -22.9536   11.5124 H         1 UNK         0.0792 
    131 H131      -50.4828  -25.0829   11.6181 H         1 UNK         0.3086 
    132 H132      -49.7358  -28.2711   13.0673 H         1 UNK         0.0583 
    133 H133      -52.1314  -27.4469   11.4480 H         1 UNK         0.1020 
    134 H134      -50.9856  -28.3914   10.5683 H         1 UNK         0.1020 
    135 H135      -50.4582  -31.0518   11.1096 H         1 UNK         0.0694 
    136 H136      -51.9342  -31.9039   11.5027 H         1 UNK         0.0694 
    137 H137      -49.2812  -26.7982   10.5778 H         1 UNK         0.2989 
    138 H138      -45.9330  -26.0395   11.3413 H         1 UNK         0.1055 
    139 H139      -45.6705  -28.4199   10.6656 H         1 UNK         0.0806 
    140 H140      -45.4390  -27.3632    9.2797 H         1 UNK         0.0806 
    141 H141      -46.9543  -28.2449    9.4747 H         1 UNK         0.0806 
    142 H142      -47.4424  -25.8352    8.9176 H         1 UNK         0.3061 
    143 H143      -49.0625  -22.7307    9.7325 H         1 UNK         0.0734 
    144 H144      -46.7733  -23.3865    7.8046 H         1 UNK         0.0832 
    145 H145      -47.8518  -21.9950    7.7097 H         1 UNK         0.0832 
    146 H146      -46.7233  -22.1416    9.0470 H         1 UNK         0.0832 
    147 H147      -49.2083  -23.9982    7.3047 H         1 UNK         0.3156 
    148 H148      -51.5747  -26.5480    7.8065 H         1 UNK         0.0589 
    149 H149      -52.9106  -25.1586    6.2452 H         1 UNK         0.0808 
    150 H150      -51.9383  -23.7385    6.6317 H         1 UNK         0.0808 
    151 H151      -52.9421  -24.4820    7.8643 H         1 UNK         0.0808 
    152 H152      -50.2215  -27.0159    6.1508 H         1 UNK         0.3098 
    153 H153      -49.1817  -26.0734    3.5465 H         1 UNK         0.0720 
    154 H154      -46.7777  -24.9404    5.0767 H         1 UNK         0.0791 
    155 H155      -47.6124  -24.1733    3.7331 H         1 UNK         0.0791 
    156 H156      -46.7045  -25.6503    3.4648 H         1 UNK         0.0791 
    157 H157      -48.5008  -28.0567    4.2328 H         1 UNK         0.3028 
@<TRIPOS>BOND
     1    1    2 1    
     2    1   82 1    
     3    1   83 1    
     4    1   84 1    
     5    2    3 2    
     6    2    4 am   BACKBONE|DICT|INTERRES
     7    4    5 1    
     8    4   85 1    
     9    5    6 1    
    10    5   80 1    
    11    5   86 1    
    12    6    7 1    
    13    6   87 1    
    14    6   88 1    
    15    7    8 1    
    16    8    9 1    
    17    8   89 1    
    18    8   90 1    
    19    9   10 ar   
    20    9   14 ar   
    21   10   11 ar   
    22   10   91 1    
    23   11   12 ar   
    24   11   58 1    
    25   12   13 ar   
    26   12   92 1    
    27   13   14 ar   
    28   13   15 1    
    29   14   93 1    
    30   15   16 1    
    31   15   94 1    
    32   15   95 1    
    33   16   17 1    
    34   17   18 1    
    35   17   96 1    
    36   17   97 1    
    37   18   19 1    
    38   18   22 1    
    39   18   98 1    
    40   19   20 am   BACKBONE|DICT|INTERRES
    41   19   21 2    
    42   20   99 1    
    43   20  100 1    
    44   22   23 am   BACKBONE|DICT|INTERRES
    45   22  101 1    
    46   23   24 2    
    47   23   25 1    
    48   25   26 1    
    49   25   27 1    
    50   25  102 1    
    51   26  103 1    
    52   26  104 1    
    53   26  105 1    
    54   27   28 am   BACKBONE|DICT|INTERRES
    55   27  106 1    
    56   28   29 2    
    57   28   30 1    
    58   30   31 1    
    59   30   32 1    
    60   30  107 1    
    61   31  108 1    
    62   31  109 1    
    63   31  110 1    
    64   32   33 am   BACKBONE|DICT|INTERRES
    65   32  111 1    
    66   33   34 2    
    67   33   35 1    
    68   35   36 1    
    69   35   37 1    
    70   35  112 1    
    71   36  113 1    
    72   36  114 1    
    73   36  115 1    
    74   37   38 am   BACKBONE|DICT|INTERRES
    75   37  116 1    
    76   38   39 2    
    77   38   40 1    
    78   40   41 1    
    79   40   42 1    
    80   40  117 1    
    81   41  118 1    
    82   41  119 1    
    83   41  120 1    
    84   42   43 am   BACKBONE|DICT|INTERRES
    85   42  121 1    
    86   43   44 2    
    87   43   45 1    
    88   45   46 1    
    89   45   47 1    
    90   45  122 1    
    91   46  123 1    
    92   46  124 1    
    93   46  125 1    
    94   47   48 am   BACKBONE|DICT|INTERRES
    95   47  126 1    
    96   48   49 2    
    97   48   50 1    
    98   50   51 1    
    99   50   52 1    
   100   50  127 1    
   101   51  128 1    
   102   51  129 1    
   103   51  130 1    
   104   52   53 am   BACKBONE|DICT|INTERRES
   105   52  131 1    
   106   53   54 2    
   107   53   55 1    
   108   55   56 1    
   109   55   59 1    
   110   55  132 1    
   111   56   57 1    
   112   56  133 1    
   113   56  134 1    
   114   57   58 1    
   115   58  135 1    
   116   58  136 1    
   117   59   60 am   BACKBONE|DICT|INTERRES
   118   59  137 1    
   119   60   61 2    
   120   60   62 1    
   121   62   63 1    
   122   62   64 1    
   123   62  138 1    
   124   63  139 1    
   125   63  140 1    
   126   63  141 1    
   127   64   65 am   BACKBONE|DICT|INTERRES
   128   64  142 1    
   129   65   66 2    
   130   65   67 1    
   131   67   68 1    
   132   67   69 1    
   133   67  143 1    
   134   68  144 1    
   135   68  145 1    
   136   68  146 1    
   137   69   70 am   BACKBONE|DICT|INTERRES
   138   69  147 1    
   139   70   71 2    
   140   70   72 1    
   141   72   73 1    
   142   72   74 1    
   143   72  148 1    
   144   73  149 1    
   145   73  150 1    
   146   73  151 1    
   147   74   75 am   BACKBONE|DICT|INTERRES
   148   74  152 1    
   149   75   76 2    
   150   75   77 1    
   151   77   78 1    
   152   77   79 1    
   153   77  153 1    
   154   78  154 1    
   155   78  155 1    
   156   78  156 1    
   157   79   80 am   BACKBONE|DICT|INTERRES
   158   79  157 1    
   159   80   81 2    
@<TRIPOS>SUBSTRUCTURE
     1 UNK         1 GROUP             0       ****    0 ROOT    
