@<TRIPOS>MOLECULE
3R207
157   159    1
SMALL
USER_CHARGES


@<TRIPOS>ATOM
      1 CA        -49.7008  -29.9030    8.5456 C.3       0 UNK        -0.1975 
      2 C         -49.3272  -29.7313    7.0819 C.2       0 UNK         0.4852 
      3 O         -48.2123  -30.0768    6.6904 O.2       0 UNK        -0.5216 
      4 N         -50.2445  -29.1826    6.2727 N.am      1 UNK        -0.4461 
      5 CA        -50.0332  -28.8870    4.8463 C.3       1 UNK         0.0864 
      6 C6        -51.3694  -28.6614    4.0914 C.3       14 UNK        -0.0898 
      7 S7        -52.3605  -30.1877    3.9518 S.3       14 UNK        -0.2598 
      8 C8        -53.8865  -29.7527    4.8464 C.3       14 UNK         0.0286 
      9 C9        -53.6437  -29.6560    6.3434 C.ar      14 UNK        -0.0844 
     10 C10       -53.5857  -28.4100    6.9724 C.ar      14 UNK        -0.0881 
     11 C11       -53.3080  -28.3250    8.3379 C.ar      14 UNK        -0.0643 
     12 C12       -53.0939  -29.4934    9.0722 C.ar      14 UNK        -0.0930 
     13 C13       -53.1856  -30.7531    8.4654 C.ar      14 UNK        -0.0827 
     14 C14       -53.4609  -30.8191    7.0969 C.ar      14 UNK        -0.1249 
     15 C15       -52.9537  -32.0657    9.2192 C.3       14 UNK         0.0141 
     16 S16       -52.7300  -31.9237   11.0274 S.3       14 UNK        -0.2313 
     17 C17       -54.4548  -31.8604   11.6294 C.3       14 UNK        -0.0915 
     18 CA        -55.0261  -30.4255   11.8541 C.3       13 UNK         0.0968 
     19 C         -56.4867  -30.4526   12.4003 C.2       13 UNK         0.5732 
     20 N         -56.8954  -29.5384   13.2727 N.am      13 UNK        -0.7310 
     21 O         -57.2822  -31.3002   12.0011 O.2       13 UNK        -0.5035 
     22 N         -54.1199  -29.5201   12.5843 N.am      13 UNK        -0.4233 
     23 C         -53.6347  -29.7081   13.8181 C.2       13 UNK         0.4989 
     24 O         -53.8396  -30.7120   14.5016 O.2       13 UNK        -0.4996 
     25 CA        -52.7821  -28.5683   14.4068 C.3       12 UNK         0.0216 
     26 CB        -51.2987  -28.7832   14.0591 C.3       12 UNK        -0.1964 
     27 N         -53.1704  -27.2015   14.0286 N.am      12 UNK        -0.4276 
     28 C         -54.3998  -26.6710   14.1034 C.2       12 UNK         0.5020 
     29 O         -55.4165  -27.3097   14.3797 O.2       12 UNK        -0.5489 
     30 CA        -54.4802  -25.1547   13.9026 C.3       11 UNK         0.0294 
     31 CB        -55.9226  -24.6318   13.7545 C.3       11 UNK        -0.2019 
     32 N         -53.8373  -24.5495   15.0609 N.am      11 UNK        -0.4493 
     33 C         -53.2462  -23.3556   15.1116 C.2       11 UNK         0.4932 
     34 O         -53.2452  -22.5493   14.1814 O.2       11 UNK        -0.5029 
     35 CA        -52.5128  -23.0044   16.4192 C.3       10 UNK         0.0280 
     36 CB        -53.5057  -22.6110   17.5303 C.3       10 UNK        -0.1976 
     37 N         -51.5599  -24.0293   16.8769 N.am      10 UNK        -0.4242 
     38 C         -51.7961  -25.2777   17.3151 C.2       10 UNK         0.5072 
     39 O         -52.9212  -25.7732   17.4009 O.2       10 UNK        -0.5224 
     40 CA        -50.5606  -26.1154   17.6855 C.3       9 UNK         0.0343 
     41 CB        -50.8577  -27.6141   17.8783 C.3       9 UNK        -0.2003 
     42 N         -49.5273  -25.9375   16.6680 N.am      9 UNK        -0.4272 
     43 C         -48.2267  -25.7448   16.9204 C.2       9 UNK         0.4988 
     44 O         -47.7178  -25.8665   18.0354 O.2       9 UNK        -0.5108 
     45 CA        -47.3421  -25.2976   15.7394 C.3       8 UNK         0.0248 
     46 CB        -46.6013  -26.5049   15.1436 C.3       8 UNK        -0.2001 
     47 N         -48.0570  -24.5858   14.6702 N.am      8 UNK        -0.4140 
     48 C         -48.8094  -23.4850   14.8270 C.2       8 UNK         0.5028 
     49 O         -48.9981  -22.9359   15.9138 O.2       8 UNK        -0.5428 
     50 CA        -49.5095  -22.9079   13.5864 C.3       7 UNK         0.0264 
     51 CB        -48.7571  -21.6638   13.0894 C.3       7 UNK        -0.1988 
     52 N         -49.6794  -23.8530   12.4786 N.am      7 UNK        -0.4454 
     53 C         -50.4375  -24.9603   12.5058 C.2       7 UNK         0.5027 
     54 O         -51.0536  -25.3511   13.4999 O.2       7 UNK        -0.5083 
     55 CA        -50.4844  -25.7968   11.2117 C.3       6 UNK         0.0844 
     56 C56       -51.4066  -25.1417   10.1552 C.3       14 UNK        -0.0967 
     57 S57       -51.6050  -26.2069    8.6889 S.3       14 UNK        -0.2604 
     58 C58       -53.2160  -26.9722    9.0208 C.3       14 UNK         0.0134 
     59 N         -49.1367  -26.0519   10.6980 N.am      6 UNK        -0.4116 
     60 C         -48.2062  -26.7878   11.3207 C.2       5 UNK         0.5034 
     61 O         -48.4073  -27.4128   12.3607 O.2       5 UNK        -0.5045 
     62 CA        -46.7998  -26.7912   10.7035 C.3       5 UNK         0.0224 
     63 CB        -46.6747  -27.8618    9.6082 C.3       5 UNK        -0.1978 
     64 N         -46.4432  -25.4791   10.1594 N.am      5 UNK        -0.4737 
     65 C         -46.1105  -24.4200   10.9107 C.2       4 UNK         0.5027 
     66 O         -46.0296  -24.4522   12.1380 O.2       4 UNK        -0.5211 
     67 CA        -45.8411  -23.0971   10.1723 C.3       4 UNK         0.0297 
     68 CB        -44.3658  -23.0083    9.7515 C.3       4 UNK        -0.1993 
     69 N         -46.6970  -22.9027    8.9986 N.am      4 UNK        -0.4486 
     70 C         -48.0250  -22.7311    9.0520 C.2       3 UNK         0.4961 
     71 O         -48.6742  -22.7148   10.0958 O.2       3 UNK        -0.5105 
     72 CA        -48.7650  -22.6138    7.7101 C.3       3 UNK         0.0299 
     73 CB        -48.6700  -21.1806    7.1633 C.3       3 UNK        -0.1972 
     74 N         -48.3171  -23.5670    6.6878 N.am      3 UNK        -0.4305 
     75 C         -48.2807  -24.8969    6.8442 C.2       2 UNK         0.5006 
     76 O         -48.4987  -25.4761    7.9104 O.2       2 UNK        -0.5106 
     77 CA        -47.9207  -25.7306    5.6164 C.3       2 UNK         0.0296 
     78 CB        -46.4349  -26.1333    5.6458 C.3       2 UNK        -0.2002 
     79 N         -48.7723  -26.9133    5.6443 N.am      2 UNK        -0.4032 
     80 C         -49.0685  -27.7010    4.6041 C.2       1 UNK         0.5000 
     81 O         -48.6160  -27.5203    3.4715 O.2       1 UNK        -0.5238 
     82 H82       -50.2913  -30.8072    8.6807 H         1 UNK         0.0889 
     83 H83       -48.8085  -29.9918    9.1632 H         1 UNK         0.0889 
     84 H84       -50.2737  -29.0501    8.9085 H         1 UNK         0.0889 
     85 H85       -51.1628  -28.9631    6.6373 H         1 UNK         0.3028 
     86 H86       -49.5452  -29.7573    4.4016 H         1 UNK         0.0864 
     87 H87       -51.1840  -28.3239    3.0696 H         1 UNK         0.0720 
     88 H88       -51.9516  -27.8694    4.5648 H         1 UNK         0.0720 
     89 H89       -54.6395  -30.5181    4.6531 H         1 UNK         0.0814 
     90 H90       -54.2917  -28.8201    4.4506 H         1 UNK         0.0814 
     91 H91       -53.7340  -27.5042    6.4000 H         1 UNK         0.1469 
     92 H92       -52.8419  -29.4058   10.1175 H         1 UNK         0.1381 
     93 H93       -53.5092  -31.7820    6.6061 H         1 UNK         0.1206 
     94 H94       -52.0575  -32.5348    8.8116 H         1 UNK         0.0813 
     95 H95       -53.7731  -32.7551    9.0113 H         1 UNK         0.0813 
     96 H96       -55.0865  -32.4113   10.9309 H         1 UNK         0.0638 
     97 H97       -54.4910  -32.4262   12.5614 H         1 UNK         0.0638 
     98 H98       -55.1347  -29.9750   10.8685 H         1 UNK         0.0568 
     99 H99       -56.2695  -28.8156   13.6200 H         1 UNK         0.3450 
    100 H100      -57.8466  -29.5697   13.6018 H         1 UNK         0.3450 
    101 H101      -53.9268  -28.6388   12.1358 H         1 UNK         0.2987 
    102 H102      -52.8946  -28.6274   15.4903 H         1 UNK         0.0766 
    103 H103      -50.9559  -29.7621   14.3972 H         1 UNK         0.0798 
    104 H104      -50.6597  -28.0373   14.5321 H         1 UNK         0.0798 
    105 H105      -51.1248  -28.7335   12.9835 H         1 UNK         0.0798 
    106 H106      -52.4022  -26.5596   13.8369 H         1 UNK         0.3198 
    107 H107      -53.9183  -24.9040   13.0000 H         1 UNK         0.0843 
    108 H108      -55.9387  -23.5576   13.5706 H         1 UNK         0.0831 
    109 H109      -56.5156  -24.8269   14.6488 H         1 UNK         0.0831 
    110 H110      -56.4267  -25.1127   12.9154 H         1 UNK         0.0831 
    111 H111      -53.7381  -25.1485   15.8808 H         1 UNK         0.3133 
    112 H112      -51.9039  -22.1242   16.2057 H         1 UNK         0.0566 
    113 H113      -54.1437  -21.7878   17.2061 H         1 UNK         0.0814 
    114 H114      -54.1617  -23.4365   17.8079 H         1 UNK         0.0814 
    115 H115      -52.9839  -22.2816   18.4287 H         1 UNK         0.0814 
    116 H116      -50.5871  -23.7418   16.8009 H         1 UNK         0.3091 
    117 H117      -50.2115  -25.7164   18.6403 H         1 UNK         0.0702 
    118 H118      -49.9693  -28.1511   18.2107 H         1 UNK         0.0785 
    119 H119      -51.1999  -28.0780   16.9555 H         1 UNK         0.0785 
    120 H120      -51.6301  -27.7696   18.6324 H         1 UNK         0.0785 
    121 H121      -49.8544  -25.8136   15.7178 H         1 UNK         0.2998 
    122 H122      -46.5989  -24.6042   16.1378 H         1 UNK         0.0697 
    123 H123      -45.9367  -26.2069   14.3324 H         1 UNK         0.0825 
    124 H124      -45.9882  -26.9973   15.8996 H         1 UNK         0.0825 
    125 H125      -47.2955  -27.2501   14.7545 H         1 UNK         0.0825 
    126 H126      -47.9327  -24.9423   13.7322 H         1 UNK         0.3029 
    127 H127      -50.5064  -22.5948   13.9006 H         1 UNK         0.0897 
    128 H128      -49.2992  -21.1680   12.2841 H         1 UNK         0.0792 
    129 H129      -48.6318  -20.9334   13.8900 H         1 UNK         0.0792 
    130 H130      -47.7631  -21.9180   12.7193 H         1 UNK         0.0792 
    131 H131      -49.2333  -23.5872   11.6010 H         1 UNK         0.3086 
    132 H132      -50.9175  -26.7643   11.4740 H         1 UNK         0.0583 
    133 H133      -52.3884  -24.9158   10.5762 H         1 UNK         0.1020 
    134 H134      -50.9957  -24.1861    9.8247 H         1 UNK         0.1020 
    135 H135      -53.3597  -27.0860   10.0963 H         1 UNK         0.0694 
    136 H136      -54.0116  -26.3144    8.6681 H         1 UNK         0.0694 
    137 H137      -48.9061  -25.6377    9.7989 H         1 UNK         0.2989 
    138 H138      -46.0920  -27.0367   11.4990 H         1 UNK         0.1055 
    139 H139      -46.8526  -28.8557   10.0198 H         1 UNK         0.0806 
    140 H140      -47.3910  -27.7091    8.8006 H         1 UNK         0.0806 
    141 H141      -45.6758  -27.8693    9.1721 H         1 UNK         0.0806 
    142 H142      -46.5681  -25.3492    9.1646 H         1 UNK         0.3061 
    143 H143      -46.0445  -22.2837   10.8721 H         1 UNK         0.0734 
    144 H144      -44.1372  -22.0407    9.3044 H         1 UNK         0.0832 
    145 H145      -43.7079  -23.1278   10.6136 H         1 UNK         0.0832 
    146 H146      -44.1019  -23.7838    9.0313 H         1 UNK         0.0832 
    147 H147      -46.2504  -22.9148    8.0931 H         1 UNK         0.3156 
    148 H148      -49.8177  -22.8298    7.9045 H         1 UNK         0.0589 
    149 H149      -49.2930  -21.0507    6.2782 H         1 UNK         0.0808 
    150 H150      -49.0117  -20.4570    7.9049 H         1 UNK         0.0808 
    151 H151      -47.6465  -20.9146    6.8963 H         1 UNK         0.0808 
    152 H152      -48.1006  -23.1820    5.7793 H         1 UNK         0.3098 
    153 H153      -48.1325  -25.1552    4.7128 H         1 UNK         0.0720 
    154 H154      -45.7899  -25.2539    5.6589 H         1 UNK         0.0791 
    155 H155      -46.1974  -26.7288    6.5285 H         1 UNK         0.0791 
    156 H156      -46.1644  -26.7191    4.7672 H         1 UNK         0.0791 
    157 H157      -49.1963  -27.0980    6.5453 H         1 UNK         0.3028 
@<TRIPOS>BOND
     1    1    2 1    
     2    1   82 1    
     3    1   83 1    
     4    1   84 1    
     5    2    3 2    
     6    2    4 am   BACKBONE|DICT|INTERRES
     7    4    5 1    
     8    4   85 1    
     9    5    6 1    
    10    5   80 1    
    11    5   86 1    
    12    6    7 1    
    13    6   87 1    
    14    6   88 1    
    15    7    8 1    
    16    8    9 1    
    17    8   89 1    
    18    8   90 1    
    19    9   10 ar   
    20    9   14 ar   
    21   10   11 ar   
    22   10   91 1    
    23   11   12 ar   
    24   11   58 1    
    25   12   13 ar   
    26   12   92 1    
    27   13   14 ar   
    28   13   15 1    
    29   14   93 1    
    30   15   16 1    
    31   15   94 1    
    32   15   95 1    
    33   16   17 1    
    34   17   18 1    
    35   17   96 1    
    36   17   97 1    
    37   18   19 1    
    38   18   22 1    
    39   18   98 1    
    40   19   20 am   BACKBONE|DICT|INTERRES
    41   19   21 2    
    42   20   99 1    
    43   20  100 1    
    44   22   23 am   BACKBONE|DICT|INTERRES
    45   22  101 1    
    46   23   24 2    
    47   23   25 1    
    48   25   26 1    
    49   25   27 1    
    50   25  102 1    
    51   26  103 1    
    52   26  104 1    
    53   26  105 1    
    54   27   28 am   BACKBONE|DICT|INTERRES
    55   27  106 1    
    56   28   29 2    
    57   28   30 1    
    58   30   31 1    
    59   30   32 1    
    60   30  107 1    
    61   31  108 1    
    62   31  109 1    
    63   31  110 1    
    64   32   33 am   BACKBONE|DICT|INTERRES
    65   32  111 1    
    66   33   34 2    
    67   33   35 1    
    68   35   36 1    
    69   35   37 1    
    70   35  112 1    
    71   36  113 1    
    72   36  114 1    
    73   36  115 1    
    74   37   38 am   BACKBONE|DICT|INTERRES
    75   37  116 1    
    76   38   39 2    
    77   38   40 1    
    78   40   41 1    
    79   40   42 1    
    80   40  117 1    
    81   41  118 1    
    82   41  119 1    
    83   41  120 1    
    84   42   43 am   BACKBONE|DICT|INTERRES
    85   42  121 1    
    86   43   44 2    
    87   43   45 1    
    88   45   46 1    
    89   45   47 1    
    90   45  122 1    
    91   46  123 1    
    92   46  124 1    
    93   46  125 1    
    94   47   48 am   BACKBONE|DICT|INTERRES
    95   47  126 1    
    96   48   49 2    
    97   48   50 1    
    98   50   51 1    
    99   50   52 1    
   100   50  127 1    
   101   51  128 1    
   102   51  129 1    
   103   51  130 1    
   104   52   53 am   BACKBONE|DICT|INTERRES
   105   52  131 1    
   106   53   54 2    
   107   53   55 1    
   108   55   56 1    
   109   55   59 1    
   110   55  132 1    
   111   56   57 1    
   112   56  133 1    
   113   56  134 1    
   114   57   58 1    
   115   58  135 1    
   116   58  136 1    
   117   59   60 am   BACKBONE|DICT|INTERRES
   118   59  137 1    
   119   60   61 2    
   120   60   62 1    
   121   62   63 1    
   122   62   64 1    
   123   62  138 1    
   124   63  139 1    
   125   63  140 1    
   126   63  141 1    
   127   64   65 am   BACKBONE|DICT|INTERRES
   128   64  142 1    
   129   65   66 2    
   130   65   67 1    
   131   67   68 1    
   132   67   69 1    
   133   67  143 1    
   134   68  144 1    
   135   68  145 1    
   136   68  146 1    
   137   69   70 am   BACKBONE|DICT|INTERRES
   138   69  147 1    
   139   70   71 2    
   140   70   72 1    
   141   72   73 1    
   142   72   74 1    
   143   72  148 1    
   144   73  149 1    
   145   73  150 1    
   146   73  151 1    
   147   74   75 am   BACKBONE|DICT|INTERRES
   148   74  152 1    
   149   75   76 2    
   150   75   77 1    
   151   77   78 1    
   152   77   79 1    
   153   77  153 1    
   154   78  154 1    
   155   78  155 1    
   156   78  156 1    
   157   79   80 am   BACKBONE|DICT|INTERRES
   158   79  157 1    
   159   80   81 2    
@<TRIPOS>SUBSTRUCTURE
     1 UNK         1 GROUP             0       ****    0 ROOT    
