@<TRIPOS>MOLECULE
3R207
157   159    1
SMALL
USER_CHARGES


@<TRIPOS>ATOM
      1 CA        -49.2411  -25.8601    3.7779 C.3       0 UNK        -0.1975 
      2 C         -48.4396  -26.8681    4.5892 C.2       0 UNK         0.4852 
      3 O         -47.3838  -27.3070    4.1331 O.2       0 UNK        -0.5216 
      4 N         -48.9488  -27.2281    5.7765 N.am      1 UNK        -0.4461 
      5 CA        -48.3517  -28.1105    6.7884 C.3       1 UNK         0.0864 
      6 C6        -47.9013  -29.4888    6.2331 C.3       14 UNK        -0.0898 
      7 S7        -47.9258  -30.7983    7.5046 S.3       14 UNK        -0.2598 
      8 C8        -49.5011  -31.6377    7.1449 C.3       14 UNK         0.0286 
      9 C9        -50.6956  -30.8275    7.6272 C.ar      14 UNK        -0.0844 
     10 C10       -51.3038  -29.8921    6.7843 C.ar      14 UNK        -0.0881 
     11 C11       -52.3988  -29.1444    7.2251 C.ar      14 UNK        -0.0643 
     12 C12       -52.9126  -29.3700    8.5064 C.ar      14 UNK        -0.0930 
     13 C13       -52.3179  -30.3070    9.3557 C.ar      14 UNK        -0.0827 
     14 C14       -51.2024  -31.0248    8.9153 C.ar      14 UNK        -0.1249 
     15 C15       -52.9016  -30.5631   10.7360 C.3       14 UNK         0.0141 
     16 S16       -52.4017  -29.2827   11.9248 S.3       14 UNK        -0.2313 
     17 C17       -53.2702  -29.8696   13.4164 C.3       14 UNK        -0.0915 
     18 CA        -54.6484  -29.1856   13.6176 C.3       13 UNK         0.0968 
     19 C         -55.4845  -29.8600   14.7460 C.2       13 UNK         0.5732 
     20 N         -56.2059  -29.1257   15.5845 N.am      13 UNK        -0.7310 
     21 O         -55.4951  -31.0832   14.8607 O.2       13 UNK        -0.5035 
     22 N         -54.5231  -27.7259   13.7783 N.am      13 UNK        -0.4233 
     23 C         -55.3112  -26.8335   13.1657 C.2       13 UNK         0.4989 
     24 O         -56.1812  -27.1352   12.3450 O.2       13 UNK        -0.4996 
     25 CA        -55.1218  -25.3585   13.5778 C.3       12 UNK         0.0216 
     26 CB        -56.1712  -24.4222   12.9437 C.3       12 UNK        -0.1964 
     27 N         -55.0859  -25.1529   15.0323 N.am      12 UNK        -0.4276 
     28 C         -55.9565  -25.5883   15.9556 C.2       12 UNK         0.5020 
     29 O         -56.9340  -26.2902   15.6920 O.2       12 UNK        -0.5489 
     30 CA        -55.6725  -25.2014   17.4247 C.3       11 UNK         0.0294 
     31 CB        -56.5091  -26.0253   18.4221 C.3       11 UNK        -0.2019 
     32 N         -54.2564  -25.3311   17.7811 N.am      11 UNK        -0.4493 
     33 C         -53.2911  -24.4614   17.4583 C.2       11 UNK         0.4932 
     34 O         -53.4991  -23.4150   16.8445 O.2       11 UNK        -0.5029 
     35 CA        -51.8472  -24.8420   17.8232 C.3       10 UNK         0.0280 
     36 CB        -51.4673  -24.2419   19.1864 C.3       10 UNK        -0.1976 
     37 N         -51.5551  -26.2814   17.8271 N.am      10 UNK        -0.4242 
     38 C         -51.7419  -27.1266   16.8039 C.2       10 UNK         0.5072 
     39 O         -52.3548  -26.8544   15.7640 O.2       10 UNK        -0.5224 
     40 CA        -51.1236  -28.5207   16.9545 C.3       9 UNK         0.0343 
     41 CB        -52.1968  -29.5578   17.3230 C.3       9 UNK        -0.2003 
     42 N         -50.5607  -28.8299   15.6485 N.am      9 UNK        -0.4272 
     43 C         -49.2624  -28.9661   15.3604 C.2       9 UNK         0.4988 
     44 O         -48.3815  -29.1754   16.1947 O.2       9 UNK        -0.5108 
     45 CA        -48.8868  -28.7702   13.8790 C.3       8 UNK         0.0248 
     46 CB        -48.9266  -30.1086   13.1232 C.3       8 UNK        -0.2001 
     47 N         -49.7667  -27.7994   13.2115 N.am      8 UNK        -0.4140 
     48 C         -49.8073  -26.4887   13.4973 C.2       8 UNK         0.5028 
     49 O         -49.0011  -25.9246   14.2382 O.2       8 UNK        -0.5428 
     50 CA        -50.9360  -25.6910   12.8333 C.3       7 UNK         0.0264 
     51 CB        -51.0107  -24.2249   13.3024 C.3       7 UNK        -0.1988 
     52 N         -50.7806  -25.7413   11.3823 N.am      7 UNK        -0.4454 
     53 C         -51.7968  -25.8181   10.5128 C.2       7 UNK         0.5027 
     54 O         -52.9813  -25.8406   10.8496 O.2       7 UNK        -0.5083 
     55 CA        -51.4068  -25.8494    9.0180 C.3       6 UNK         0.0844 
     56 C56       -52.6363  -25.9320    8.0687 C.3       14 UNK        -0.0967 
     57 S57       -52.1697  -26.4997    6.4001 S.3       14 UNK        -0.2604 
     58 C58       -53.0298  -28.1056    6.3080 C.3       14 UNK         0.0134 
     59 N         -50.4983  -24.7370    8.7004 N.am      6 UNK        -0.4116 
     60 C         -50.7913  -23.4285    8.7884 C.2       5 UNK         0.5034 
     61 O         -51.9038  -22.9853    9.0744 O.2       5 UNK        -0.5045 
     62 CA        -49.6529  -22.4297    8.5437 C.3       5 UNK         0.0224 
     63 CB        -49.1779  -21.8392    9.8828 C.3       5 UNK        -0.1978 
     64 N         -48.5013  -23.0335    7.8744 N.am      5 UNK        -0.4737 
     65 C         -48.2090  -22.9025    6.5729 C.2       4 UNK         0.5027 
     66 O         -48.9579  -22.3547    5.7635 O.2       4 UNK        -0.5211 
     67 CA        -46.8573  -23.4738    6.0884 C.3       4 UNK         0.0297 
     68 CB        -46.1853  -22.5797    5.0256 C.3       4 UNK        -0.1993 
     69 N         -45.9310  -23.7950    7.1834 N.am      4 UNK        -0.4486 
     70 C         -45.3933  -22.9487    8.0795 C.2       3 UNK         0.4961 
     71 O         -45.4656  -21.7228    7.9868 O.2       3 UNK        -0.5105 
     72 CA        -44.6978  -23.5665    9.3142 C.3       3 UNK         0.0299 
     73 CB        -44.9592  -22.7408   10.5923 C.3       3 UNK        -0.1972 
     74 N         -45.0192  -24.9822    9.5510 N.am      3 UNK        -0.4305 
     75 C         -46.2268  -25.5234    9.7723 C.2       2 UNK         0.5006 
     76 O         -47.2847  -24.8893    9.8350 O.2       2 UNK        -0.5106 
     77 CA        -46.2642  -27.0577    9.8569 C.3       2 UNK         0.0296 
     78 CB        -46.6244  -27.5093   11.2786 C.3       2 UNK        -0.2002 
     79 N         -47.2168  -27.6375    8.9050 N.am      2 UNK        -0.4032 
     80 C         -47.2315  -27.4087    7.5828 C.2       1 UNK         0.5000 
     81 O         -46.4093  -26.6900    7.0084 O.2       1 UNK        -0.5238 
     82 H82       -48.6015  -25.0343    3.4673 H         1 UNK         0.0889 
     83 H83       -50.0716  -25.4430    4.3473 H         1 UNK         0.0889 
     84 H84       -49.6447  -26.3342    2.8837 H         1 UNK         0.0889 
     85 H85       -49.8427  -26.8344    6.0434 H         1 UNK         0.3028 
     86 H86       -49.1698  -28.2820    7.4888 H         1 UNK         0.0864 
     87 H87       -46.8975  -29.4321    5.8074 H         1 UNK         0.0720 
     88 H88       -48.5452  -29.7951    5.4080 H         1 UNK         0.0720 
     89 H89       -49.4959  -32.6120    7.6359 H         1 UNK         0.0814 
     90 H90       -49.5815  -31.8428    6.0762 H         1 UNK         0.0814 
     91 H91       -50.9172  -29.7329    5.7871 H         1 UNK         0.1469 
     92 H92       -53.7763  -28.8180    8.8501 H         1 UNK         0.1381 
     93 H93       -50.7364  -31.7489    9.5699 H         1 UNK         0.1206 
     94 H94       -52.5867  -31.5409   11.1042 H         1 UNK         0.0813 
     95 H95       -53.9904  -30.5927   10.6734 H         1 UNK         0.0813 
     96 H96       -52.6346  -29.6945   14.2803 H         1 UNK         0.0638 
     97 H97       -53.3771  -30.9534   13.3449 H         1 UNK         0.0638 
     98 H98       -55.2193  -29.3929   12.7112 H         1 UNK         0.0568 
     99 H99       -56.2959  -28.1210   15.4725 H         1 UNK         0.3450 
    100 H100      -56.7410  -29.5937   16.2976 H         1 UNK         0.3450 
    101 H101      -53.8574  -27.4017   14.4722 H         1 UNK         0.2987 
    102 H102      -54.1431  -25.0602   13.2004 H         1 UNK         0.0766 
    103 H103      -57.1821  -24.6737   13.2669 H         1 UNK         0.0798 
    104 H104      -56.1476  -24.4901   11.8551 H         1 UNK         0.0798 
    105 H105      -55.9839  -23.3810   13.2056 H         1 UNK         0.0798 
    106 H106      -54.3143  -24.5925   15.3790 H         1 UNK         0.3198 
    107 H107      -55.9642  -24.1545   17.5344 H         1 UNK         0.0843 
    108 H108      -56.2925  -27.0917   18.3453 H         1 UNK         0.0831 
    109 H109      -57.5768  -25.8956   18.2398 H         1 UNK         0.0831 
    110 H110      -56.3209  -25.7161   19.4504 H         1 UNK         0.0831 
    111 H111      -53.9837  -26.1857   18.2443 H         1 UNK         0.3133 
    112 H112      -51.2010  -24.3935   17.0657 H         1 UNK         0.0566 
    113 H113      -50.4097  -24.3892   19.4062 H         1 UNK         0.0814 
    114 H114      -52.0455  -24.6850   19.9983 H         1 UNK         0.0814 
    115 H115      -51.6511  -23.1665   19.2054 H         1 UNK         0.0814 
    116 H116      -51.0606  -26.6252   18.6381 H         1 UNK         0.3091 
    117 H117      -50.3455  -28.5069   17.7207 H         1 UNK         0.0702 
    118 H118      -51.7896  -30.5689   17.3114 H         1 UNK         0.0785 
    119 H119      -53.0458  -29.5316   16.6396 H         1 UNK         0.0785 
    120 H120      -52.5840  -29.3751   18.3260 H         1 UNK         0.0785 
    121 H121      -51.1721  -28.5885   14.8816 H         1 UNK         0.2998 
    122 H122      -47.8662  -28.3840   13.8441 H         1 UNK         0.0697 
    123 H123      -49.9144  -30.5691   13.1627 H         1 UNK         0.0825 
    124 H124      -48.2212  -30.8187   13.5566 H         1 UNK         0.0825 
    125 H125      -48.6575  -29.9845   12.0743 H         1 UNK         0.0825 
    126 H126      -50.4603  -28.1772   12.5772 H         1 UNK         0.3029 
    127 H127      -51.8666  -26.1844   13.1229 H         1 UNK         0.0897 
    128 H128      -50.1042  -23.6740   13.0489 H         1 UNK         0.0792 
    129 H129      -51.1403  -24.1699   14.3843 H         1 UNK         0.0792 
    130 H130      -51.8554  -23.7065   12.8485 H         1 UNK         0.0792 
    131 H131      -49.8309  -25.7098   11.0353 H         1 UNK         0.3086 
    132 H132      -50.8310  -26.7682    8.8945 H         1 UNK         0.0583 
    133 H133      -53.3961  -26.6044    8.4655 H         1 UNK         0.1020 
    134 H134      -53.1379  -24.9678    7.9834 H         1 UNK         0.1020 
    135 H135      -54.0859  -27.9714    6.5472 H         1 UNK         0.0694 
    136 H136      -52.9976  -28.4605    5.2768 H         1 UNK         0.0694 
    137 H137      -49.5434  -24.9811    8.4839 H         1 UNK         0.2989 
    138 H138      -50.0565  -21.6170    7.9353 H         1 UNK         0.1055 
    139 H139      -48.7879  -22.6098   10.5496 H         1 UNK         0.0806 
    140 H140      -49.9965  -21.3409   10.4043 H         1 UNK         0.0806 
    141 H141      -48.3917  -21.0990    9.7322 H         1 UNK         0.0806 
    142 H142      -47.8462  -23.5277    8.4734 H         1 UNK         0.3061 
    143 H143      -47.0899  -24.4252    5.6108 H         1 UNK         0.0734 
    144 H144      -45.9988  -21.5727    5.3994 H         1 UNK         0.0832 
    145 H145      -45.2343  -22.9991    4.6978 H         1 UNK         0.0832 
    146 H146      -46.8166  -22.4831    4.1415 H         1 UNK         0.0832 
    147 H147      -45.8182  -24.7930    7.3422 H         1 UNK         0.3156 
    148 H148      -43.6275  -23.5281    9.1068 H         1 UNK         0.0589 
    149 H149      -44.4574  -23.1761   11.4564 H         1 UNK         0.0808 
    150 H150      -44.5873  -21.7210   10.4857 H         1 UNK         0.0808 
    151 H151      -46.0236  -22.6750   10.8207 H         1 UNK         0.0808 
    152 H152      -44.2305  -25.6118    9.4853 H         1 UNK         0.3098 
    153 H153      -45.2776  -27.4551    9.6102 H         1 UNK         0.0720 
    154 H154      -45.9182  -27.1106   12.0082 H         1 UNK         0.0791 
    155 H155      -46.6061  -28.5952   11.3707 H         1 UNK         0.0791 
    156 H156      -47.6159  -27.1607   11.5637 H         1 UNK         0.0791 
    157 H157      -47.9029  -28.2689    9.2913 H         1 UNK         0.3028 
@<TRIPOS>BOND
     1    1    2 1    
     2    1   82 1    
     3    1   83 1    
     4    1   84 1    
     5    2    3 2    
     6    2    4 am   BACKBONE|DICT|INTERRES
     7    4    5 1    
     8    4   85 1    
     9    5    6 1    
    10    5   80 1    
    11    5   86 1    
    12    6    7 1    
    13    6   87 1    
    14    6   88 1    
    15    7    8 1    
    16    8    9 1    
    17    8   89 1    
    18    8   90 1    
    19    9   10 ar   
    20    9   14 ar   
    21   10   11 ar   
    22   10   91 1    
    23   11   12 ar   
    24   11   58 1    
    25   12   13 ar   
    26   12   92 1    
    27   13   14 ar   
    28   13   15 1    
    29   14   93 1    
    30   15   16 1    
    31   15   94 1    
    32   15   95 1    
    33   16   17 1    
    34   17   18 1    
    35   17   96 1    
    36   17   97 1    
    37   18   19 1    
    38   18   22 1    
    39   18   98 1    
    40   19   20 am   BACKBONE|DICT|INTERRES
    41   19   21 2    
    42   20   99 1    
    43   20  100 1    
    44   22   23 am   BACKBONE|DICT|INTERRES
    45   22  101 1    
    46   23   24 2    
    47   23   25 1    
    48   25   26 1    
    49   25   27 1    
    50   25  102 1    
    51   26  103 1    
    52   26  104 1    
    53   26  105 1    
    54   27   28 am   BACKBONE|DICT|INTERRES
    55   27  106 1    
    56   28   29 2    
    57   28   30 1    
    58   30   31 1    
    59   30   32 1    
    60   30  107 1    
    61   31  108 1    
    62   31  109 1    
    63   31  110 1    
    64   32   33 am   BACKBONE|DICT|INTERRES
    65   32  111 1    
    66   33   34 2    
    67   33   35 1    
    68   35   36 1    
    69   35   37 1    
    70   35  112 1    
    71   36  113 1    
    72   36  114 1    
    73   36  115 1    
    74   37   38 am   BACKBONE|DICT|INTERRES
    75   37  116 1    
    76   38   39 2    
    77   38   40 1    
    78   40   41 1    
    79   40   42 1    
    80   40  117 1    
    81   41  118 1    
    82   41  119 1    
    83   41  120 1    
    84   42   43 am   BACKBONE|DICT|INTERRES
    85   42  121 1    
    86   43   44 2    
    87   43   45 1    
    88   45   46 1    
    89   45   47 1    
    90   45  122 1    
    91   46  123 1    
    92   46  124 1    
    93   46  125 1    
    94   47   48 am   BACKBONE|DICT|INTERRES
    95   47  126 1    
    96   48   49 2    
    97   48   50 1    
    98   50   51 1    
    99   50   52 1    
   100   50  127 1    
   101   51  128 1    
   102   51  129 1    
   103   51  130 1    
   104   52   53 am   BACKBONE|DICT|INTERRES
   105   52  131 1    
   106   53   54 2    
   107   53   55 1    
   108   55   56 1    
   109   55   59 1    
   110   55  132 1    
   111   56   57 1    
   112   56  133 1    
   113   56  134 1    
   114   57   58 1    
   115   58  135 1    
   116   58  136 1    
   117   59   60 am   BACKBONE|DICT|INTERRES
   118   59  137 1    
   119   60   61 2    
   120   60   62 1    
   121   62   63 1    
   122   62   64 1    
   123   62  138 1    
   124   63  139 1    
   125   63  140 1    
   126   63  141 1    
   127   64   65 am   BACKBONE|DICT|INTERRES
   128   64  142 1    
   129   65   66 2    
   130   65   67 1    
   131   67   68 1    
   132   67   69 1    
   133   67  143 1    
   134   68  144 1    
   135   68  145 1    
   136   68  146 1    
   137   69   70 am   BACKBONE|DICT|INTERRES
   138   69  147 1    
   139   70   71 2    
   140   70   72 1    
   141   72   73 1    
   142   72   74 1    
   143   72  148 1    
   144   73  149 1    
   145   73  150 1    
   146   73  151 1    
   147   74   75 am   BACKBONE|DICT|INTERRES
   148   74  152 1    
   149   75   76 2    
   150   75   77 1    
   151   77   78 1    
   152   77   79 1    
   153   77  153 1    
   154   78  154 1    
   155   78  155 1    
   156   78  156 1    
   157   79   80 am   BACKBONE|DICT|INTERRES
   158   79  157 1    
   159   80   81 2    
@<TRIPOS>SUBSTRUCTURE
     1 UNK         1 GROUP             0       ****    0 ROOT    
