@<TRIPOS>MOLECULE
3R207
157   159    1
SMALL
USER_CHARGES


@<TRIPOS>ATOM
      1 CA        -50.3433  -24.3439    2.0987 C.3       0 UNK        -0.1975 
      2 C         -51.4084  -25.2479    2.7014 C.2       0 UNK         0.4852 
      3 O         -52.5497  -24.8184    2.8728 O.2       0 UNK        -0.5216 
      4 N         -51.0438  -26.4965    3.0229 N.am      1 UNK        -0.4461 
      5 CA        -51.9232  -27.5035    3.6326 C.3       1 UNK         0.0864 
      6 C6        -51.3267  -28.9288    3.4955 C.3       14 UNK        -0.0898 
      7 S7        -49.6730  -29.1411    4.2578 S.3       14 UNK        -0.2598 
      8 C8        -49.9059  -30.6225    5.2952 C.3       14 UNK         0.0286 
      9 C9        -50.5164  -30.2851    6.6484 C.ar      14 UNK        -0.0844 
     10 C10       -49.6964  -30.0633    7.7589 C.ar      14 UNK        -0.0881 
     11 C11       -50.2429  -29.7572    9.0111 C.ar      14 UNK        -0.0643 
     12 C12       -51.6365  -29.6564    9.1321 C.ar      14 UNK        -0.0930 
     13 C13       -52.4673  -29.8942    8.0327 C.ar      14 UNK        -0.0827 
     14 C14       -51.9021  -30.2201    6.7993 C.ar      14 UNK        -0.1249 
     15 C15       -53.9770  -29.7942    8.1727 C.3       14 UNK         0.0141 
     16 S16       -54.6611  -31.3033    8.9235 S.3       14 UNK        -0.2313 
     17 C17       -56.4386  -30.8899    9.0426 C.3       14 UNK        -0.0915 
     18 CA        -56.8834  -30.3731   10.4391 C.3       13 UNK         0.0968 
     19 C         -56.7741  -31.4719   11.5379 C.2       13 UNK         0.5732 
     20 N         -57.7305  -32.3897   11.5881 N.am      13 UNK        -0.7310 
     21 O         -55.8253  -31.5200   12.3192 O.2       13 UNK        -0.5035 
     22 N         -56.2007  -29.1132   10.7618 N.am      13 UNK        -0.4233 
     23 C         -56.4114  -28.3489   11.8367 C.2       13 UNK         0.4989 
     24 O         -57.2632  -28.5684   12.7015 O.2       13 UNK        -0.4996 
     25 CA        -55.5288  -27.1042   11.9503 C.3       12 UNK         0.0216 
     26 CB        -56.2654  -25.8483   11.4493 C.3       12 UNK        -0.1964 
     27 N         -55.1436  -26.9498   13.3477 N.am      12 UNK        -0.4276 
     28 C         -54.0416  -26.3273   13.7721 C.2       12 UNK         0.5020 
     29 O         -53.2542  -25.7412   13.0250 O.2       12 UNK        -0.5489 
     30 CA        -53.7512  -26.4223   15.2749 C.3       11 UNK         0.0294 
     31 CB        -52.9669  -27.7093   15.5833 C.3       11 UNK        -0.2019 
     32 N         -52.9455  -25.2803   15.6943 N.am      11 UNK        -0.4493 
     33 C         -53.3907  -24.2309   16.3952 C.2       11 UNK         0.4932 
     34 O         -54.5523  -24.1169   16.7919 O.2       11 UNK        -0.5029 
     35 CA        -52.3596  -23.1259   16.7049 C.3       10 UNK         0.0280 
     36 CB        -52.7975  -22.1873   17.8495 C.3       10 UNK        -0.1976 
     37 N         -51.0126  -23.6580   16.9426 N.am      10 UNK        -0.4242 
     38 C         -50.6239  -24.5069   17.9095 C.2       10 UNK         0.5072 
     39 O         -51.3560  -24.8852   18.8253 O.2       10 UNK        -0.5224 
     40 CA        -49.1847  -25.0572   17.8428 C.3       9 UNK         0.0343 
     41 CB        -49.1968  -26.5797   17.6186 C.3       9 UNK        -0.2003 
     42 N         -48.3828  -24.4347   16.7880 N.am      9 UNK        -0.4272 
     43 C         -47.7353  -23.2678   16.9067 C.2       9 UNK         0.4988 
     44 O         -47.6714  -22.6232   17.9539 O.2       9 UNK        -0.5108 
     45 CA        -47.0641  -22.7107   15.6386 C.3       8 UNK         0.0248 
     46 CB        -45.5868  -23.1319   15.5905 C.3       8 UNK        -0.2001 
     47 N         -47.7327  -23.1124   14.3946 N.am      8 UNK        -0.4140 
     48 C         -48.9736  -22.7408   14.0443 C.2       8 UNK         0.5028 
     49 O         -49.6817  -22.0043   14.7309 O.2       8 UNK        -0.5428 
     50 CA        -49.5520  -23.3347   12.7478 C.3       7 UNK         0.0264 
     51 CB        -49.0232  -22.5852   11.5161 C.3       7 UNK        -0.1988 
     52 N         -49.3029  -24.7714   12.6017 N.am      7 UNK        -0.4454 
     53 C         -49.7364  -25.7087   13.4594 C.2       7 UNK         0.5027 
     54 O         -50.3538  -25.4557   14.4941 O.2       7 UNK        -0.5083 
     55 CA        -49.3818  -27.1687   13.1366 C.3       6 UNK         0.0844 
     56 C56       -50.3582  -27.7706   12.0965 C.3       14 UNK        -0.0967 
     57 S57       -50.0481  -29.5521   11.8499 S.3       14 UNK        -0.2604 
     58 C58       -49.2847  -29.5643   10.1908 C.3       14 UNK         0.0134 
     59 N         -47.9809  -27.2566   12.7227 N.am      6 UNK        -0.4116 
     60 C         -46.9456  -27.3241   13.5698 C.2       5 UNK         0.5034 
     61 O         -47.0594  -27.3808   14.7944 O.2       5 UNK        -0.5045 
     62 CA        -45.5376  -27.3043   12.9477 C.3       5 UNK         0.0224 
     63 CB        -45.0808  -28.7328   12.6109 C.3       5 UNK        -0.1978 
     64 N         -45.4359  -26.4672   11.7478 N.am      5 UNK        -0.4737 
     65 C         -45.6385  -25.1427   11.7266 C.2       4 UNK         0.5027 
     66 O         -45.9194  -24.4773   12.7209 O.2       4 UNK        -0.5211 
     67 CA        -45.5622  -24.4444   10.3602 C.3       4 UNK         0.0297 
     68 CB        -44.1095  -24.0543   10.0452 C.3       4 UNK        -0.1993 
     69 N         -46.1191  -25.2064    9.2363 N.am      4 UNK        -0.4486 
     70 C         -47.3245  -25.7910    9.1796 C.2       3 UNK         0.4961 
     71 O         -48.1028  -25.8825   10.1341 O.2       3 UNK        -0.5105 
     72 CA        -47.6844  -26.4101    7.8179 C.3       3 UNK         0.0299 
     73 CB        -46.9256  -27.7303    7.6000 C.3       3 UNK        -0.1972 
     74 N         -49.1215  -26.6377    7.6411 N.am      3 UNK        -0.4305 
     75 C         -50.0467  -25.6701    7.5770 C.2       2 UNK         0.5006 
     76 O         -49.7989  -24.4671    7.6789 O.2       2 UNK        -0.5106 
     77 CA        -51.4613  -26.1290    7.2100 C.3       2 UNK         0.0296 
     78 CB        -52.5374  -25.0586    7.4878 C.3       2 UNK        -0.2002 
     79 N         -51.4097  -26.4704    5.7935 N.am      2 UNK        -0.4032 
     80 C         -52.3047  -27.1765    5.0942 C.2       1 UNK         0.5000 
     81 O         -53.3836  -27.5674    5.5427 O.2       1 UNK        -0.5238 
     82 H82       -50.1977  -23.4655    2.7269 H         1 UNK         0.0889 
     83 H83       -50.6527  -24.0080    1.1093 H         1 UNK         0.0889 
     84 H84       -49.3845  -24.8525    1.9993 H         1 UNK         0.0889 
     85 H85       -50.0960  -26.8019    2.8489 H         1 UNK         0.3028 
     86 H86       -52.8586  -27.4922    3.0684 H         1 UNK         0.0864 
     87 H87       -51.2282  -29.1737    2.4369 H         1 UNK         0.0720 
     88 H88       -52.0239  -29.6681    3.8898 H         1 UNK         0.0720 
     89 H89       -48.9353  -31.0999    5.4380 H         1 UNK         0.0814 
     90 H90       -50.5219  -31.3542    4.7700 H         1 UNK         0.0814 
     91 H91       -48.6242  -30.1488    7.6490 H         1 UNK         0.1469 
     92 H92       -52.0911  -29.4134   10.0814 H         1 UNK         0.1381 
     93 H93       -52.5477  -30.4100    5.9540 H         1 UNK         0.1206 
     94 H94       -54.4403  -29.6335    7.1976 H         1 UNK         0.0813 
     95 H95       -54.2245  -28.9214    8.7760 H         1 UNK         0.0813 
     96 H96       -56.6849  -30.1509    8.2784 H         1 UNK         0.0638 
     97 H97       -57.0083  -31.7810    8.7733 H         1 UNK         0.0638 
     98 H98       -57.9427  -30.1193   10.3668 H         1 UNK         0.0568 
     99 H99       -58.5085  -32.3702   10.9473 H         1 UNK         0.3450 
    100 H100      -57.6731  -33.1170   12.2836 H         1 UNK         0.3450 
    101 H101      -55.4634  -28.8547   10.1270 H         1 UNK         0.2987 
    102 H102      -54.6287  -27.2552   11.3494 H         1 UNK         0.0766 
    103 H103      -55.6272  -24.9660   11.5027 H         1 UNK         0.0798 
    104 H104      -57.1632  -25.6479   12.0355 H         1 UNK         0.0798 
    105 H105      -56.5718  -25.9631   10.4088 H         1 UNK         0.0798 
    106 H106      -55.7377  -27.4428   14.0036 H         1 UNK         0.3198 
    107 H107      -54.6971  -26.4453   15.8205 H         1 UNK         0.0843 
    108 H108      -52.7432  -27.7896   16.6473 H         1 UNK         0.0831 
    109 H109      -52.0210  -27.7458   15.0413 H         1 UNK         0.0831 
    110 H110      -53.5378  -28.5957   15.3037 H         1 UNK         0.0831 
    111 H111      -51.9967  -25.2585   15.3223 H         1 UNK         0.3133 
    112 H112      -52.2858  -22.5238   15.7983 H         1 UNK         0.0566 
    113 H113      -52.0515  -21.4146   18.0353 H         1 UNK         0.0814 
    114 H114      -53.7319  -21.6815   17.6036 H         1 UNK         0.0814 
    115 H115      -52.9587  -22.7304   18.7811 H         1 UNK         0.0814 
    116 H116      -50.3319  -23.4066   16.2350 H         1 UNK         0.3091 
    117 H117      -48.7159  -24.8614   18.8094 H         1 UNK         0.0702 
    118 H118      -48.1852  -26.9853   17.5907 H         1 UNK         0.0785 
    119 H119      -49.6893  -26.8484   16.6837 H         1 UNK         0.0785 
    120 H120      -49.7280  -27.0898   18.4231 H         1 UNK         0.0785 
    121 H121      -48.3976  -24.8915   15.8861 H         1 UNK         0.2998 
    122 H122      -47.1055  -21.6212   15.6989 H         1 UNK         0.0697 
    123 H123      -45.0720  -22.6758   14.7447 H         1 UNK         0.0825 
    124 H124      -45.0608  -22.8229   16.4948 H         1 UNK         0.0825 
    125 H125      -45.4798  -24.2141   15.5025 H         1 UNK         0.0825 
    126 H126      -47.1915  -23.6989   13.7595 H         1 UNK         0.3029 
    127 H127      -50.6360  -23.2035   12.7828 H         1 UNK         0.0897 
    128 H128      -49.4184  -23.0052   10.5903 H         1 UNK         0.0792 
    129 H129      -49.3146  -21.5345   11.5479 H         1 UNK         0.0792 
    130 H130      -47.9362  -22.6170   11.4641 H         1 UNK         0.0792 
    131 H131      -48.8082  -25.0705   11.7654 H         1 UNK         0.3086 
    132 H132      -49.5055  -27.7366   14.0618 H         1 UNK         0.0583 
    133 H133      -51.3890  -27.6620   12.4387 H         1 UNK         0.1020 
    134 H134      -50.3024  -27.2394   11.1441 H         1 UNK         0.1020 
    135 H135      -48.7213  -28.6425   10.0506 H         1 UNK         0.0694 
    136 H136      -48.5530  -30.3735   10.1785 H         1 UNK         0.0694 
    137 H137      -47.7967  -27.1254   11.7355 H         1 UNK         0.2989 
    138 H138      -44.8589  -26.8922   13.6980 H         1 UNK         0.1055 
    139 H139      -45.1239  -29.3737   13.4929 H         1 UNK         0.0806 
    140 H140      -44.0510  -28.7472   12.2533 H         1 UNK         0.0806 
    141 H141      -45.7101  -29.1896   11.8459 H         1 UNK         0.0806 
    142 H142      -45.2154  -26.9304   10.8782 H         1 UNK         0.3061 
    143 H143      -46.1425  -23.5247   10.4330 H         1 UNK         0.0734 
    144 H144      -44.0467  -23.4432    9.1447 H         1 UNK         0.0832 
    145 H145      -43.6773  -23.4699   10.8591 H         1 UNK         0.0832 
    146 H146      -43.4764  -24.9310    9.9027 H         1 UNK         0.0832 
    147 H147      -45.5571  -25.2159    8.3970 H         1 UNK         0.3156 
    148 H148      -47.3756  -25.7085    7.0400 H         1 UNK         0.0589 
    149 H149      -47.1114  -28.4471    8.3984 H         1 UNK         0.0808 
    150 H150      -47.2005  -28.1971    6.6535 H         1 UNK         0.0808 
    151 H151      -45.8484  -27.5623    7.5687 H         1 UNK         0.0808 
    152 H152      -49.4216  -27.5971    7.5405 H         1 UNK         0.3098 
    153 H153      -51.6948  -27.0247    7.7881 H         1 UNK         0.0720 
    154 H154      -52.5168  -24.7498    8.5337 H         1 UNK         0.0791 
    155 H155      -53.5387  -25.4372    7.2831 H         1 UNK         0.0791 
    156 H156      -52.3865  -24.1670    6.8780 H         1 UNK         0.0791 
    157 H157      -50.5582  -26.2019    5.3197 H         1 UNK         0.3028 
@<TRIPOS>BOND
     1    1    2 1    
     2    1   82 1    
     3    1   83 1    
     4    1   84 1    
     5    2    3 2    
     6    2    4 am   BACKBONE|DICT|INTERRES
     7    4    5 1    
     8    4   85 1    
     9    5    6 1    
    10    5   80 1    
    11    5   86 1    
    12    6    7 1    
    13    6   87 1    
    14    6   88 1    
    15    7    8 1    
    16    8    9 1    
    17    8   89 1    
    18    8   90 1    
    19    9   10 ar   
    20    9   14 ar   
    21   10   11 ar   
    22   10   91 1    
    23   11   12 ar   
    24   11   58 1    
    25   12   13 ar   
    26   12   92 1    
    27   13   14 ar   
    28   13   15 1    
    29   14   93 1    
    30   15   16 1    
    31   15   94 1    
    32   15   95 1    
    33   16   17 1    
    34   17   18 1    
    35   17   96 1    
    36   17   97 1    
    37   18   19 1    
    38   18   22 1    
    39   18   98 1    
    40   19   20 am   BACKBONE|DICT|INTERRES
    41   19   21 2    
    42   20   99 1    
    43   20  100 1    
    44   22   23 am   BACKBONE|DICT|INTERRES
    45   22  101 1    
    46   23   24 2    
    47   23   25 1    
    48   25   26 1    
    49   25   27 1    
    50   25  102 1    
    51   26  103 1    
    52   26  104 1    
    53   26  105 1    
    54   27   28 am   BACKBONE|DICT|INTERRES
    55   27  106 1    
    56   28   29 2    
    57   28   30 1    
    58   30   31 1    
    59   30   32 1    
    60   30  107 1    
    61   31  108 1    
    62   31  109 1    
    63   31  110 1    
    64   32   33 am   BACKBONE|DICT|INTERRES
    65   32  111 1    
    66   33   34 2    
    67   33   35 1    
    68   35   36 1    
    69   35   37 1    
    70   35  112 1    
    71   36  113 1    
    72   36  114 1    
    73   36  115 1    
    74   37   38 am   BACKBONE|DICT|INTERRES
    75   37  116 1    
    76   38   39 2    
    77   38   40 1    
    78   40   41 1    
    79   40   42 1    
    80   40  117 1    
    81   41  118 1    
    82   41  119 1    
    83   41  120 1    
    84   42   43 am   BACKBONE|DICT|INTERRES
    85   42  121 1    
    86   43   44 2    
    87   43   45 1    
    88   45   46 1    
    89   45   47 1    
    90   45  122 1    
    91   46  123 1    
    92   46  124 1    
    93   46  125 1    
    94   47   48 am   BACKBONE|DICT|INTERRES
    95   47  126 1    
    96   48   49 2    
    97   48   50 1    
    98   50   51 1    
    99   50   52 1    
   100   50  127 1    
   101   51  128 1    
   102   51  129 1    
   103   51  130 1    
   104   52   53 am   BACKBONE|DICT|INTERRES
   105   52  131 1    
   106   53   54 2    
   107   53   55 1    
   108   55   56 1    
   109   55   59 1    
   110   55  132 1    
   111   56   57 1    
   112   56  133 1    
   113   56  134 1    
   114   57   58 1    
   115   58  135 1    
   116   58  136 1    
   117   59   60 am   BACKBONE|DICT|INTERRES
   118   59  137 1    
   119   60   61 2    
   120   60   62 1    
   121   62   63 1    
   122   62   64 1    
   123   62  138 1    
   124   63  139 1    
   125   63  140 1    
   126   63  141 1    
   127   64   65 am   BACKBONE|DICT|INTERRES
   128   64  142 1    
   129   65   66 2    
   130   65   67 1    
   131   67   68 1    
   132   67   69 1    
   133   67  143 1    
   134   68  144 1    
   135   68  145 1    
   136   68  146 1    
   137   69   70 am   BACKBONE|DICT|INTERRES
   138   69  147 1    
   139   70   71 2    
   140   70   72 1    
   141   72   73 1    
   142   72   74 1    
   143   72  148 1    
   144   73  149 1    
   145   73  150 1    
   146   73  151 1    
   147   74   75 am   BACKBONE|DICT|INTERRES
   148   74  152 1    
   149   75   76 2    
   150   75   77 1    
   151   77   78 1    
   152   77   79 1    
   153   77  153 1    
   154   78  154 1    
   155   78  155 1    
   156   78  156 1    
   157   79   80 am   BACKBONE|DICT|INTERRES
   158   79  157 1    
   159   80   81 2    
@<TRIPOS>SUBSTRUCTURE
     1 UNK         1 GROUP             0       ****    0 ROOT    
