@<TRIPOS>MOLECULE
3R207
157   159    1
SMALL
USER_CHARGES


@<TRIPOS>ATOM
      1 CA        -46.7175  -27.0968    3.9074 C.3       0 UNK        -0.1975 
      2 C         -47.8577  -26.3028    4.5255 C.2       0 UNK         0.4852 
      3 O         -47.9561  -25.0960    4.2967 O.2       0 UNK        -0.5216 
      4 N         -48.7151  -26.9638    5.3155 N.am      1 UNK        -0.4461 
      5 CA        -49.8652  -26.3675    6.0049 C.3       1 UNK         0.0864 
      6 C6        -50.7202  -27.4182    6.7515 C.3       14 UNK        -0.0898 
      7 S7        -51.2129  -28.8510    5.7375 S.3       14 UNK        -0.2598 
      8 C8        -52.4787  -29.6283    6.8080 C.3       14 UNK         0.0286 
      9 C9        -52.0157  -29.9226    8.2364 C.ar      14 UNK        -0.0844 
     10 C10       -50.7173  -30.3712    8.5060 C.ar      14 UNK        -0.0881 
     11 C11       -50.2962  -30.5961    9.8194 C.ar      14 UNK        -0.0643 
     12 C12       -51.1958  -30.4133   10.8718 C.ar      14 UNK        -0.0930 
     13 C13       -52.5019  -29.9859   10.6186 C.ar      14 UNK        -0.0827 
     14 C14       -52.9051  -29.7412    9.3017 C.ar      14 UNK        -0.1249 
     15 C15       -53.4615  -29.7490   11.7734 C.3       14 UNK         0.0141 
     16 S16       -54.6824  -31.0862   11.9205 S.3       14 UNK        -0.2313 
     17 C17       -55.4039  -30.7278   13.5571 C.3       14 UNK        -0.0915 
     18 CA        -56.6458  -29.7991   13.4895 C.3       13 UNK         0.0968 
     19 C         -57.4545  -29.8324   14.8206 C.2       13 UNK         0.5732 
     20 N         -57.6970  -28.7175   15.5009 N.am      13 UNK        -0.7310 
     21 O         -57.8905  -30.9011   15.2424 O.2       13 UNK        -0.5035 
     22 N         -56.2797  -28.4426   13.0557 N.am      13 UNK        -0.4233 
     23 C         -57.0853  -27.6154   12.3783 C.2       13 UNK         0.4989 
     24 O         -58.1954  -27.9445   11.9552 O.2       13 UNK        -0.4996 
     25 CA        -56.5694  -26.1799   12.1316 C.3       12 UNK         0.0216 
     26 CB        -57.7131  -25.1765   11.8722 C.3       12 UNK        -0.1964 
     27 N         -55.6799  -25.6706   13.1838 N.am      12 UNK        -0.4276 
     28 C         -55.9364  -25.5789   14.4963 C.2       12 UNK         0.5020 
     29 O         -56.9912  -25.9339   15.0270 O.2       12 UNK        -0.5489 
     30 CA        -54.7893  -25.0393   15.3679 C.3       11 UNK         0.0294 
     31 CB        -55.3174  -24.0803   16.4490 C.3       11 UNK        -0.2019 
     32 N         -53.9742  -26.0748   16.0151 N.am      11 UNK        -0.4493 
     33 C         -53.5341  -27.2374   15.5095 C.2       11 UNK         0.4932 
     34 O         -53.8379  -27.6947   14.4068 O.2       11 UNK        -0.5029 
     35 CA        -52.4979  -27.9633   16.3763 C.3       10 UNK         0.0280 
     36 CB        -52.2892  -29.4326   15.9670 C.3       10 UNK        -0.1976 
     37 N         -51.2430  -27.2357   16.2176 N.am      10 UNK        -0.4242 
     38 C         -50.7512  -26.3510   17.0939 C.2       10 UNK         0.5072 
     39 O         -51.2198  -26.1626   18.2175 O.2       10 UNK        -0.5224 
     40 CA        -49.5716  -25.4897   16.6119 C.3       9 UNK         0.0343 
     41 CB        -48.2819  -26.3203   16.5140 C.3       9 UNK        -0.2003 
     42 N         -49.8427  -24.8417   15.3254 N.am      9 UNK        -0.4272 
     43 C         -50.8046  -23.9295   15.1084 C.2       9 UNK         0.4988 
     44 O         -51.5492  -23.4911   15.9851 O.2       9 UNK        -0.5108 
     45 CA        -50.9769  -23.4294   13.6667 C.3       8 UNK         0.0248 
     46 CB        -49.9604  -22.3219   13.3419 C.3       8 UNK        -0.2001 
     47 N         -50.8304  -24.5343   12.7196 N.am      8 UNK        -0.4140 
     48 C         -51.8488  -25.2792   12.2692 C.2       8 UNK         0.5028 
     49 O         -53.0337  -25.0233   12.4869 O.2       8 UNK        -0.5428 
     50 CA        -51.5126  -26.5164   11.4220 C.3       7 UNK         0.0264 
     51 CB        -51.8448  -26.2620    9.9482 C.3       7 UNK        -0.1988 
     52 N         -50.1259  -26.9764   11.5331 N.am      7 UNK        -0.4454 
     53 C         -49.6214  -27.5952   12.6102 C.2       7 UNK         0.5027 
     54 O         -50.2792  -27.8530   13.6175 O.2       7 UNK        -0.5083 
     55 CA        -48.1103  -27.9062   12.6093 C.3       6 UNK         0.0844 
     56 C56       -47.7964  -29.3478   12.1350 C.3       14 UNK        -0.0967 
     57 S57       -47.7797  -29.5748   10.3201 S.3       14 UNK        -0.2604 
     58 C58       -48.8630  -31.0209   10.0914 C.3       14 UNK         0.0134 
     59 N         -47.3021  -26.8911   11.9258 N.am      6 UNK        -0.4116 
     60 C         -47.2744  -25.5848   12.2167 C.2       5 UNK         0.5034 
     61 O         -47.9522  -25.0841   13.1152 O.2       5 UNK        -0.5045 
     62 CA        -46.3952  -24.6604   11.3552 C.3       5 UNK         0.0224 
     63 CB        -45.1072  -24.2732   12.1063 C.3       5 UNK        -0.1978 
     64 N         -46.0989  -25.1466    9.9981 N.am      5 UNK        -0.4737 
     65 C         -45.3543  -26.1945    9.6117 C.2       4 UNK         0.5027 
     66 O         -44.8202  -26.9765   10.3971 O.2       4 UNK        -0.5211 
     67 CA        -45.1995  -26.4356    8.0993 C.3       4 UNK         0.0297 
     68 CB        -45.9521  -27.7070    7.6724 C.3       4 UNK        -0.1993 
     69 N         -45.6716  -25.3003    7.3016 N.am      4 UNK        -0.4486 
     70 C         -44.9236  -24.2310    6.9902 C.2       3 UNK         0.4961 
     71 O         -43.7318  -24.1261    7.2806 O.2       3 UNK        -0.5105 
     72 CA        -45.6079  -23.0750    6.2373 C.3       3 UNK         0.0299 
     73 CB        -45.2215  -23.0959    4.7494 C.3       3 UNK        -0.1972 
     74 N         -47.0683  -23.0873    6.3658 N.am      3 UNK        -0.4305 
     75 C         -47.7305  -22.6837    7.4621 C.2       2 UNK         0.5006 
     76 O         -47.1767  -22.2346    8.4655 O.2       2 UNK        -0.5106 
     77 CA        -49.2630  -22.8493    7.4679 C.3       2 UNK         0.0296 
     78 CB        -49.9446  -21.5797    6.9336 C.3       2 UNK        -0.2002 
     79 N         -49.7317  -24.0135    6.7094 N.am      2 UNK        -0.4032 
     80 C         -49.3918  -25.2789    6.9887 C.2       1 UNK         0.5000 
     81 O         -48.6837  -25.5966    7.9480 O.2       1 UNK        -0.5238 
     82 H82       -45.7605  -26.7192    4.2668 H         1 UNK         0.0889 
     83 H83       -46.7376  -26.9974    2.8225 H         1 UNK         0.0889 
     84 H84       -46.7796  -28.1571    4.1518 H         1 UNK         0.0889 
     85 H85       -48.5942  -27.9549    5.4672 H         1 UNK         0.3028 
     86 H86       -50.4940  -25.9047    5.2413 H         1 UNK         0.0864 
     87 H87       -51.6322  -26.9469    7.1203 H         1 UNK         0.0720 
     88 H88       -50.1820  -27.7955    7.6232 H         1 UNK         0.0720 
     89 H89       -52.8003  -30.5629    6.3472 H         1 UNK         0.0814 
     90 H90       -53.3537  -28.9766    6.8240 H         1 UNK         0.0814 
     91 H91       -50.0188  -30.5180    7.6939 H         1 UNK         0.1469 
     92 H92       -50.8739  -30.5861   11.8894 H         1 UNK         0.1381 
     93 H93       -53.9134  -29.3996    9.1110 H         1 UNK         0.1206 
     94 H94       -53.9816  -28.8030   11.6227 H         1 UNK         0.0813 
     95 H95       -52.9078  -29.6514   12.7079 H         1 UNK         0.0813 
     96 H96       -54.6426  -30.3087   14.2147 H         1 UNK         0.0638 
     97 H97       -55.6702  -31.6942   13.9889 H         1 UNK         0.0638 
     98 H98       -57.3189  -30.2231   12.7420 H         1 UNK         0.0568 
     99 H99       -58.2301  -28.7758   16.3532 H         1 UNK         0.3450 
    100 H100      -57.3756  -27.8099   15.1756 H         1 UNK         0.3450 
    101 H101      -55.3996  -28.0868   13.4218 H         1 UNK         0.2987 
    102 H102      -55.9627  -26.2328   11.2265 H         1 UNK         0.0766 
    103 H103      -57.3263  -24.1773   11.6726 H         1 UNK         0.0798 
    104 H104      -58.3904  -25.1101   12.7245 H         1 UNK         0.0798 
    105 H105      -58.3068  -25.4701   11.0056 H         1 UNK         0.0798 
    106 H106      -54.7364  -25.4195   12.8790 H         1 UNK         0.3198 
    107 H107      -54.1198  -24.4606   14.7308 H         1 UNK         0.0843 
    108 H108      -55.9284  -24.6014   17.1873 H         1 UNK         0.0831 
    109 H109      -55.9361  -23.2975   16.0081 H         1 UNK         0.0831 
    110 H110      -54.4999  -23.5864   16.9750 H         1 UNK         0.0831 
    111 H111      -53.6139  -25.8208   16.9243 H         1 UNK         0.3133 
    112 H112      -52.8373  -27.9464   17.4141 H         1 UNK         0.0566 
    113 H113      -51.5318  -29.9098   16.5887 H         1 UNK         0.0814 
    114 H114      -53.2108  -30.0023   16.0858 H         1 UNK         0.0814 
    115 H115      -51.9721  -29.5279   14.9283 H         1 UNK         0.0814 
    116 H116      -50.8142  -27.3156   15.2964 H         1 UNK         0.3091 
    117 H117      -49.4107  -24.7005   17.3493 H         1 UNK         0.0702 
    118 H118      -47.4379  -25.7083   16.1945 H         1 UNK         0.0785 
    119 H119      -48.3836  -27.1450   15.8092 H         1 UNK         0.0785 
    120 H120      -48.0233  -26.7508   17.4823 H         1 UNK         0.0785 
    121 H121      -49.2295  -25.0875   14.5542 H         1 UNK         0.2998 
    122 H122      -51.9765  -22.9981   13.5781 H         1 UNK         0.0697 
    123 H123      -48.9304  -22.6623   13.4495 H         1 UNK         0.0825 
    124 H124      -50.0905  -21.4701   14.0107 H         1 UNK         0.0825 
    125 H125      -50.0869  -21.9555   12.3231 H         1 UNK         0.0825 
    126 H126      -49.8827  -24.8269   12.5148 H         1 UNK         0.3029 
    127 H127      -52.1590  -27.3147   11.7855 H         1 UNK         0.0897 
    128 H128      -52.8768  -25.9301    9.8260 H         1 UNK         0.0792 
    129 H129      -51.7333  -27.1805    9.3774 H         1 UNK         0.0792 
    130 H130      -51.1975  -25.5017    9.5103 H         1 UNK         0.0792 
    131 H131      -49.5191  -26.8118   10.7416 H         1 UNK         0.3086 
    132 H132      -47.8051  -27.8584   13.6558 H         1 UNK         0.0583 
    133 H133      -46.8051  -29.6274   12.4953 H         1 UNK         0.1020 
    134 H134      -48.4773  -30.0604   12.6039 H         1 UNK         0.1020 
    135 H135      -48.4876  -31.6031    9.2485 H         1 UNK         0.0694 
    136 H136      -48.8118  -31.6828   10.9569 H         1 UNK         0.0694 
    137 H137      -46.6741  -27.2247   11.2032 H         1 UNK         0.2989 
    138 H138      -46.9757  -23.7468   11.2134 H         1 UNK         0.1055 
    139 H139      -45.3413  -23.8089   13.0654 H         1 UNK         0.0806 
    140 H140      -44.5164  -23.5564   11.5358 H         1 UNK         0.0806 
    141 H141      -44.4777  -25.1392   12.3127 H         1 UNK         0.0806 
    142 H142      -46.5294  -24.6076    9.2583 H         1 UNK         0.3061 
    143 H143      -44.1369  -26.5962    7.9047 H         1 UNK         0.0734 
    144 H144      -45.8023  -27.9222    6.6154 H         1 UNK         0.0832 
    145 H145      -45.5940  -28.5748    8.2281 H         1 UNK         0.0832 
    146 H146      -47.0240  -27.6294    7.8555 H         1 UNK         0.0832 
    147 H147      -46.6589  -25.2906    7.0787 H         1 UNK         0.3156 
    148 H148      -45.2345  -22.1416    6.6644 H         1 UNK         0.0589 
    149 H149      -45.5229  -24.0234    4.2626 H         1 UNK         0.0808 
    150 H150      -45.6788  -22.2678    4.2076 H         1 UNK         0.0808 
    151 H151      -44.1413  -23.0040    4.6276 H         1 UNK         0.0808 
    152 H152      -47.5862  -23.4959    5.5937 H         1 UNK         0.3098 
    153 H153      -49.5705  -22.9898    8.5066 H         1 UNK         0.0720 
    154 H154      -51.0295  -21.6452    7.0189 H         1 UNK         0.0791 
    155 H155      -49.6990  -21.3985    5.8863 H         1 UNK         0.0791 
    156 H156      -49.6300  -20.7011    7.4988 H         1 UNK         0.0791 
    157 H157      -50.2883  -23.8258    5.8875 H         1 UNK         0.3028 
@<TRIPOS>BOND
     1    1    2 1    
     2    1   82 1    
     3    1   83 1    
     4    1   84 1    
     5    2    3 2    
     6    2    4 am   BACKBONE|DICT|INTERRES
     7    4    5 1    
     8    4   85 1    
     9    5    6 1    
    10    5   80 1    
    11    5   86 1    
    12    6    7 1    
    13    6   87 1    
    14    6   88 1    
    15    7    8 1    
    16    8    9 1    
    17    8   89 1    
    18    8   90 1    
    19    9   10 ar   
    20    9   14 ar   
    21   10   11 ar   
    22   10   91 1    
    23   11   12 ar   
    24   11   58 1    
    25   12   13 ar   
    26   12   92 1    
    27   13   14 ar   
    28   13   15 1    
    29   14   93 1    
    30   15   16 1    
    31   15   94 1    
    32   15   95 1    
    33   16   17 1    
    34   17   18 1    
    35   17   96 1    
    36   17   97 1    
    37   18   19 1    
    38   18   22 1    
    39   18   98 1    
    40   19   20 am   BACKBONE|DICT|INTERRES
    41   19   21 2    
    42   20   99 1    
    43   20  100 1    
    44   22   23 am   BACKBONE|DICT|INTERRES
    45   22  101 1    
    46   23   24 2    
    47   23   25 1    
    48   25   26 1    
    49   25   27 1    
    50   25  102 1    
    51   26  103 1    
    52   26  104 1    
    53   26  105 1    
    54   27   28 am   BACKBONE|DICT|INTERRES
    55   27  106 1    
    56   28   29 2    
    57   28   30 1    
    58   30   31 1    
    59   30   32 1    
    60   30  107 1    
    61   31  108 1    
    62   31  109 1    
    63   31  110 1    
    64   32   33 am   BACKBONE|DICT|INTERRES
    65   32  111 1    
    66   33   34 2    
    67   33   35 1    
    68   35   36 1    
    69   35   37 1    
    70   35  112 1    
    71   36  113 1    
    72   36  114 1    
    73   36  115 1    
    74   37   38 am   BACKBONE|DICT|INTERRES
    75   37  116 1    
    76   38   39 2    
    77   38   40 1    
    78   40   41 1    
    79   40   42 1    
    80   40  117 1    
    81   41  118 1    
    82   41  119 1    
    83   41  120 1    
    84   42   43 am   BACKBONE|DICT|INTERRES
    85   42  121 1    
    86   43   44 2    
    87   43   45 1    
    88   45   46 1    
    89   45   47 1    
    90   45  122 1    
    91   46  123 1    
    92   46  124 1    
    93   46  125 1    
    94   47   48 am   BACKBONE|DICT|INTERRES
    95   47  126 1    
    96   48   49 2    
    97   48   50 1    
    98   50   51 1    
    99   50   52 1    
   100   50  127 1    
   101   51  128 1    
   102   51  129 1    
   103   51  130 1    
   104   52   53 am   BACKBONE|DICT|INTERRES
   105   52  131 1    
   106   53   54 2    
   107   53   55 1    
   108   55   56 1    
   109   55   59 1    
   110   55  132 1    
   111   56   57 1    
   112   56  133 1    
   113   56  134 1    
   114   57   58 1    
   115   58  135 1    
   116   58  136 1    
   117   59   60 am   BACKBONE|DICT|INTERRES
   118   59  137 1    
   119   60   61 2    
   120   60   62 1    
   121   62   63 1    
   122   62   64 1    
   123   62  138 1    
   124   63  139 1    
   125   63  140 1    
   126   63  141 1    
   127   64   65 am   BACKBONE|DICT|INTERRES
   128   64  142 1    
   129   65   66 2    
   130   65   67 1    
   131   67   68 1    
   132   67   69 1    
   133   67  143 1    
   134   68  144 1    
   135   68  145 1    
   136   68  146 1    
   137   69   70 am   BACKBONE|DICT|INTERRES
   138   69  147 1    
   139   70   71 2    
   140   70   72 1    
   141   72   73 1    
   142   72   74 1    
   143   72  148 1    
   144   73  149 1    
   145   73  150 1    
   146   73  151 1    
   147   74   75 am   BACKBONE|DICT|INTERRES
   148   74  152 1    
   149   75   76 2    
   150   75   77 1    
   151   77   78 1    
   152   77   79 1    
   153   77  153 1    
   154   78  154 1    
   155   78  155 1    
   156   78  156 1    
   157   79   80 am   BACKBONE|DICT|INTERRES
   158   79  157 1    
   159   80   81 2    
@<TRIPOS>SUBSTRUCTURE
     1 UNK         1 GROUP             0       ****    0 ROOT    
