@<TRIPOS>MOLECULE
3R207
157   159    1
SMALL
USER_CHARGES


@<TRIPOS>ATOM
      1 CA        -52.7061  -30.3060    7.4023 C.3       0 UNK        -0.1975 
      2 C         -52.1314  -30.1921    5.9998 C.2       0 UNK         0.4852 
      3 O         -51.8333  -31.2087    5.3724 O.2       0 UNK        -0.5216 
      4 N         -51.9856  -28.9560    5.5055 N.am      1 UNK        -0.4461 
      5 CA        -51.4930  -28.6234    4.1619 C.3       1 UNK         0.0864 
      6 C6        -51.6814  -27.1214    3.8309 C.3       14 UNK        -0.0898 
      7 S7        -53.4007  -26.5428    4.0399 S.3       14 UNK        -0.2598 
      8 C8        -53.2290  -25.3134    5.3747 C.3       14 UNK         0.0286 
      9 C9        -53.1763  -25.9595    6.7527 C.ar      14 UNK        -0.0844 
     10 C10       -51.9514  -26.3050    7.3330 C.ar      14 UNK        -0.0881 
     11 C11       -51.9062  -26.8714    8.6109 C.ar      14 UNK        -0.0643 
     12 C12       -53.0953  -27.0781    9.3151 C.ar      14 UNK        -0.0930 
     13 C13       -54.3245  -26.7272    8.7513 C.ar      14 UNK        -0.0827 
     14 C14       -54.3589  -26.1759    7.4671 C.ar      14 UNK        -0.1249 
     15 C15       -55.6116  -26.9018    9.5448 C.3       14 UNK         0.0141 
     16 S16       -56.5837  -28.3393    8.9958 S.3       14 UNK        -0.2313 
     17 C17       -55.5890  -29.7523    9.5799 C.3       14 UNK        -0.0915 
     18 CA        -56.1262  -30.3543   10.9044 C.3       13 UNK         0.0968 
     19 C         -55.5582  -31.7860   11.1413 C.2       13 UNK         0.5732 
     20 N         -54.7989  -32.0514   12.1978 N.am      13 UNK        -0.7310 
     21 O         -55.8244  -32.6851   10.3471 O.2       13 UNK        -0.5035 
     22 N         -55.9262  -29.4278   12.0295 N.am      13 UNK        -0.4233 
     23 C         -56.6194  -29.4508   13.1739 C.2       13 UNK         0.4989 
     24 O         -57.5865  -30.1898   13.3682 O.2       13 UNK        -0.4996 
     25 CA        -56.1504  -28.4875   14.2887 C.3       12 UNK         0.0216 
     26 CB        -56.5798  -28.9659   15.6921 C.3       12 UNK        -0.1964 
     27 N         -54.7076  -28.1889   14.2858 N.am      12 UNK        -0.4276 
     28 C         -53.6944  -29.0697   14.3257 C.2       12 UNK         0.5020 
     29 O         -53.8379  -30.2907   14.2592 O.2       12 UNK        -0.5489 
     30 CA        -52.2743  -28.4904   14.4458 C.3       11 UNK         0.0294 
     31 CB        -51.7071  -28.1712   13.0537 C.3       11 UNK        -0.2019 
     32 N         -52.1793  -27.2966   15.2925 N.am      11 UNK        -0.4493 
     33 C         -52.4725  -27.2494   16.6009 C.2       11 UNK         0.4932 
     34 O         -52.9244  -28.1986   17.2436 O.2       11 UNK        -0.5029 
     35 CA        -52.1656  -25.9130   17.3004 C.3       10 UNK         0.0280 
     36 CB        -52.4982  -25.9162   18.8075 C.3       10 UNK        -0.1976 
     37 N         -50.7803  -25.4944   17.0641 N.am      10 UNK        -0.4242 
     38 C         -49.6528  -26.1389   17.4065 C.2       10 UNK         0.5072 
     39 O         -49.6195  -27.1796   18.0644 O.2       10 UNK        -0.5224 
     40 CA        -48.3243  -25.5310   16.9165 C.3       9 UNK         0.0343 
     41 CB        -47.8116  -26.3015   15.6885 C.3       9 UNK        -0.2003 
     42 N         -48.4218  -24.1107   16.5738 N.am      9 UNK        -0.4272 
     43 C         -48.6039  -23.1150   17.4527 C.2       9 UNK         0.4988 
     44 O         -48.6290  -23.2692   18.6740 O.2       9 UNK        -0.5108 
     45 CA        -48.8326  -21.7157   16.8606 C.3       8 UNK         0.0248 
     46 CB        -47.4938  -21.0341   16.5349 C.3       8 UNK        -0.2001 
     47 N         -49.6717  -21.7616   15.6594 N.am      8 UNK        -0.4140 
     48 C         -50.9938  -21.9869   15.6661 C.2       8 UNK         0.5028 
     49 O         -51.6576  -22.1434   16.6906 O.2       8 UNK        -0.5428 
     50 CA        -51.6923  -22.0770   14.2993 C.3       7 UNK         0.0264 
     51 CB        -52.0590  -20.6756   13.7847 C.3       7 UNK        -0.1988 
     52 N         -50.8865  -22.7733   13.2936 N.am      7 UNK        -0.4454 
     53 C         -50.6533  -24.0940   13.2935 C.2       7 UNK         0.5027 
     54 O         -51.1177  -24.8721   14.1290 O.2       7 UNK        -0.5083 
     55 CA        -49.7365  -24.6419   12.1809 C.3       6 UNK         0.0844 
     56 C56       -50.5717  -24.9945   10.9283 C.3       14 UNK        -0.0967 
     57 S57       -49.5655  -25.7901    9.6286 S.3       14 UNK        -0.2604 
     58 C58       -50.5718  -27.2542    9.2338 C.3       14 UNK         0.0134 
     59 N         -48.6169  -23.7564   11.8412 N.am      6 UNK        -0.4116 
     60 C         -47.6853  -23.2786   12.6765 C.2       5 UNK         0.5034 
     61 O         -47.7204  -23.4304   13.8983 O.2       5 UNK        -0.5045 
     62 CA        -46.5375  -22.4744   12.0325 C.3       5 UNK         0.0224 
     63 CB        -45.2691  -22.4449   12.9125 C.3       5 UNK        -0.1978 
     64 N         -46.2154  -22.8984   10.6588 N.am      5 UNK        -0.4737 
     65 C         -45.7488  -24.0943   10.2680 C.2       4 UNK         0.5027 
     66 O         -45.5233  -25.0386   11.0297 O.2       4 UNK        -0.5211 
     67 CA        -45.4742  -24.2507    8.7666 C.3       4 UNK         0.0297 
     68 CB        -44.2529  -23.4149    8.3339 C.3       4 UNK        -0.1993 
     69 N         -45.2403  -25.6631    8.4823 N.am      4 UNK        -0.4486 
     70 C         -45.3387  -26.2567    7.2887 C.2       3 UNK         0.4961 
     71 O         -45.6246  -25.6536    6.2513 O.2       3 UNK        -0.5105 
     72 CA        -45.0228  -27.7674    7.2213 C.3       3 UNK         0.0299 
     73 CB        -45.0975  -28.4929    8.5862 C.3       3 UNK        -0.1972 
     74 N         -45.8357  -28.4582    6.2111 N.am      3 UNK        -0.4305 
     75 C         -47.1686  -28.5968    6.2180 C.2       2 UNK         0.5006 
     76 O         -47.9042  -28.2063    7.1275 O.2       2 UNK        -0.5106 
     77 CA        -47.7859  -29.3131    5.0106 C.3       2 UNK         0.0296 
     78 CB        -47.5561  -30.8344    5.0829 C.3       2 UNK        -0.2002 
     79 N         -49.2169  -29.0298    5.0004 N.am      2 UNK        -0.4032 
     80 C         -50.0193  -29.0259    3.9302 C.2       1 UNK         0.5000 
     81 O         -49.6412  -29.3093    2.7915 O.2       1 UNK        -0.5238 
     82 H82       -53.3089  -29.4327    7.6472 H         1 UNK         0.0889 
     83 H83       -51.9046  -30.3918    8.1354 H         1 UNK         0.0889 
     84 H84       -53.3434  -31.1861    7.4837 H         1 UNK         0.0889 
     85 H85       -52.2931  -28.1657    6.0576 H         1 UNK         0.3028 
     86 H86       -52.0910  -29.2006    3.4533 H         1 UNK         0.0864 
     87 H87       -51.0112  -26.5070    4.4341 H         1 UNK         0.0720 
     88 H88       -51.4023  -26.9304    2.7927 H         1 UNK         0.0720 
     89 H89       -54.0796  -24.6318    5.3258 H         1 UNK         0.0814 
     90 H90       -52.3461  -24.6951    5.2053 H         1 UNK         0.0814 
     91 H91       -51.0273  -26.1233    6.8012 H         1 UNK         0.1469 
     92 H92       -53.0639  -27.5058   10.3065 H         1 UNK         0.1381 
     93 H93       -55.3093  -25.9013    7.0294 H         1 UNK         0.1206 
     94 H94       -55.4043  -26.9828   10.6121 H         1 UNK         0.0813 
     95 H95       -56.2242  -26.0066    9.4283 H         1 UNK         0.0813 
     96 H96       -55.6157  -30.4934    8.7789 H         1 UNK         0.0638 
     97 H97       -54.5435  -29.4657    9.6884 H         1 UNK         0.0638 
     98 H98       -57.2021  -30.4953   10.7841 H         1 UNK         0.0568 
     99 H99       -54.5629  -31.3371   12.8823 H         1 UNK         0.3450 
    100 H100      -54.4535  -32.9888   12.3238 H         1 UNK         0.3450 
    101 H101      -55.1315  -28.8127   11.9653 H         1 UNK         0.2987 
    102 H102      -56.6576  -27.5413   14.0943 H         1 UNK         0.0766 
    103 H103      -56.1484  -29.9382   15.9334 H         1 UNK         0.0798 
    104 H104      -56.2675  -28.2623   16.4641 H         1 UNK         0.0798 
    105 H105      -57.6640  -29.0619   15.7639 H         1 UNK         0.0798 
    106 H106      -54.4640  -27.2088   14.3277 H         1 UNK         0.3198 
    107 H107      -51.6487  -29.2614   14.9008 H         1 UNK         0.0843 
    108 H108      -51.7494  -29.0453   12.4020 H         1 UNK         0.0831 
    109 H109      -50.6635  -27.8610   13.1112 H         1 UNK         0.0831 
    110 H110      -52.2684  -27.3718   12.5712 H         1 UNK         0.0831 
    111 H111      -51.7975  -26.4562   14.8613 H         1 UNK         0.3133 
    112 H112      -52.7974  -25.1608   16.8253 H         1 UNK         0.0566 
    113 H113      -52.2883  -24.9470   19.2599 H         1 UNK         0.0814 
    114 H114      -53.5551  -26.1294   18.9716 H         1 UNK         0.0814 
    115 H115      -51.9277  -26.6704   19.3503 H         1 UNK         0.0814 
    116 H116      -50.6769  -24.6738   16.4826 H         1 UNK         0.3091 
    117 H117      -47.5943  -25.6369   17.7216 H         1 UNK         0.0702 
    118 H118      -46.8492  -25.9164   15.3505 H         1 UNK         0.0785 
    119 H119      -48.5099  -26.2353   14.8533 H         1 UNK         0.0785 
    120 H120      -47.6764  -27.3593   15.9181 H         1 UNK         0.0785 
    121 H121      -48.3277  -23.8742   15.5880 H         1 UNK         0.2998 
    122 H122      -49.3451  -21.1132   17.6138 H         1 UNK         0.0697 
    123 H123      -46.9253  -21.5915   15.7904 H         1 UNK         0.0825 
    124 H124      -46.8709  -20.9561   17.4270 H         1 UNK         0.0825 
    125 H125      -47.6440  -20.0230   16.1562 H         1 UNK         0.0825 
    126 H126      -49.1962  -21.6967   14.7710 H         1 UNK         0.3029 
    127 H127      -52.6186  -22.6390   14.4405 H         1 UNK         0.0897 
    128 H128      -52.6279  -20.7304   12.8563 H         1 UNK         0.0792 
    129 H129      -52.6774  -20.1444   14.5099 H         1 UNK         0.0792 
    130 H130      -51.1744  -20.0643   13.6017 H         1 UNK         0.0792 
    131 H131      -50.4756  -22.2109   12.5624 H         1 UNK         0.3086 
    132 H132      -49.2968  -25.5647   12.5644 H         1 UNK         0.0583 
    133 H133      -51.3967  -25.6536   11.1994 H         1 UNK         0.1020 
    134 H134      -51.0328  -24.1016   10.5013 H         1 UNK         0.1020 
    135 H135      -50.0254  -27.8889    8.5376 H         1 UNK         0.0694 
    136 H136      -50.7130  -27.8489   10.1374 H         1 UNK         0.0694 
    137 H137      -48.4846  -23.5912   10.8544 H         1 UNK         0.2989 
    138 H138      -46.9036  -21.4491   11.9579 H         1 UNK         0.1055 
    139 H139      -44.4696  -21.8752   12.4390 H         1 UNK         0.0806 
    140 H140      -44.8925  -23.4481   13.1149 H         1 UNK         0.0806 
    141 H141      -45.4699  -21.9759   13.8759 H         1 UNK         0.0806 
    142 H142      -46.3607  -22.1953    9.9459 H         1 UNK         0.3061 
    143 H143      -46.3617  -23.9216    8.2216 H         1 UNK         0.0734 
    144 H144      -44.4051  -22.3541    8.5353 H         1 UNK         0.0832 
    145 H145      -43.3501  -23.7211    8.8639 H         1 UNK         0.0832 
    146 H146      -44.0608  -23.5111    7.2652 H         1 UNK         0.0832 
    147 H147      -45.0607  -26.2176    9.3115 H         1 UNK         0.3156 
    148 H148      -43.9918  -27.8395    6.8719 H         1 UNK         0.0589 
    149 H149      -46.0688  -28.3642    9.0660 H         1 UNK         0.0808 
    150 H150      -44.9259  -29.5633    8.4717 H         1 UNK         0.0808 
    151 H151      -44.3364  -28.1249    9.2751 H         1 UNK         0.0808 
    152 H152      -45.3283  -28.7906    5.4028 H         1 UNK         0.3098 
    153 H153      -47.3312  -28.9110    4.1027 H         1 UNK         0.0720 
    154 H154      -47.9928  -31.3428    4.2230 H         1 UNK         0.0791 
    155 H155      -47.9980  -31.2636    5.9832 H         1 UNK         0.0791 
    156 H156      -46.4923  -31.0743    5.0932 H         1 UNK         0.0791 
    157 H157      -49.5809  -28.7370    5.8988 H         1 UNK         0.3028 
@<TRIPOS>BOND
     1    1    2 1    
     2    1   82 1    
     3    1   83 1    
     4    1   84 1    
     5    2    3 2    
     6    2    4 am   BACKBONE|DICT|INTERRES
     7    4    5 1    
     8    4   85 1    
     9    5    6 1    
    10    5   80 1    
    11    5   86 1    
    12    6    7 1    
    13    6   87 1    
    14    6   88 1    
    15    7    8 1    
    16    8    9 1    
    17    8   89 1    
    18    8   90 1    
    19    9   10 ar   
    20    9   14 ar   
    21   10   11 ar   
    22   10   91 1    
    23   11   12 ar   
    24   11   58 1    
    25   12   13 ar   
    26   12   92 1    
    27   13   14 ar   
    28   13   15 1    
    29   14   93 1    
    30   15   16 1    
    31   15   94 1    
    32   15   95 1    
    33   16   17 1    
    34   17   18 1    
    35   17   96 1    
    36   17   97 1    
    37   18   19 1    
    38   18   22 1    
    39   18   98 1    
    40   19   20 am   BACKBONE|DICT|INTERRES
    41   19   21 2    
    42   20   99 1    
    43   20  100 1    
    44   22   23 am   BACKBONE|DICT|INTERRES
    45   22  101 1    
    46   23   24 2    
    47   23   25 1    
    48   25   26 1    
    49   25   27 1    
    50   25  102 1    
    51   26  103 1    
    52   26  104 1    
    53   26  105 1    
    54   27   28 am   BACKBONE|DICT|INTERRES
    55   27  106 1    
    56   28   29 2    
    57   28   30 1    
    58   30   31 1    
    59   30   32 1    
    60   30  107 1    
    61   31  108 1    
    62   31  109 1    
    63   31  110 1    
    64   32   33 am   BACKBONE|DICT|INTERRES
    65   32  111 1    
    66   33   34 2    
    67   33   35 1    
    68   35   36 1    
    69   35   37 1    
    70   35  112 1    
    71   36  113 1    
    72   36  114 1    
    73   36  115 1    
    74   37   38 am   BACKBONE|DICT|INTERRES
    75   37  116 1    
    76   38   39 2    
    77   38   40 1    
    78   40   41 1    
    79   40   42 1    
    80   40  117 1    
    81   41  118 1    
    82   41  119 1    
    83   41  120 1    
    84   42   43 am   BACKBONE|DICT|INTERRES
    85   42  121 1    
    86   43   44 2    
    87   43   45 1    
    88   45   46 1    
    89   45   47 1    
    90   45  122 1    
    91   46  123 1    
    92   46  124 1    
    93   46  125 1    
    94   47   48 am   BACKBONE|DICT|INTERRES
    95   47  126 1    
    96   48   49 2    
    97   48   50 1    
    98   50   51 1    
    99   50   52 1    
   100   50  127 1    
   101   51  128 1    
   102   51  129 1    
   103   51  130 1    
   104   52   53 am   BACKBONE|DICT|INTERRES
   105   52  131 1    
   106   53   54 2    
   107   53   55 1    
   108   55   56 1    
   109   55   59 1    
   110   55  132 1    
   111   56   57 1    
   112   56  133 1    
   113   56  134 1    
   114   57   58 1    
   115   58  135 1    
   116   58  136 1    
   117   59   60 am   BACKBONE|DICT|INTERRES
   118   59  137 1    
   119   60   61 2    
   120   60   62 1    
   121   62   63 1    
   122   62   64 1    
   123   62  138 1    
   124   63  139 1    
   125   63  140 1    
   126   63  141 1    
   127   64   65 am   BACKBONE|DICT|INTERRES
   128   64  142 1    
   129   65   66 2    
   130   65   67 1    
   131   67   68 1    
   132   67   69 1    
   133   67  143 1    
   134   68  144 1    
   135   68  145 1    
   136   68  146 1    
   137   69   70 am   BACKBONE|DICT|INTERRES
   138   69  147 1    
   139   70   71 2    
   140   70   72 1    
   141   72   73 1    
   142   72   74 1    
   143   72  148 1    
   144   73  149 1    
   145   73  150 1    
   146   73  151 1    
   147   74   75 am   BACKBONE|DICT|INTERRES
   148   74  152 1    
   149   75   76 2    
   150   75   77 1    
   151   77   78 1    
   152   77   79 1    
   153   77  153 1    
   154   78  154 1    
   155   78  155 1    
   156   78  156 1    
   157   79   80 am   BACKBONE|DICT|INTERRES
   158   79  157 1    
   159   80   81 2    
@<TRIPOS>SUBSTRUCTURE
     1 UNK         1 GROUP             0       ****    0 ROOT    
