@<TRIPOS>MOLECULE
3R207
157   159    1
SMALL
USER_CHARGES


@<TRIPOS>ATOM
      1 CA        -47.2062  -29.3157   11.9351 C.3       0 UNK        -0.1975 
      2 C         -47.1199  -29.6519   10.4540 C.2       0 UNK         0.4852 
      3 O         -46.1796  -30.3255   10.0339 O.2       0 UNK        -0.5216 
      4 N         -48.0852  -29.1772    9.6546 N.am      1 UNK        -0.4461 
      5 CA        -48.1936  -29.4135    8.2078 C.3       1 UNK         0.0864 
      6 C6        -49.6710  -29.4584    7.7352 C.3       14 UNK        -0.0898 
      7 S7        -50.6763  -27.9805    8.1161 S.3       14 UNK        -0.2598 
      8 C8        -52.1927  -28.4575    7.2221 C.3       14 UNK         0.0286 
      9 C9        -53.4018  -27.6296    7.6328 C.ar      14 UNK        -0.0844 
     10 C10       -53.5873  -26.3466    7.1086 C.ar      14 UNK        -0.0881 
     11 C11       -54.7011  -25.5817    7.4739 C.ar      14 UNK        -0.0643 
     12 C12       -55.6489  -26.1294    8.3432 C.ar      14 UNK        -0.0930 
     13 C13       -55.4964  -27.4241    8.8461 C.ar      14 UNK        -0.0827 
     14 C14       -54.3627  -28.1651    8.4985 C.ar      14 UNK        -0.1249 
     15 C15       -56.5859  -28.0263    9.7241 C.3       14 UNK         0.0141 
     16 S16       -56.1640  -27.9474   11.4917 S.3       14 UNK        -0.2313 
     17 C17       -55.3329  -29.5506   11.7548 C.3       14 UNK        -0.0915 
     18 CA        -55.8413  -30.2814   13.0229 C.3       13 UNK         0.0968 
     19 C         -55.2041  -31.6892   13.1445 C.2       13 UNK         0.5732 
     20 N         -55.9135  -32.7307   12.7314 N.am      13 UNK        -0.7310 
     21 O         -54.0594  -31.8419   13.5659 O.2       13 UNK        -0.5035 
     22 N         -55.6002  -29.4915   14.2368 N.am      13 UNK        -0.4233 
     23 C         -56.3431  -29.5741   15.3473 C.2       13 UNK         0.4989 
     24 O         -57.3219  -30.3157   15.4583 O.2       13 UNK        -0.4996 
     25 CA        -55.9463  -28.6501   16.5155 C.3       12 UNK         0.0216 
     26 CB        -56.6824  -28.9780   17.8331 C.3       12 UNK        -0.1964 
     27 N         -54.4970  -28.5751   16.7235 N.am      12 UNK        -0.4276 
     28 C         -53.6635  -29.5684   17.0749 C.2       12 UNK         0.5020 
     29 O         -54.0347  -30.7141   17.3334 O.2       12 UNK        -0.5489 
     30 CA        -52.1582  -29.2396   17.1528 C.3       11 UNK         0.0294 
     31 CB        -51.3325  -30.2344   16.3164 C.3       11 UNK        -0.2019 
     32 N         -51.8668  -27.8816   16.6874 N.am      11 UNK        -0.4493 
     33 C         -51.7275  -26.8032   17.4715 C.2       11 UNK         0.4932 
     34 O         -51.7426  -26.8459   18.7015 O.2       11 UNK        -0.5029 
     35 CA        -51.5718  -25.4383   16.7710 C.3       10 UNK         0.0280 
     36 CB        -50.0921  -25.0268   16.7214 C.3       10 UNK        -0.1976 
     37 N         -52.1284  -25.4122   15.4141 N.am      10 UNK        -0.4242 
     38 C         -53.4352  -25.5158   15.1225 C.2       10 UNK         0.5072 
     39 O         -54.3189  -25.5825   15.9768 O.2       10 UNK        -0.5224 
     40 CA        -53.8186  -25.6606   13.6378 C.3       9 UNK         0.0343 
     41 CB        -54.1507  -24.2930   13.0236 C.3       9 UNK        -0.2003 
     42 N         -52.7834  -26.3315   12.8428 N.am      9 UNK        -0.4272 
     43 C         -52.3776  -27.5928   13.0632 C.2       9 UNK         0.4988 
     44 O         -52.9034  -28.3206   13.9053 O.2       9 UNK        -0.5108 
     45 CA        -51.1646  -28.1328   12.2822 C.3       8 UNK         0.0248 
     46 CB        -51.5808  -29.2272   11.2888 C.3       8 UNK        -0.2001 
     47 N         -50.3913  -27.0965   11.5923 N.am      8 UNK        -0.4140 
     48 C         -49.6311  -26.1882   12.2227 C.2       8 UNK         0.5028 
     49 O         -49.4935  -26.1506   13.4454 O.2       8 UNK        -0.5428 
     50 CA        -48.9248  -25.1304   11.3562 C.3       7 UNK         0.0264 
     51 CB        -47.5138  -25.6188   10.9963 C.3       7 UNK        -0.1988 
     52 N         -49.6271  -24.7493   10.1240 N.am      7 UNK        -0.4454 
     53 C         -50.9018  -24.3353   10.0345 C.2       7 UNK         0.5027 
     54 O         -51.6739  -24.3008   10.9931 O.2       7 UNK        -0.5083 
     55 CA        -51.3823  -23.9032    8.6329 C.3       6 UNK         0.0844 
     56 C56       -52.8116  -23.2934    8.6305 C.3       14 UNK        -0.0967 
     57 S57       -53.4340  -23.1147    6.9224 S.3       14 UNK        -0.2604 
     58 C58       -54.9210  -24.1740    6.9230 C.3       14 UNK         0.0134 
     59 N         -50.3916  -23.0549    7.9581 N.am      6 UNK        -0.4116 
     60 C         -49.9733  -21.8479    8.3637 C.2       5 UNK         0.5034 
     61 O         -50.3773  -21.2689    9.3744 O.2       5 UNK        -0.5045 
     62 CA        -48.8831  -21.1845    7.5072 C.3       5 UNK         0.0224 
     63 CB        -49.2692  -19.7453    7.1236 C.3       5 UNK        -0.1978 
     64 N         -47.6043  -21.1721    8.2194 N.am      5 UNK        -0.4737 
     65 C         -46.9001  -22.2676    8.5248 C.2       4 UNK         0.5027 
     66 O         -47.2333  -23.4131    8.2026 O.2       4 UNK        -0.5211 
     67 CA        -45.6102  -22.0499    9.3216 C.3       4 UNK         0.0297 
     68 CB        -45.8950  -21.8860   10.8266 C.3       4 UNK        -0.1993 
     69 N         -44.7535  -23.2024    9.0751 N.am      4 UNK        -0.4486 
     70 C         -43.4281  -23.2632    9.2269 C.2       3 UNK         0.4961 
     71 O         -42.7603  -22.3536    9.7209 O.2       3 UNK        -0.5105 
     72 CA        -42.7031  -24.5129    8.6874 C.3       3 UNK         0.0299 
     73 CB        -41.9106  -25.2410    9.7937 C.3       3 UNK        -0.1972 
     74 N         -43.5533  -25.4344    7.9128 N.am      3 UNK        -0.4305 
     75 C         -44.4695  -26.3042    8.3630 C.2       2 UNK         0.5006 
     76 O         -44.7438  -26.4741    9.5529 O.2       2 UNK        -0.5106 
     77 CA        -45.2069  -27.1171    7.2896 C.3       2 UNK         0.0296 
     78 CB        -44.2361  -28.0266    6.5067 C.3       2 UNK        -0.2002 
     79 N         -46.2351  -27.9282    7.9350 N.am      2 UNK        -0.4032 
     80 C         -47.2865  -28.5038    7.3403 C.2       1 UNK         0.5000 
     81 O         -47.5348  -28.3637    6.1406 O.2       1 UNK        -0.5238 
     82 H82       -46.4236  -28.6069   12.2047 H         1 UNK         0.0889 
     83 H83       -47.0710  -30.2167   12.5329 H         1 UNK         0.0889 
     84 H84       -48.1678  -28.8804   12.2006 H         1 UNK         0.0889 
     85 H85       -48.8294  -28.6224   10.0482 H         1 UNK         0.3028 
     86 H86       -47.8023  -30.4165    8.0230 H         1 UNK         0.0864 
     87 H87       -49.7270  -29.6577    6.6632 H         1 UNK         0.0720 
     88 H88       -50.1603  -30.3115    8.2082 H         1 UNK         0.0720 
     89 H89       -52.3971  -29.5153    7.3957 H         1 UNK         0.0814 
     90 H90       -52.0225  -28.3543    6.1493 H         1 UNK         0.0814 
     91 H91       -52.8588  -25.9404    6.4204 H         1 UNK         0.1469 
     92 H92       -56.5226  -25.5526    8.6149 H         1 UNK         0.1381 
     93 H93       -54.2399  -29.1666    8.8872 H         1 UNK         0.1206 
     94 H94       -56.7920  -29.0529    9.4192 H         1 UNK         0.0813 
     95 H95       -57.5220  -27.4858    9.5764 H         1 UNK         0.0813 
     96 H96       -55.4766  -30.1835   10.8780 H         1 UNK         0.0638 
     97 H97       -54.2646  -29.3692   11.8194 H         1 UNK         0.0638 
     98 H98       -56.9199  -30.4091   12.9080 H         1 UNK         0.0568 
     99 H99       -55.5073  -33.6513   12.7883 H         1 UNK         0.3450 
    100 H100      -56.8496  -32.6175   12.3749 H         1 UNK         0.3450 
    101 H101      -54.7489  -28.9388   14.2368 H         1 UNK         0.2987 
    102 H102      -56.2554  -27.6478   16.2152 H         1 UNK         0.0766 
    103 H103      -56.4753  -29.9931   18.1732 H         1 UNK         0.0798 
    104 H104      -56.3948  -28.2916   18.6295 H         1 UNK         0.0798 
    105 H105      -57.7626  -28.8927   17.7084 H         1 UNK         0.0798 
    106 H106      -54.0917  -27.6646   16.5415 H         1 UNK         0.3198 
    107 H107      -51.8589  -29.3459   18.1976 H         1 UNK         0.0843 
    108 H108      -51.4524  -31.2520   16.6902 H         1 UNK         0.0831 
    109 H109      -50.2686  -30.0004   16.3543 H         1 UNK         0.0831 
    110 H110      -51.6403  -30.2379   15.2700 H         1 UNK         0.0831 
    111 H111      -51.8859  -27.7568   15.6822 H         1 UNK         0.3133 
    112 H112      -52.1109  -24.6994   17.3675 H         1 UNK         0.0566 
    113 H113      -49.9673  -24.0402   16.2747 H         1 UNK         0.0814 
    114 H114      -49.6654  -24.9840   17.7245 H         1 UNK         0.0814 
    115 H115      -49.4953  -25.7345   16.1444 H         1 UNK         0.0814 
    116 H116      -51.4617  -25.3956   14.6522 H         1 UNK         0.3091 
    117 H117      -54.7184  -26.2772   13.5929 H         1 UNK         0.0702 
    118 H118      -54.4635  -24.3923   11.9837 H         1 UNK         0.0785 
    119 H119      -53.2946  -23.6180   13.0537 H         1 UNK         0.0785 
    120 H120      -54.9664  -23.8109   13.5639 H         1 UNK         0.0785 
    121 H121      -52.3156  -25.7652   12.1404 H         1 UNK         0.2998 
    122 H122      -50.5085  -28.5979   13.0211 H         1 UNK         0.0697 
    123 H123      -52.2728  -28.8472   10.5370 H         1 UNK         0.0825 
    124 H124      -52.0724  -30.0523   11.8061 H         1 UNK         0.0825 
    125 H125      -50.7208  -29.6529   10.7742 H         1 UNK         0.0825 
    126 H126      -50.5172  -27.0149   10.5927 H         1 UNK         0.3029 
    127 H127      -48.8331  -24.2279   11.9638 H         1 UNK         0.0897 
    128 H128      -46.9399  -24.8509   10.4815 H         1 UNK         0.0792 
    129 H129      -46.9496  -25.8946   11.8884 H         1 UNK         0.0792 
    130 H130      -47.5426  -26.4905   10.3443 H         1 UNK         0.0792 
    131 H131      -49.0584  -24.7027    9.2882 H         1 UNK         0.3086 
    132 H132      -51.4170  -24.8290    8.0587 H         1 UNK         0.0583 
    133 H133      -53.5010  -23.9144    9.2050 H         1 UNK         0.1020 
    134 H134      -52.8227  -22.3175    9.1180 H         1 UNK         0.1020 
    135 H135      -55.6966  -23.6597    7.4928 H         1 UNK         0.0694 
    136 H136      -55.2934  -24.2536    5.9010 H         1 UNK         0.0694 
    137 H137      -49.9729  -23.4523    7.1294 H         1 UNK         0.2989 
    138 H138      -48.7561  -21.7558    6.5847 H         1 UNK         0.1055 
    139 H139      -48.5245  -19.2958    6.4665 H         1 UNK         0.0806 
    140 H140      -49.3740  -19.1045    8.0002 H         1 UNK         0.0806 
    141 H141      -50.2219  -19.7274    6.5923 H         1 UNK         0.0806 
    142 H142      -47.2778  -20.2739    8.5468 H         1 UNK         0.3061 
    143 H143      -45.1142  -21.1541    8.9418 H         1 UNK         0.0734 
    144 H144      -46.5402  -21.0263   11.0108 H         1 UNK         0.0832 
    145 H145      -46.3923  -22.7593   11.2467 H         1 UNK         0.0832 
    146 H146      -44.9761  -21.7239   11.3900 H         1 UNK         0.0832 
    147 H147      -45.2403  -23.9809    8.6474 H         1 UNK         0.3156 
    148 H148      -41.9717  -24.1363    7.9707 H         1 UNK         0.0589 
    149 H149      -42.5544  -25.5705   10.6095 H         1 UNK         0.0808 
    150 H150      -41.3885  -26.1137    9.4017 H         1 UNK         0.0808 
    151 H151      -41.1580  -24.5821   10.2286 H         1 UNK         0.0808 
    152 H152      -43.4288  -25.3723    6.9112 H         1 UNK         0.3098 
    153 H153      -45.6890  -26.4144    6.6066 H         1 UNK         0.0720 
    154 H154      -44.7568  -28.6018    5.7410 H         1 UNK         0.0791 
    155 H155      -43.7311  -28.7333    7.1666 H         1 UNK         0.0791 
    156 H156      -43.4659  -27.4481    5.9960 H         1 UNK         0.0791 
    157 H157      -46.0933  -28.0570    8.9295 H         1 UNK         0.3028 
@<TRIPOS>BOND
     1    1    2 1    
     2    1   82 1    
     3    1   83 1    
     4    1   84 1    
     5    2    3 2    
     6    2    4 am   BACKBONE|DICT|INTERRES
     7    4    5 1    
     8    4   85 1    
     9    5    6 1    
    10    5   80 1    
    11    5   86 1    
    12    6    7 1    
    13    6   87 1    
    14    6   88 1    
    15    7    8 1    
    16    8    9 1    
    17    8   89 1    
    18    8   90 1    
    19    9   10 ar   
    20    9   14 ar   
    21   10   11 ar   
    22   10   91 1    
    23   11   12 ar   
    24   11   58 1    
    25   12   13 ar   
    26   12   92 1    
    27   13   14 ar   
    28   13   15 1    
    29   14   93 1    
    30   15   16 1    
    31   15   94 1    
    32   15   95 1    
    33   16   17 1    
    34   17   18 1    
    35   17   96 1    
    36   17   97 1    
    37   18   19 1    
    38   18   22 1    
    39   18   98 1    
    40   19   20 am   BACKBONE|DICT|INTERRES
    41   19   21 2    
    42   20   99 1    
    43   20  100 1    
    44   22   23 am   BACKBONE|DICT|INTERRES
    45   22  101 1    
    46   23   24 2    
    47   23   25 1    
    48   25   26 1    
    49   25   27 1    
    50   25  102 1    
    51   26  103 1    
    52   26  104 1    
    53   26  105 1    
    54   27   28 am   BACKBONE|DICT|INTERRES
    55   27  106 1    
    56   28   29 2    
    57   28   30 1    
    58   30   31 1    
    59   30   32 1    
    60   30  107 1    
    61   31  108 1    
    62   31  109 1    
    63   31  110 1    
    64   32   33 am   BACKBONE|DICT|INTERRES
    65   32  111 1    
    66   33   34 2    
    67   33   35 1    
    68   35   36 1    
    69   35   37 1    
    70   35  112 1    
    71   36  113 1    
    72   36  114 1    
    73   36  115 1    
    74   37   38 am   BACKBONE|DICT|INTERRES
    75   37  116 1    
    76   38   39 2    
    77   38   40 1    
    78   40   41 1    
    79   40   42 1    
    80   40  117 1    
    81   41  118 1    
    82   41  119 1    
    83   41  120 1    
    84   42   43 am   BACKBONE|DICT|INTERRES
    85   42  121 1    
    86   43   44 2    
    87   43   45 1    
    88   45   46 1    
    89   45   47 1    
    90   45  122 1    
    91   46  123 1    
    92   46  124 1    
    93   46  125 1    
    94   47   48 am   BACKBONE|DICT|INTERRES
    95   47  126 1    
    96   48   49 2    
    97   48   50 1    
    98   50   51 1    
    99   50   52 1    
   100   50  127 1    
   101   51  128 1    
   102   51  129 1    
   103   51  130 1    
   104   52   53 am   BACKBONE|DICT|INTERRES
   105   52  131 1    
   106   53   54 2    
   107   53   55 1    
   108   55   56 1    
   109   55   59 1    
   110   55  132 1    
   111   56   57 1    
   112   56  133 1    
   113   56  134 1    
   114   57   58 1    
   115   58  135 1    
   116   58  136 1    
   117   59   60 am   BACKBONE|DICT|INTERRES
   118   59  137 1    
   119   60   61 2    
   120   60   62 1    
   121   62   63 1    
   122   62   64 1    
   123   62  138 1    
   124   63  139 1    
   125   63  140 1    
   126   63  141 1    
   127   64   65 am   BACKBONE|DICT|INTERRES
   128   64  142 1    
   129   65   66 2    
   130   65   67 1    
   131   67   68 1    
   132   67   69 1    
   133   67  143 1    
   134   68  144 1    
   135   68  145 1    
   136   68  146 1    
   137   69   70 am   BACKBONE|DICT|INTERRES
   138   69  147 1    
   139   70   71 2    
   140   70   72 1    
   141   72   73 1    
   142   72   74 1    
   143   72  148 1    
   144   73  149 1    
   145   73  150 1    
   146   73  151 1    
   147   74   75 am   BACKBONE|DICT|INTERRES
   148   74  152 1    
   149   75   76 2    
   150   75   77 1    
   151   77   78 1    
   152   77   79 1    
   153   77  153 1    
   154   78  154 1    
   155   78  155 1    
   156   78  156 1    
   157   79   80 am   BACKBONE|DICT|INTERRES
   158   79  157 1    
   159   80   81 2    
@<TRIPOS>SUBSTRUCTURE
     1 UNK         1 GROUP             0       ****    0 ROOT    
