@<TRIPOS>MOLECULE
3R207
157   159    1
SMALL
USER_CHARGES


@<TRIPOS>ATOM
      1 CA        -47.0882  -31.7293    3.0741 C.3       0 UNK        -0.1975 
      2 C         -47.6304  -30.3203    3.2643 C.2       0 UNK         0.4852 
      3 O         -47.2130  -29.4028    2.5558 O.2       0 UNK        -0.5216 
      4 N         -48.5641  -30.1447    4.2075 N.am      1 UNK        -0.4461 
      5 CA        -49.1437  -28.8553    4.5933 C.3       1 UNK         0.0864 
      6 C6        -50.4649  -29.0231    5.3927 C.3       14 UNK        -0.0898 
      7 S7        -50.4085  -30.2755    6.7265 S.3       14 UNK        -0.2598 
      8 C8        -50.2007  -29.2462    8.2112 C.3       14 UNK         0.0286 
      9 C9        -51.5164  -28.6561    8.6919 C.ar      14 UNK        -0.0844 
     10 C10       -51.8792  -27.3591    8.3288 C.ar      14 UNK        -0.0881 
     11 C11       -53.0588  -26.7899    8.8141 C.ar      14 UNK        -0.0643 
     12 C12       -53.8835  -27.5328    9.6659 C.ar      14 UNK        -0.0930 
     13 C13       -53.5382  -28.8383   10.0352 C.ar      14 UNK        -0.0827 
     14 C14       -52.3544  -29.3945    9.5309 C.ar      14 UNK        -0.1249 
     15 C15       -54.4704  -29.6314   10.9531 C.3       14 UNK         0.0141 
     16 S16       -53.5990  -30.7797   12.0722 S.3       14 UNK        -0.2313 
     17 C17       -54.9663  -31.4488   13.0743 C.3       14 UNK        -0.0915 
     18 CA        -55.0334  -30.8860   14.5227 C.3       13 UNK         0.0968 
     19 C         -53.8101  -31.2429   15.4147 C.2       13 UNK         0.5732 
     20 N         -53.2588  -30.3222   16.1981 N.am      13 UNK        -0.7310 
     21 O         -53.3735  -32.3914   15.4298 O.2       13 UNK        -0.5035 
     22 N         -55.4242  -29.4680   14.5683 N.am      13 UNK        -0.4233 
     23 C         -56.6945  -29.0481   14.5375 C.2       13 UNK         0.4989 
     24 O         -57.6606  -29.7957   14.3777 O.2       13 UNK        -0.4996 
     25 CA        -56.9524  -27.5516   14.7394 C.3       12 UNK         0.0216 
     26 CB        -57.0850  -27.2397   16.2397 C.3       12 UNK        -0.1964 
     27 N         -55.8909  -26.7159   14.1814 N.am      12 UNK        -0.4276 
     28 C         -56.0138  -25.9497   13.0891 C.2       12 UNK         0.5020 
     29 O         -56.9845  -26.0032   12.3317 O.2       12 UNK        -0.5489 
     30 CA        -54.8809  -24.9429   12.7851 C.3       11 UNK         0.0294 
     31 CB        -55.4285  -23.5850   12.3007 C.3       11 UNK        -0.2019 
     32 N         -53.9262  -24.7474   13.8835 N.am      11 UNK        -0.4493 
     33 C         -54.1641  -24.3384   15.1400 C.2       11 UNK         0.4932 
     34 O         -55.2526  -23.9124   15.5281 O.2       11 UNK        -0.5029 
     35 CA        -53.0024  -24.4947   16.1451 C.3       10 UNK         0.0280 
     36 CB        -53.5022  -24.7113   17.5887 C.3       10 UNK        -0.1976 
     37 N         -52.0432  -25.5467   15.7770 N.am      10 UNK        -0.4242 
     38 C         -52.2894  -26.8511   15.5636 C.2       10 UNK         0.5072 
     39 O         -53.4058  -27.3692   15.6864 O.2       10 UNK        -0.5224 
     40 CA        -51.1256  -27.7278   15.0589 C.3       9 UNK         0.0343 
     41 CB        -51.4974  -28.3640   13.7118 C.3       9 UNK        -0.2003 
     42 N         -49.8610  -27.0104   14.8914 N.am      9 UNK        -0.4272 
     43 C         -48.9959  -26.7163   15.8702 C.2       9 UNK         0.4988 
     44 O         -49.1417  -27.0643   17.0421 O.2       9 UNK        -0.5108 
     45 CA        -47.7808  -25.8526   15.4810 C.3       8 UNK         0.0248 
     46 CB        -46.6372  -26.7326   14.9527 C.3       8 UNK        -0.2001 
     47 N         -48.0998  -24.8113   14.4960 N.am      8 UNK        -0.4140 
     48 C         -48.9795  -23.8188   14.7015 C.2       8 UNK         0.5028 
     49 O         -49.5894  -23.6528   15.7582 O.2       8 UNK        -0.5428 
     50 CA        -49.2790  -22.8882   13.5156 C.3       7 UNK         0.0264 
     51 CB        -48.1585  -21.8530   13.3290 C.3       7 UNK        -0.1988 
     52 N         -49.5005  -23.6123   12.2625 N.am      7 UNK        -0.4454 
     53 C         -50.4754  -24.5107   12.0573 C.2       7 UNK         0.5027 
     54 O         -51.3118  -24.8189   12.9054 O.2       7 UNK        -0.5083 
     55 CA        -50.4871  -25.2276   10.6926 C.3       6 UNK         0.0844 
     56 C56       -51.0538  -24.3166    9.5724 C.3       14 UNK        -0.0967 
     57 S57       -52.8701  -24.1538    9.6564 S.3       14 UNK        -0.2604 
     58 C58       -53.4304  -25.3680    8.4214 C.3       14 UNK         0.0134 
     59 N         -49.1704  -25.7797   10.3552 N.am      6 UNK        -0.4116 
     60 C         -48.4932  -26.6603   11.1099 C.2       5 UNK         0.5034 
     61 O         -48.9380  -27.1773   12.1328 O.2       5 UNK        -0.5045 
     62 CA        -47.0437  -26.9645   10.7020 C.3       5 UNK         0.0224 
     63 CB        -46.9779  -28.0616    9.6330 C.3       5 UNK        -0.1978 
     64 N         -46.3471  -25.7697   10.2277 N.am      5 UNK        -0.4737 
     65 C         -46.0058  -24.7390   11.0129 C.2       4 UNK         0.5027 
     66 O         -46.1819  -24.7159   12.2311 O.2       4 UNK        -0.5211 
     67 CA        -45.4239  -23.5077   10.3003 C.3       4 UNK         0.0297 
     68 CB        -43.9298  -23.7064   10.0005 C.3       4 UNK        -0.1993 
     69 N         -46.1430  -23.1951    9.0606 N.am      4 UNK        -0.4486 
     70 C         -47.4238  -22.8011    9.0163 C.2       3 UNK         0.4961 
     71 O         -48.1148  -22.6166   10.0165 O.2       3 UNK        -0.5105 
     72 CA        -48.0568  -22.6086    7.6301 C.3       3 UNK         0.0299 
     73 CB        -47.8575  -21.1634    7.1474 C.3       3 UNK        -0.1972 
     74 N         -47.5529  -23.5392    6.6167 N.am      3 UNK        -0.4305 
     75 C         -47.7587  -24.8639    6.6108 C.2       2 UNK         0.5006 
     76 O         -48.3552  -25.4725    7.5026 O.2       2 UNK        -0.5106 
     77 CA        -47.1690  -25.6095    5.4041 C.3       2 UNK         0.0296 
     78 CB        -45.7128  -26.0474    5.6673 C.3       2 UNK        -0.2002 
     79 N         -48.0323  -26.6999    4.9257 N.am      2 UNK        -0.4032 
     80 C         -48.1064  -27.9777    5.3304 C.2       1 UNK         0.5000 
     81 O         -47.4048  -28.4832    6.2091 O.2       1 UNK        -0.5238 
     82 H82       -47.2713  -32.0677    2.0546 H         1 UNK         0.0889 
     83 H83       -47.5538  -32.4405    3.7563 H         1 UNK         0.0889 
     84 H84       -46.0131  -31.7440    3.2509 H         1 UNK         0.0889 
     85 H85       -48.8477  -30.9233    4.7859 H         1 UNK         0.3028 
     86 H86       -49.4027  -28.3407    3.6649 H         1 UNK         0.0864 
     87 H87       -50.8072  -28.0651    5.7843 H         1 UNK         0.0720 
     88 H88       -51.2493  -29.3415    4.7045 H         1 UNK         0.0720 
     89 H89       -49.4823  -28.4519    8.0102 H         1 UNK         0.0814 
     90 H90       -49.7648  -29.8561    9.0036 H         1 UNK         0.0814 
     91 H91       -51.2300  -26.7838    7.6838 H         1 UNK         0.1469 
     92 H92       -54.7964  -27.0902   10.0408 H         1 UNK         0.1381 
     93 H93       -52.0719  -30.4038    9.7951 H         1 UNK         0.1206 
     94 H94       -55.0654  -28.9477   11.5610 H         1 UNK         0.0813 
     95 H95       -55.1707  -30.1965   10.3369 H         1 UNK         0.0813 
     96 H96       -55.9119  -31.2713   12.5602 H         1 UNK         0.0638 
     97 H97       -54.8542  -32.5338   13.1029 H         1 UNK         0.0638 
     98 H98       -55.8330  -31.4416   15.0165 H         1 UNK         0.0568 
     99 H99       -52.4858  -30.5958   16.7827 H         1 UNK         0.3450 
    100 H100      -53.5819  -29.3647   16.2149 H         1 UNK         0.3450 
    101 H101      -54.6790  -28.8005   14.7195 H         1 UNK         0.2987 
    102 H102      -57.9074  -27.3165   14.2643 H         1 UNK         0.0766 
    103 H103      -57.3287  -26.1895   16.4036 H         1 UNK         0.0798 
    104 H104      -56.1629  -27.4548   16.7821 H         1 UNK         0.0798 
    105 H105      -57.8797  -27.8321   16.6953 H         1 UNK         0.0798 
    106 H106      -55.0387  -26.6418   14.7284 H         1 UNK         0.3198 
    107 H107      -54.3049  -25.3820   11.9699 H         1 UNK         0.0843 
    108 H108      -56.0732  -23.1194   13.0465 H         1 UNK         0.0831 
    109 H109      -56.0153  -23.7021   11.3889 H         1 UNK         0.0831 
    110 H110      -54.6192  -22.8910   12.0737 H         1 UNK         0.0831 
    111 H111      -52.9607  -24.9825   13.6518 H         1 UNK         0.3133 
    112 H112      -52.4480  -23.5557   16.1186 H         1 UNK         0.0566 
    113 H113      -52.6698  -24.8128   18.2850 H         1 UNK         0.0814 
    114 H114      -54.1042  -23.8673   17.9273 H         1 UNK         0.0814 
    115 H115      -54.1205  -25.6059   17.6717 H         1 UNK         0.0814 
    116 H116      -51.1005  -25.2149   15.6063 H         1 UNK         0.3091 
    117 H117      -50.9817  -28.5270   15.7882 H         1 UNK         0.0702 
    118 H118      -52.4229  -28.9281   13.7963 H         1 UNK         0.0785 
    119 H119      -51.6452  -27.6145   12.9331 H         1 UNK         0.0785 
    120 H120      -50.7279  -29.0557   13.3691 H         1 UNK         0.0785 
    121 H121      -49.6264  -26.7415   13.9397 H         1 UNK         0.2998 
    122 H122      -47.4321  -25.3495   16.3852 H         1 UNK         0.0697 
    123 H123      -46.9231  -27.2619   14.0437 H         1 UNK         0.0825 
    124 H124      -46.3496  -27.4830   15.6903 H         1 UNK         0.0825 
    125 H125      -45.7499  -26.1397   14.7294 H         1 UNK         0.0825 
    126 H126      -47.6050  -24.8505   13.6086 H         1 UNK         0.3029 
    127 H127      -50.2014  -22.3511   13.7465 H         1 UNK         0.0897 
    128 H128      -48.4078  -21.1376   12.5450 H         1 UNK         0.0792 
    129 H129      -47.2121  -22.3233   13.0606 H         1 UNK         0.0792 
    130 H130      -47.9938  -21.2858   14.2461 H         1 UNK         0.0792 
    131 H131      -48.8810  -23.3797   11.4875 H         1 UNK         0.3086 
    132 H132      -51.1465  -26.0912   10.7984 H         1 UNK         0.0583 
    133 H133      -50.6215  -23.3163    9.6186 H         1 UNK         0.1020 
    134 H134      -50.7819  -24.6991    8.5888 H         1 UNK         0.1020 
    135 H135      -54.5133  -25.2873    8.3161 H         1 UNK         0.0694 
    136 H136      -53.0105  -25.1158    7.4463 H         1 UNK         0.0694 
    137 H137      -48.7438  -25.4549    9.4943 H         1 UNK         0.2989 
    138 H138      -46.5247  -27.3296   11.5910 H         1 UNK         0.1055 
    139 H139      -47.5260  -28.9509    9.9465 H         1 UNK         0.0806 
    140 H140      -45.9494  -28.3661    9.4392 H         1 UNK         0.0806 
    141 H141      -47.4053  -27.7229    8.6909 H         1 UNK         0.0806 
    142 H142      -46.1987  -25.6910    9.2324 H         1 UNK         0.3061 
    143 H143      -45.5270  -22.6548   10.9750 H         1 UNK         0.0734 
    144 H144      -43.4890  -22.8082    9.5677 H         1 UNK         0.0832 
    145 H145      -43.3768  -23.9276   10.9146 H         1 UNK         0.0832 
    146 H146      -43.7586  -24.5323    9.3090 H         1 UNK         0.0832 
    147 H147      -45.6427  -23.3104    8.1915 H         1 UNK         0.3156 
    148 H148      -49.1296  -22.7829    7.7316 H         1 UNK         0.0589 
    149 H149      -46.8035  -20.9271    6.9956 H         1 UNK         0.0808 
    150 H150      -48.3820  -20.9817    6.2090 H         1 UNK         0.0808 
    151 H151      -48.2486  -20.4520    7.8765 H         1 UNK         0.0808 
    152 H152      -47.0442  -23.1274    5.8470 H         1 UNK         0.3098 
    153 H153      -47.1412  -24.9052    4.5709 H         1 UNK         0.0720 
    154 H154      -45.3102  -26.6168    4.8294 H         1 UNK         0.0791 
    155 H155      -45.6257  -26.6613    6.5645 H         1 UNK         0.0791 
    156 H156      -45.0656  -25.1815    5.8106 H         1 UNK         0.0791 
    157 H157      -48.6790  -26.4166    4.2025 H         1 UNK         0.3028 
@<TRIPOS>BOND
     1    1    2 1    
     2    1   82 1    
     3    1   83 1    
     4    1   84 1    
     5    2    3 2    
     6    2    4 am   BACKBONE|DICT|INTERRES
     7    4    5 1    
     8    4   85 1    
     9    5    6 1    
    10    5   80 1    
    11    5   86 1    
    12    6    7 1    
    13    6   87 1    
    14    6   88 1    
    15    7    8 1    
    16    8    9 1    
    17    8   89 1    
    18    8   90 1    
    19    9   10 ar   
    20    9   14 ar   
    21   10   11 ar   
    22   10   91 1    
    23   11   12 ar   
    24   11   58 1    
    25   12   13 ar   
    26   12   92 1    
    27   13   14 ar   
    28   13   15 1    
    29   14   93 1    
    30   15   16 1    
    31   15   94 1    
    32   15   95 1    
    33   16   17 1    
    34   17   18 1    
    35   17   96 1    
    36   17   97 1    
    37   18   19 1    
    38   18   22 1    
    39   18   98 1    
    40   19   20 am   BACKBONE|DICT|INTERRES
    41   19   21 2    
    42   20   99 1    
    43   20  100 1    
    44   22   23 am   BACKBONE|DICT|INTERRES
    45   22  101 1    
    46   23   24 2    
    47   23   25 1    
    48   25   26 1    
    49   25   27 1    
    50   25  102 1    
    51   26  103 1    
    52   26  104 1    
    53   26  105 1    
    54   27   28 am   BACKBONE|DICT|INTERRES
    55   27  106 1    
    56   28   29 2    
    57   28   30 1    
    58   30   31 1    
    59   30   32 1    
    60   30  107 1    
    61   31  108 1    
    62   31  109 1    
    63   31  110 1    
    64   32   33 am   BACKBONE|DICT|INTERRES
    65   32  111 1    
    66   33   34 2    
    67   33   35 1    
    68   35   36 1    
    69   35   37 1    
    70   35  112 1    
    71   36  113 1    
    72   36  114 1    
    73   36  115 1    
    74   37   38 am   BACKBONE|DICT|INTERRES
    75   37  116 1    
    76   38   39 2    
    77   38   40 1    
    78   40   41 1    
    79   40   42 1    
    80   40  117 1    
    81   41  118 1    
    82   41  119 1    
    83   41  120 1    
    84   42   43 am   BACKBONE|DICT|INTERRES
    85   42  121 1    
    86   43   44 2    
    87   43   45 1    
    88   45   46 1    
    89   45   47 1    
    90   45  122 1    
    91   46  123 1    
    92   46  124 1    
    93   46  125 1    
    94   47   48 am   BACKBONE|DICT|INTERRES
    95   47  126 1    
    96   48   49 2    
    97   48   50 1    
    98   50   51 1    
    99   50   52 1    
   100   50  127 1    
   101   51  128 1    
   102   51  129 1    
   103   51  130 1    
   104   52   53 am   BACKBONE|DICT|INTERRES
   105   52  131 1    
   106   53   54 2    
   107   53   55 1    
   108   55   56 1    
   109   55   59 1    
   110   55  132 1    
   111   56   57 1    
   112   56  133 1    
   113   56  134 1    
   114   57   58 1    
   115   58  135 1    
   116   58  136 1    
   117   59   60 am   BACKBONE|DICT|INTERRES
   118   59  137 1    
   119   60   61 2    
   120   60   62 1    
   121   62   63 1    
   122   62   64 1    
   123   62  138 1    
   124   63  139 1    
   125   63  140 1    
   126   63  141 1    
   127   64   65 am   BACKBONE|DICT|INTERRES
   128   64  142 1    
   129   65   66 2    
   130   65   67 1    
   131   67   68 1    
   132   67   69 1    
   133   67  143 1    
   134   68  144 1    
   135   68  145 1    
   136   68  146 1    
   137   69   70 am   BACKBONE|DICT|INTERRES
   138   69  147 1    
   139   70   71 2    
   140   70   72 1    
   141   72   73 1    
   142   72   74 1    
   143   72  148 1    
   144   73  149 1    
   145   73  150 1    
   146   73  151 1    
   147   74   75 am   BACKBONE|DICT|INTERRES
   148   74  152 1    
   149   75   76 2    
   150   75   77 1    
   151   77   78 1    
   152   77   79 1    
   153   77  153 1    
   154   78  154 1    
   155   78  155 1    
   156   78  156 1    
   157   79   80 am   BACKBONE|DICT|INTERRES
   158   79  157 1    
   159   80   81 2    
@<TRIPOS>SUBSTRUCTURE
     1 UNK         1 GROUP             0       ****    0 ROOT    
