@<TRIPOS>MOLECULE
3R207
157   159    1
SMALL
USER_CHARGES


@<TRIPOS>ATOM
      1 CA        -46.0365  -31.3183    5.8911 C.3       0 UNK        -0.1975 
      2 C         -47.1460  -30.2791    5.8365 C.2       0 UNK         0.4852 
      3 O         -47.3644  -29.5695    6.8178 O.2       0 UNK        -0.5216 
      4 N         -47.8393  -30.1776    4.6936 N.am      1 UNK        -0.4461 
      5 CA        -48.9478  -29.2589    4.3931 C.3       1 UNK         0.0864 
      6 C6        -50.1489  -29.3987    5.3670 C.3       14 UNK        -0.0898 
      7 S7        -51.7302  -28.9292    4.5901 S.3       14 UNK        -0.2598 
      8 C8        -52.9290  -29.6588    5.7529 C.3       14 UNK         0.0286 
      9 C9        -52.8014  -29.0669    7.1497 C.ar      14 UNK        -0.0844 
     10 C10       -53.0858  -27.7161    7.3670 C.ar      14 UNK        -0.0881 
     11 C11       -52.9382  -27.1551    8.6377 C.ar      14 UNK        -0.0643 
     12 C12       -52.5160  -27.9592    9.6996 C.ar      14 UNK        -0.0930 
     13 C13       -52.2551  -29.3196    9.5032 C.ar      14 UNK        -0.0827 
     14 C14       -52.3928  -29.8648    8.2228 C.ar      14 UNK        -0.1249 
     15 C15       -51.8054  -30.2058   10.6604 C.3       14 UNK         0.0141 
     16 S16       -52.7963  -29.9845   12.1744 S.3       14 UNK        -0.2313 
     17 C17       -54.4796  -30.3684   11.5820 C.3       14 UNK        -0.0915 
     18 CA        -55.5158  -30.5594   12.7220 C.3       13 UNK         0.0968 
     19 C         -55.3153  -31.9013   13.4842 C.2       13 UNK         0.5732 
     20 N         -55.6915  -33.0180   12.8750 N.am      13 UNK        -0.7310 
     21 O         -54.8057  -31.9467   14.6030 O.2       13 UNK        -0.5035 
     22 N         -55.5663  -29.3838   13.6035 N.am      13 UNK        -0.4233 
     23 C         -56.5320  -29.1341   14.4966 C.2       13 UNK         0.4989 
     24 O         -57.5499  -29.8185   14.6136 O.2       13 UNK        -0.4996 
     25 CA        -56.3421  -27.9186   15.4231 C.3       12 UNK         0.0216 
     26 CB        -55.7948  -28.3739   16.7850 C.3       12 UNK        -0.1964 
     27 N         -55.4763  -26.8672   14.8725 N.am      12 UNK        -0.4276 
     28 C         -55.8267  -26.0619   13.8561 C.2       12 UNK         0.5020 
     29 O         -56.9024  -26.1640   13.2634 O.2       12 UNK        -0.5489 
     30 CA        -54.8255  -24.9736   13.4047 C.3       11 UNK         0.0294 
     31 CB        -55.5298  -23.7108   12.8670 C.3       11 UNK        -0.2019 
     32 N         -53.8163  -24.6058   14.4038 N.am      11 UNK        -0.4493 
     33 C         -53.9970  -24.1178   15.6402 C.2       11 UNK         0.4932 
     34 O         -55.0979  -23.8513   16.1245 O.2       11 UNK        -0.5029 
     35 CA        -52.7111  -23.9439   16.4803 C.3       10 UNK         0.0280 
     36 CB        -52.9955  -23.7907   17.9890 C.3       10 UNK        -0.1976 
     37 N         -51.7315  -25.0165   16.2432 N.am      10 UNK        -0.4242 
     38 C         -51.9386  -26.3365   16.3766 C.2       10 UNK         0.5072 
     39 O         -52.9892  -26.8170   16.8017 O.2       10 UNK        -0.5224 
     40 CA        -50.8409  -27.3001   15.8930 C.3       9 UNK         0.0343 
     41 CB        -51.3801  -28.1751   14.7517 C.3       9 UNK        -0.2003 
     42 N         -49.6226  -26.6304   15.4323 N.am      9 UNK        -0.4272 
     43 C         -48.6262  -26.2403   16.2380 C.2       9 UNK         0.4988 
     44 O         -48.6306  -26.3968   17.4596 O.2       9 UNK        -0.5108 
     45 CA        -47.4240  -25.5490   15.5729 C.3       8 UNK         0.0248 
     46 CB        -46.4707  -26.5928   14.9696 C.3       8 UNK        -0.2001 
     47 N         -47.8031  -24.5710   14.5481 N.am      8 UNK        -0.4140 
     48 C         -48.5161  -23.4594   14.7862 C.2       8 UNK         0.5028 
     49 O         -48.9413  -23.1406   15.8970 O.2       8 UNK        -0.5428 
     50 CA        -48.8424  -22.5651   13.5790 C.3       7 UNK         0.0264 
     51 CB        -47.6126  -21.7494   13.1489 C.3       7 UNK        -0.1988 
     52 N         -49.3603  -23.3163   12.4353 N.am      7 UNK        -0.4454 
     53 C         -50.4903  -24.0382   12.4421 C.2       7 UNK         0.5027 
     54 O         -51.2420  -24.1338   13.4108 O.2       7 UNK        -0.5083 
     55 CA        -50.8159  -24.8272   11.1628 C.3       6 UNK         0.0844 
     56 C56       -51.4238  -23.8875   10.0909 C.3       14 UNK        -0.0967 
     57 S57       -51.7368  -24.6936    8.4877 S.3       14 UNK        -0.2604 
     58 C58       -53.2212  -25.6781    8.8507 C.3       14 UNK         0.0134 
     59 N         -49.6535  -25.5897   10.6989 N.am      6 UNK        -0.4116 
     60 C         -49.0273  -26.5379   11.4133 C.2       5 UNK         0.5034 
     61 O         -49.3921  -26.9226   12.5239 O.2       5 UNK        -0.5045 
     62 CA        -47.7336  -27.1061   10.8176 C.3       5 UNK         0.0224 
     63 CB        -48.0392  -28.2275    9.8135 C.3       5 UNK        -0.1978 
     64 N         -46.9288  -26.0584   10.1846 N.am      5 UNK        -0.4737 
     65 C         -46.2803  -25.1040   10.8706 C.2       4 UNK         0.5027 
     66 O         -46.2569  -25.0454   12.0995 O.2       4 UNK        -0.5211 
     67 CA        -45.5803  -24.0015   10.0566 C.3       4 UNK         0.0297 
     68 CB        -44.1639  -24.4436    9.6575 C.3       4 UNK        -0.1993 
     69 N         -46.3283  -23.6134    8.8595 N.am      4 UNK        -0.4486 
     70 C         -47.5595  -23.0833    8.8674 C.2       3 UNK         0.4961 
     71 O         -48.1617  -22.7771    9.8961 O.2       3 UNK        -0.5105 
     72 CA        -48.2572  -22.9008    7.5067 C.3       3 UNK         0.0299 
     73 CB        -48.1161  -21.4482    7.0264 C.3       3 UNK        -0.1972 
     74 N         -47.7914  -23.8114    6.4517 N.am      3 UNK        -0.4305 
     75 C         -47.8344  -25.1507    6.5044 C.2       2 UNK         0.5006 
     76 O         -48.2272  -25.7881    7.4840 O.2       2 UNK        -0.5106 
     77 CA        -47.2733  -25.8893    5.2842 C.3       2 UNK         0.0296 
     78 CB        -45.7393  -25.9701    5.3724 C.3       2 UNK        -0.2002 
     79 N         -47.8077  -27.2478    5.2369 N.am      2 UNK        -0.4032 
     80 C         -48.4875  -27.7931    4.2228 C.2       1 UNK         0.5000 
     81 O         -48.7276  -27.2046    3.1662 O.2       1 UNK        -0.5238 
     82 H82       -46.2285  -32.0278    6.6955 H         1 UNK         0.0889 
     83 H83       -45.0798  -30.8341    6.0849 H         1 UNK         0.0889 
     84 H84       -45.9524  -31.8766    4.9589 H         1 UNK         0.0889 
     85 H85       -47.5780  -30.7773    3.9227 H         1 UNK         0.3028 
     86 H86       -49.2898  -29.5826    3.4083 H         1 UNK         0.0864 
     87 H87       -50.2416  -30.4364    5.6915 H         1 UNK         0.0720 
     88 H88       -50.0016  -28.8131    6.2772 H         1 UNK         0.0720 
     89 H89       -52.7961  -30.7416    5.7725 H         1 UNK         0.0814 
     90 H90       -53.9385  -29.4809    5.3798 H         1 UNK         0.0814 
     91 H91       -53.3978  -27.0947    6.5386 H         1 UNK         0.1469 
     92 H92       -52.3959  -27.5319   10.6841 H         1 UNK         0.1381 
     93 H93       -52.1754  -30.9115    8.0590 H         1 UNK         0.1206 
     94 H94       -51.8383  -31.2589   10.3770 H         1 UNK         0.0813 
     95 H95       -50.7642  -29.9792   10.8907 H         1 UNK         0.0813 
     96 H96       -54.8017  -29.5492   10.9373 H         1 UNK         0.0638 
     97 H97       -54.4399  -31.2504   10.9404 H         1 UNK         0.0638 
     98 H98       -56.4977  -30.6251   12.2491 H         1 UNK         0.0568 
     99 H99       -55.5617  -33.8990   13.3471 H         1 UNK         0.3450 
    100 H100      -56.1042  -32.9988   11.9556 H         1 UNK         0.3450 
    101 H101      -54.7470  -28.7964   13.5959 H         1 UNK         0.2987 
    102 H102      -57.3292  -27.4817   15.5889 H         1 UNK         0.0766 
    103 H103      -55.6995  -27.5362   17.4764 H         1 UNK         0.0798 
    104 H104      -54.8145  -28.8428   16.6884 H         1 UNK         0.0798 
    105 H105      -56.4594  -29.1037   17.2494 H         1 UNK         0.0798 
    106 H106      -54.5948  -26.7086   15.3491 H         1 UNK         0.3198 
    107 H107      -54.2709  -25.4148   12.5752 H         1 UNK         0.0843 
    108 H108      -56.1518  -23.2417   13.6300 H         1 UNK         0.0831 
    109 H109      -56.1763  -23.9490   12.0215 H         1 UNK         0.0831 
    110 H110      -54.8079  -22.9713   12.5205 H         1 UNK         0.0831 
    111 H111      -52.8478  -24.6896   14.0969 H         1 UNK         0.3133 
    112 H112      -52.2413  -23.0223   16.1336 H         1 UNK         0.0566 
    113 H113      -52.0732  -23.6549   18.5538 H         1 UNK         0.0814 
    114 H114      -53.6242  -22.9207   18.1823 H         1 UNK         0.0814 
    115 H115      -53.5121  -24.6617   18.3937 H         1 UNK         0.0814 
    116 H116      -50.8504  -24.7179   15.8438 H         1 UNK         0.3091 
    117 H117      -50.5932  -27.9553   16.7307 H         1 UNK         0.0702 
    118 H118      -52.2411  -28.7614   15.0758 H         1 UNK         0.0785 
    119 H119      -51.6963  -27.5725   13.8990 H         1 UNK         0.0785 
    120 H120      -50.6262  -28.8793   14.3993 H         1 UNK         0.0785 
    121 H121      -49.5244  -26.5111   14.4268 H         1 UNK         0.2998 
    122 H122      -46.8831  -25.0097   16.3533 H         1 UNK         0.0697 
    123 H123      -46.9377  -27.1378   14.1484 H         1 UNK         0.0825 
    124 H124      -46.1668  -27.3256   15.7183 H         1 UNK         0.0825 
    125 H125      -45.5629  -26.1260   14.5869 H         1 UNK         0.0825 
    126 H126      -47.4535  -24.7399   13.6079 H         1 UNK         0.3029 
    127 H127      -49.6216  -21.8656   13.8897 H         1 UNK         0.0897 
    128 H128      -46.8030  -22.3906   12.7993 H         1 UNK         0.0792 
    129 H129      -47.2261  -21.1578   13.9798 H         1 UNK         0.0792 
    130 H130      -47.8590  -21.0567   12.3438 H         1 UNK         0.0792 
    131 H131      -48.8270  -23.2565   11.5693 H         1 UNK         0.3086 
    132 H132      -51.5795  -25.5567   11.4345 H         1 UNK         0.0583 
    133 H133      -52.3587  -23.4534   10.4516 H         1 UNK         0.1020 
    134 H134      -50.7641  -23.0399    9.8993 H         1 UNK         0.1020 
    135 H135      -53.5673  -25.5029    9.8703 H         1 UNK         0.0694 
    136 H136      -54.0309  -25.3534    8.1956 H         1 UNK         0.0694 
    137 H137      -49.2921  -25.3525    9.7849 H         1 UNK         0.2989 
    138 H138      -47.1505  -27.5348   11.6358 H         1 UNK         0.1055 
    139 H139      -48.5575  -29.0533   10.3012 H         1 UNK         0.0806 
    140 H140      -47.1244  -28.6321    9.3807 H         1 UNK         0.0806 
    141 H141      -48.6751  -27.8873    8.9953 H         1 UNK         0.0806 
    142 H142      -46.9819  -25.9952    9.1740 H         1 UNK         0.3061 
    143 H143      -45.4973  -23.1205   10.6965 H         1 UNK         0.0734 
    144 H144      -43.6241  -23.6419    9.1533 H         1 UNK         0.0832 
    145 H145      -43.5812  -24.7201   10.5375 H         1 UNK         0.0832 
    146 H146      -44.1808  -25.3089    8.9936 H         1 UNK         0.0832 
    147 H147      -45.9073  -23.8233    7.9669 H         1 UNK         0.3156 
    148 H148      -49.3180  -23.1034    7.6617 H         1 UNK         0.0589 
    149 H149      -47.0769  -21.1896    6.8190 H         1 UNK         0.0808 
    150 H150      -48.6958  -21.2703    6.1205 H         1 UNK         0.0808 
    151 H151      -48.4805  -20.7506    7.7823 H         1 UNK         0.0808 
    152 H152      -47.4332  -23.3756    5.6135 H         1 UNK         0.3098 
    153 H153      -47.5537  -25.3343    4.3865 H         1 UNK         0.0720 
    154 H154      -45.3232  -26.4958    4.5127 H         1 UNK         0.0791 
    155 H155      -45.4141  -26.4952    6.2720 H         1 UNK         0.0791 
    156 H156      -45.2893  -24.9768    5.3905 H         1 UNK         0.0791 
    157 H157      -47.6863  -27.8086    6.0774 H         1 UNK         0.3028 
@<TRIPOS>BOND
     1    1    2 1    
     2    1   82 1    
     3    1   83 1    
     4    1   84 1    
     5    2    3 2    
     6    2    4 am   BACKBONE|DICT|INTERRES
     7    4    5 1    
     8    4   85 1    
     9    5    6 1    
    10    5   80 1    
    11    5   86 1    
    12    6    7 1    
    13    6   87 1    
    14    6   88 1    
    15    7    8 1    
    16    8    9 1    
    17    8   89 1    
    18    8   90 1    
    19    9   10 ar   
    20    9   14 ar   
    21   10   11 ar   
    22   10   91 1    
    23   11   12 ar   
    24   11   58 1    
    25   12   13 ar   
    26   12   92 1    
    27   13   14 ar   
    28   13   15 1    
    29   14   93 1    
    30   15   16 1    
    31   15   94 1    
    32   15   95 1    
    33   16   17 1    
    34   17   18 1    
    35   17   96 1    
    36   17   97 1    
    37   18   19 1    
    38   18   22 1    
    39   18   98 1    
    40   19   20 am   BACKBONE|DICT|INTERRES
    41   19   21 2    
    42   20   99 1    
    43   20  100 1    
    44   22   23 am   BACKBONE|DICT|INTERRES
    45   22  101 1    
    46   23   24 2    
    47   23   25 1    
    48   25   26 1    
    49   25   27 1    
    50   25  102 1    
    51   26  103 1    
    52   26  104 1    
    53   26  105 1    
    54   27   28 am   BACKBONE|DICT|INTERRES
    55   27  106 1    
    56   28   29 2    
    57   28   30 1    
    58   30   31 1    
    59   30   32 1    
    60   30  107 1    
    61   31  108 1    
    62   31  109 1    
    63   31  110 1    
    64   32   33 am   BACKBONE|DICT|INTERRES
    65   32  111 1    
    66   33   34 2    
    67   33   35 1    
    68   35   36 1    
    69   35   37 1    
    70   35  112 1    
    71   36  113 1    
    72   36  114 1    
    73   36  115 1    
    74   37   38 am   BACKBONE|DICT|INTERRES
    75   37  116 1    
    76   38   39 2    
    77   38   40 1    
    78   40   41 1    
    79   40   42 1    
    80   40  117 1    
    81   41  118 1    
    82   41  119 1    
    83   41  120 1    
    84   42   43 am   BACKBONE|DICT|INTERRES
    85   42  121 1    
    86   43   44 2    
    87   43   45 1    
    88   45   46 1    
    89   45   47 1    
    90   45  122 1    
    91   46  123 1    
    92   46  124 1    
    93   46  125 1    
    94   47   48 am   BACKBONE|DICT|INTERRES
    95   47  126 1    
    96   48   49 2    
    97   48   50 1    
    98   50   51 1    
    99   50   52 1    
   100   50  127 1    
   101   51  128 1    
   102   51  129 1    
   103   51  130 1    
   104   52   53 am   BACKBONE|DICT|INTERRES
   105   52  131 1    
   106   53   54 2    
   107   53   55 1    
   108   55   56 1    
   109   55   59 1    
   110   55  132 1    
   111   56   57 1    
   112   56  133 1    
   113   56  134 1    
   114   57   58 1    
   115   58  135 1    
   116   58  136 1    
   117   59   60 am   BACKBONE|DICT|INTERRES
   118   59  137 1    
   119   60   61 2    
   120   60   62 1    
   121   62   63 1    
   122   62   64 1    
   123   62  138 1    
   124   63  139 1    
   125   63  140 1    
   126   63  141 1    
   127   64   65 am   BACKBONE|DICT|INTERRES
   128   64  142 1    
   129   65   66 2    
   130   65   67 1    
   131   67   68 1    
   132   67   69 1    
   133   67  143 1    
   134   68  144 1    
   135   68  145 1    
   136   68  146 1    
   137   69   70 am   BACKBONE|DICT|INTERRES
   138   69  147 1    
   139   70   71 2    
   140   70   72 1    
   141   72   73 1    
   142   72   74 1    
   143   72  148 1    
   144   73  149 1    
   145   73  150 1    
   146   73  151 1    
   147   74   75 am   BACKBONE|DICT|INTERRES
   148   74  152 1    
   149   75   76 2    
   150   75   77 1    
   151   77   78 1    
   152   77   79 1    
   153   77  153 1    
   154   78  154 1    
   155   78  155 1    
   156   78  156 1    
   157   79   80 am   BACKBONE|DICT|INTERRES
   158   79  157 1    
   159   80   81 2    
@<TRIPOS>SUBSTRUCTURE
     1 UNK         1 GROUP             0       ****    0 ROOT    
