@<TRIPOS>MOLECULE
3R207
157   159    1
SMALL
USER_CHARGES


@<TRIPOS>ATOM
      1 CA        -53.9899  -26.3283    5.9736 C.3       0 UNK        -0.1975 
      2 C         -52.4732  -26.3819    5.8703 C.2       0 UNK         0.4852 
      3 O         -51.9053  -25.8166    4.9343 O.2       0 UNK        -0.5216 
      4 N         -51.8193  -27.0486    6.8330 N.am      1 UNK        -0.4461 
      5 CA        -50.3700  -27.2883    6.9630 C.3       1 UNK         0.0864 
      6 C6        -49.7177  -28.0353    5.7611 C.3       14 UNK        -0.0898 
      7 S7        -50.6979  -29.4318    5.0999 S.3       14 UNK        -0.2598 
      8 C8        -50.0992  -30.8518    6.0694 C.3       14 UNK         0.0286 
      9 C9        -50.5028  -30.7579    7.5339 C.ar      14 UNK        -0.0844 
     10 C10       -49.5238  -30.6898    8.5261 C.ar      14 UNK        -0.0881 
     11 C11       -49.8821  -30.5733    9.8719 C.ar      14 UNK        -0.0643 
     12 C12       -51.2373  -30.5471   10.2218 C.ar      14 UNK        -0.0930 
     13 C13       -52.2343  -30.6355    9.2404 C.ar      14 UNK        -0.0827 
     14 C14       -51.8526  -30.7394    7.8988 C.ar      14 UNK        -0.1249 
     15 C15       -53.7271  -30.5887    9.5766 C.3       14 UNK         0.0141 
     16 S16       -54.1898  -31.3654   11.1650 S.3       14 UNK        -0.2313 
     17 C17       -54.1127  -29.9463   12.3097 C.3       14 UNK        -0.0915 
     18 CA        -55.5074  -29.3567   12.6534 C.3       13 UNK         0.0968 
     19 C         -56.2388  -30.1714   13.7589 C.2       13 UNK         0.5732 
     20 N         -56.2724  -29.7224   15.0070 N.am      13 UNK        -0.7310 
     21 O         -56.8068  -31.2232   13.4753 O.2       13 UNK        -0.5035 
     22 N         -55.4311  -27.9066   12.9008 N.am      13 UNK        -0.4233 
     23 C         -56.4758  -27.0742   12.7971 C.2       13 UNK         0.4989 
     24 O         -57.6252  -27.4382   12.5402 O.2       13 UNK        -0.4996 
     25 CA        -56.1578  -25.5803   12.9719 C.3       12 UNK         0.0216 
     26 CB        -57.3714  -24.6515   12.7449 C.3       12 UNK        -0.1964 
     27 N         -55.4885  -25.3160   14.2485 N.am      12 UNK        -0.4276 
     28 C         -56.0131  -25.3557   15.4807 C.2       12 UNK         0.5020 
     29 O         -57.1961  -25.5988   15.7267 O.2       12 UNK        -0.5489 
     30 CA        -55.0294  -25.0626   16.6298 C.3       11 UNK         0.0294 
     31 CB        -55.6701  -25.1983   18.0282 C.3       11 UNK        -0.2019 
     32 N         -53.7956  -25.8534   16.5431 N.am      11 UNK        -0.4493 
     33 C         -53.6857  -27.1907   16.5866 C.2       11 UNK         0.4932 
     34 O         -54.6566  -27.9437   16.6599 O.2       11 UNK        -0.5029 
     35 CA        -52.2748  -27.8164   16.5333 C.3       10 UNK         0.0280 
     36 CB        -52.2164  -28.9508   15.4958 C.3       10 UNK        -0.1976 
     37 N         -51.2053  -26.8596   16.2411 N.am      10 UNK        -0.4242 
     38 C         -50.6465  -26.0084   17.1119 C.2       10 UNK         0.5072 
     39 O         -50.9168  -25.9779   18.3125 O.2       10 UNK        -0.5224 
     40 CA        -49.6655  -24.9723   16.5278 C.3       9 UNK         0.0343 
     41 CB        -48.2394  -25.5410   16.4659 C.3       9 UNK        -0.2003 
     42 N         -50.0641  -24.4911   15.1989 N.am      9 UNK        -0.4272 
     43 C         -51.2122  -23.8456   14.9375 C.2       9 UNK         0.4988 
     44 O         -52.0332  -23.5303   15.7987 O.2       9 UNK        -0.5108 
     45 CA        -51.5344  -23.5677   13.4623 C.3       8 UNK         0.0248 
     46 CB        -50.7775  -22.3312   12.9507 C.3       8 UNK        -0.2001 
     47 N         -51.2367  -24.7261   12.6195 N.am      8 UNK        -0.4140 
     48 C         -51.9327  -25.8720   12.6335 C.2       8 UNK         0.5028 
     49 O         -52.9445  -26.0607   13.3086 O.2       8 UNK        -0.5428 
     50 CA        -51.3920  -27.0205   11.7733 C.3       7 UNK         0.0264 
     51 CB        -51.9299  -26.9208   10.3396 C.3       7 UNK        -0.1988 
     52 N         -49.9319  -27.0899   11.7637 N.am      7 UNK        -0.4454 
     53 C         -49.1912  -27.3977   12.8407 C.2       7 UNK         0.5027 
     54 O         -49.6702  -27.6691   13.9402 O.2       7 UNK        -0.5083 
     55 CA        -47.6591  -27.3463   12.6785 C.3       6 UNK         0.0844 
     56 C56       -47.0653  -28.7164   12.2693 C.3       14 UNK        -0.0967 
     57 S57       -47.5371  -29.2393   10.5831 S.3       14 UNK        -0.2604 
     58 C58       -48.8106  -30.4945   10.9520 C.3       14 UNK         0.0134 
     59 N         -47.2365  -26.2742   11.7782 N.am      6 UNK        -0.4116 
     60 C         -47.4408  -24.9662   11.9756 C.2       5 UNK         0.5034 
     61 O         -48.0257  -24.5151   12.9627 O.2       5 UNK        -0.5045 
     62 CA        -46.9747  -24.0019   10.8692 C.3       5 UNK         0.0224 
     63 CB        -46.1790  -22.8124   11.4435 C.3       5 UNK        -0.1978 
     64 N         -46.2510  -24.6394    9.7573 N.am      5 UNK        -0.4737 
     65 C         -45.0424  -25.2270    9.7701 C.2       4 UNK         0.5027 
     66 O         -44.3516  -25.3726   10.7774 O.2       4 UNK        -0.5211 
     67 CA        -44.5256  -25.7448    8.4158 C.3       4 UNK         0.0297 
     68 CB        -45.0433  -27.1696    8.1569 C.3       4 UNK        -0.1993 
     69 N         -44.9322  -24.8721    7.3124 N.am      4 UNK        -0.4486 
     70 C         -44.4961  -23.6202    7.1204 C.2       3 UNK         0.4961 
     71 O         -43.5474  -23.1250    7.7289 O.2       3 UNK        -0.5105 
     72 CA        -45.2928  -22.7476    6.1330 C.3       3 UNK         0.0299 
     73 CB        -44.8768  -23.0141    4.6726 C.3       3 UNK        -0.1972 
     74 N         -46.7512  -22.8328    6.3284 N.am      3 UNK        -0.4305 
     75 C         -47.5656  -23.8697    6.0843 C.2       2 UNK         0.5006 
     76 O         -47.1902  -24.9280    5.5731 O.2       2 UNK        -0.5106 
     77 CA        -49.0314  -23.6940    6.5203 C.3       2 UNK         0.0296 
     78 CB        -49.7598  -22.6992    5.6007 C.3       2 UNK        -0.2002 
     79 N         -49.7628  -24.9599    6.5032 N.am      2 UNK        -0.4032 
     80 C         -49.5761  -26.0089    7.3141 C.2       1 UNK         0.5000 
     81 O         -48.8344  -25.9910    8.3007 O.2       1 UNK        -0.5238 
     82 H82       -54.3598  -26.8594    6.8506 H         1 UNK         0.0889 
     83 H83       -54.4403  -26.7792    5.0898 H         1 UNK         0.0889 
     84 H84       -54.3251  -25.2934    6.0370 H         1 UNK         0.0889 
     85 H85       -52.3700  -27.4801    7.5605 H         1 UNK         0.3028 
     86 H86       -50.2694  -27.9433    7.8285 H         1 UNK         0.0864 
     87 H87       -48.7261  -28.3977    6.0384 H         1 UNK         0.0720 
     88 H88       -49.5583  -27.3475    4.9285 H         1 UNK         0.0720 
     89 H89       -49.0165  -30.9313    5.9598 H         1 UNK         0.0814 
     90 H90       -50.5176  -31.7666    5.6476 H         1 UNK         0.0814 
     91 H91       -48.4777  -30.7132    8.2527 H         1 UNK         0.1469 
     92 H92       -51.5108  -30.4584   11.2629 H         1 UNK         0.1381 
     93 H93       -52.6082  -30.7935    7.1267 H         1 UNK         0.1206 
     94 H94       -54.2875  -31.1059    8.7962 H         1 UNK         0.0813 
     95 H95       -54.0692  -29.5533    9.5539 H         1 UNK         0.0813 
     96 H96       -53.5004  -29.1840   11.8340 H         1 UNK         0.0638 
     97 H97       -53.5743  -30.2478   13.2090 H         1 UNK         0.0638 
     98 H98       -56.1236  -29.4639   11.7581 H         1 UNK         0.0568 
     99 H99       -56.7630  -30.2620   15.7011 H         1 UNK         0.3450 
    100 H100      -55.7727  -28.8886   15.2941 H         1 UNK         0.3450 
    101 H101      -54.5258  -27.5192   13.1375 H         1 UNK         0.2987 
    102 H102      -55.4270  -25.3374   12.1988 H         1 UNK         0.0766 
    103 H103      -57.0978  -23.6037   12.8680 H         1 UNK         0.0798 
    104 H104      -58.1904  -24.8682   13.4311 H         1 UNK         0.0798 
    105 H105      -57.7625  -24.7677   11.7335 H         1 UNK         0.0798 
    106 H106      -54.4773  -25.2346   14.1725 H         1 UNK         0.3198 
    107 H107      -54.7300  -24.0200   16.5108 H         1 UNK         0.0843 
    108 H108      -56.0359  -26.2091   18.2115 H         1 UNK         0.0831 
    109 H109      -56.5196  -24.5227   18.1345 H         1 UNK         0.0831 
    110 H110      -54.9590  -24.9503   18.8161 H         1 UNK         0.0831 
    111 H111      -52.9483  -25.3071   16.4342 H         1 UNK         0.3133 
    112 H112      -52.0860  -28.2522   17.5162 H         1 UNK         0.0566 
    113 H113      -51.2401  -29.4359   15.4926 H         1 UNK         0.0814 
    114 H114      -52.9578  -29.7228   15.7059 H         1 UNK         0.0814 
    115 H115      -52.4058  -28.5761   14.4908 H         1 UNK         0.0814 
    116 H116      -50.8487  -26.8699   15.2899 H         1 UNK         0.3091 
    117 H117      -49.6587  -24.1103   17.1981 H         1 UNK         0.0702 
    118 H118      -47.5341  -24.8058   16.0775 H         1 UNK         0.0785 
    119 H119      -48.1838  -26.4260   15.8325 H         1 UNK         0.0785 
    120 H120      -47.8936  -25.8306   17.4591 H         1 UNK         0.0785 
    121 H121      -49.4227  -24.6711   14.4326 H         1 UNK         0.2998 
    122 H122      -52.6047  -23.3623   13.3873 H         1 UNK         0.0697 
    123 H123      -51.0271  -21.4516   13.5456 H         1 UNK         0.0825 
    124 H124      -51.0391  -22.1057   11.9168 H         1 UNK         0.0825 
    125 H125      -49.6962  -22.4599   13.0028 H         1 UNK         0.0825 
    126 H126      -50.3969  -24.6798   12.0621 H         1 UNK         0.3029 
    127 H127      -51.7469  -27.9502   12.2156 H         1 UNK         0.0897 
    128 H128      -53.0204  -26.8869   10.3326 H         1 UNK         0.0792 
    129 H129      -51.6310  -27.7863    9.7518 H         1 UNK         0.0792 
    130 H130      -51.5698  -26.0249    9.8324 H         1 UNK         0.0792 
    131 H131      -49.4599  -26.9048   10.8887 H         1 UNK         0.3086 
    132 H132      -47.2520  -27.1013   13.6615 H         1 UNK         0.0583 
    133 H133      -45.9760  -28.6614   12.3056 H         1 UNK         0.1020 
    134 H134      -47.3345  -29.4858   12.9958 H         1 UNK         0.1020 
    135 H135      -48.3317  -31.4689   11.0556 H         1 UNK         0.0694 
    136 H136      -49.2741  -30.2735   11.9144 H         1 UNK         0.0694 
    137 H137      -46.7680  -26.5598   10.9312 H         1 UNK         0.2989 
    138 H138      -47.8907  -23.6003   10.4327 H         1 UNK         0.1055 
    139 H139      -46.7761  -22.2536   12.1655 H         1 UNK         0.0806 
    140 H140      -45.8857  -22.1150   10.6588 H         1 UNK         0.0806 
    141 H141      -45.2746  -23.1387   11.9578 H         1 UNK         0.0806 
    142 H142      -46.7561  -24.6626    8.8817 H         1 UNK         0.3061 
    143 H143      -43.4345  -25.7694    8.4545 H         1 UNK         0.0734 
    144 H144      -44.6393  -27.5757    7.2295 H         1 UNK         0.0832 
    145 H145      -44.7476  -27.8449    8.9612 H         1 UNK         0.0832 
    146 H146      -46.1321  -27.2014    8.0899 H         1 UNK         0.0832 
    147 H147      -45.7069  -25.1814    6.7297 H         1 UNK         0.3156 
    148 H148      -45.0333  -21.7111    6.3549 H         1 UNK         0.0589 
    149 H149      -45.0479  -24.0488    4.3748 H         1 UNK         0.0808 
    150 H150      -45.4224  -22.3717    3.9816 H         1 UNK         0.0808 
    151 H151      -43.8141  -22.8128    4.5319 H         1 UNK         0.0808 
    152 H152      -47.1606  -22.0154    6.7607 H         1 UNK         0.3098 
    153 H153      -49.0428  -23.3108    7.5427 H         1 UNK         0.0720 
    154 H154      -50.7956  -22.5593    5.9112 H         1 UNK         0.0791 
    155 H155      -49.7664  -23.0410    4.5646 H         1 UNK         0.0791 
    156 H156      -49.2852  -21.7174    5.6175 H         1 UNK         0.0791 
    157 H157      -50.4195  -25.0986    5.7377 H         1 UNK         0.3028 
@<TRIPOS>BOND
     1    1    2 1    
     2    1   82 1    
     3    1   83 1    
     4    1   84 1    
     5    2    3 2    
     6    2    4 am   BACKBONE|DICT|INTERRES
     7    4    5 1    
     8    4   85 1    
     9    5    6 1    
    10    5   80 1    
    11    5   86 1    
    12    6    7 1    
    13    6   87 1    
    14    6   88 1    
    15    7    8 1    
    16    8    9 1    
    17    8   89 1    
    18    8   90 1    
    19    9   10 ar   
    20    9   14 ar   
    21   10   11 ar   
    22   10   91 1    
    23   11   12 ar   
    24   11   58 1    
    25   12   13 ar   
    26   12   92 1    
    27   13   14 ar   
    28   13   15 1    
    29   14   93 1    
    30   15   16 1    
    31   15   94 1    
    32   15   95 1    
    33   16   17 1    
    34   17   18 1    
    35   17   96 1    
    36   17   97 1    
    37   18   19 1    
    38   18   22 1    
    39   18   98 1    
    40   19   20 am   BACKBONE|DICT|INTERRES
    41   19   21 2    
    42   20   99 1    
    43   20  100 1    
    44   22   23 am   BACKBONE|DICT|INTERRES
    45   22  101 1    
    46   23   24 2    
    47   23   25 1    
    48   25   26 1    
    49   25   27 1    
    50   25  102 1    
    51   26  103 1    
    52   26  104 1    
    53   26  105 1    
    54   27   28 am   BACKBONE|DICT|INTERRES
    55   27  106 1    
    56   28   29 2    
    57   28   30 1    
    58   30   31 1    
    59   30   32 1    
    60   30  107 1    
    61   31  108 1    
    62   31  109 1    
    63   31  110 1    
    64   32   33 am   BACKBONE|DICT|INTERRES
    65   32  111 1    
    66   33   34 2    
    67   33   35 1    
    68   35   36 1    
    69   35   37 1    
    70   35  112 1    
    71   36  113 1    
    72   36  114 1    
    73   36  115 1    
    74   37   38 am   BACKBONE|DICT|INTERRES
    75   37  116 1    
    76   38   39 2    
    77   38   40 1    
    78   40   41 1    
    79   40   42 1    
    80   40  117 1    
    81   41  118 1    
    82   41  119 1    
    83   41  120 1    
    84   42   43 am   BACKBONE|DICT|INTERRES
    85   42  121 1    
    86   43   44 2    
    87   43   45 1    
    88   45   46 1    
    89   45   47 1    
    90   45  122 1    
    91   46  123 1    
    92   46  124 1    
    93   46  125 1    
    94   47   48 am   BACKBONE|DICT|INTERRES
    95   47  126 1    
    96   48   49 2    
    97   48   50 1    
    98   50   51 1    
    99   50   52 1    
   100   50  127 1    
   101   51  128 1    
   102   51  129 1    
   103   51  130 1    
   104   52   53 am   BACKBONE|DICT|INTERRES
   105   52  131 1    
   106   53   54 2    
   107   53   55 1    
   108   55   56 1    
   109   55   59 1    
   110   55  132 1    
   111   56   57 1    
   112   56  133 1    
   113   56  134 1    
   114   57   58 1    
   115   58  135 1    
   116   58  136 1    
   117   59   60 am   BACKBONE|DICT|INTERRES
   118   59  137 1    
   119   60   61 2    
   120   60   62 1    
   121   62   63 1    
   122   62   64 1    
   123   62  138 1    
   124   63  139 1    
   125   63  140 1    
   126   63  141 1    
   127   64   65 am   BACKBONE|DICT|INTERRES
   128   64  142 1    
   129   65   66 2    
   130   65   67 1    
   131   67   68 1    
   132   67   69 1    
   133   67  143 1    
   134   68  144 1    
   135   68  145 1    
   136   68  146 1    
   137   69   70 am   BACKBONE|DICT|INTERRES
   138   69  147 1    
   139   70   71 2    
   140   70   72 1    
   141   72   73 1    
   142   72   74 1    
   143   72  148 1    
   144   73  149 1    
   145   73  150 1    
   146   73  151 1    
   147   74   75 am   BACKBONE|DICT|INTERRES
   148   74  152 1    
   149   75   76 2    
   150   75   77 1    
   151   77   78 1    
   152   77   79 1    
   153   77  153 1    
   154   78  154 1    
   155   78  155 1    
   156   78  156 1    
   157   79   80 am   BACKBONE|DICT|INTERRES
   158   79  157 1    
   159   80   81 2    
@<TRIPOS>SUBSTRUCTURE
     1 UNK         1 GROUP             0       ****    0 ROOT    
