@<TRIPOS>MOLECULE
3R207
157   159    1
SMALL
USER_CHARGES


@<TRIPOS>ATOM
      1 CA        -45.3843  -31.3570    3.8852 C.3       0 UNK        -0.1975 
      2 C         -46.3958  -30.3412    3.3751 C.2       0 UNK         0.4852 
      3 O         -46.1582  -29.7056    2.3473 O.2       0 UNK        -0.5216 
      4 N         -47.5218  -30.1842    4.0855 N.am      1 UNK        -0.4461 
      5 CA        -48.5996  -29.2419    3.7541 C.3       1 UNK         0.0864 
      6 C6        -49.8996  -29.5991    4.5185 C.3       14 UNK        -0.0898 
      7 S7        -51.3937  -28.9805    3.6773 S.3       14 UNK        -0.2598 
      8 C8        -52.7063  -29.5932    4.7834 C.3       14 UNK         0.0286 
      9 C9        -52.6154  -29.0343    6.1998 C.ar      14 UNK        -0.0844 
     10 C10       -52.4977  -27.6565    6.4220 C.ar      14 UNK        -0.0881 
     11 C11       -52.4408  -27.1454    7.7223 C.ar      14 UNK        -0.0643 
     12 C12       -52.5192  -28.0284    8.8036 C.ar      14 UNK        -0.0930 
     13 C13       -52.6447  -29.4024    8.5987 C.ar      14 UNK        -0.0827 
     14 C14       -52.6817  -29.9025    7.2946 C.ar      14 UNK        -0.1249 
     15 C15       -52.7661  -30.3338    9.7926 C.3       14 UNK         0.0141 
     16 S16       -54.5066  -30.7758   10.0700 S.3       14 UNK        -0.2313 
     17 C17       -54.4739  -31.3662   11.7938 C.3       14 UNK        -0.0915 
     18 CA        -55.4062  -30.5211   12.7056 C.3       13 UNK         0.0968 
     19 C         -55.6429  -31.1889   14.0928 C.2       13 UNK         0.5732 
     20 N         -55.7234  -30.4484   15.1917 N.am      13 UNK        -0.7310 
     21 O         -55.7761  -32.4075   14.1810 O.2       13 UNK        -0.5035 
     22 N         -54.9491  -29.1231   12.8075 N.am      13 UNK        -0.4233 
     23 C         -55.7059  -28.0430   12.5739 C.2       13 UNK         0.4989 
     24 O         -56.8652  -28.0950   12.1578 O.2       13 UNK        -0.4996 
     25 CA        -55.0600  -26.6713   12.8822 C.3       12 UNK         0.0216 
     26 CB        -56.0872  -25.5208   12.9106 C.3       12 UNK        -0.1964 
     27 N         -54.2488  -26.6412   14.1131 N.am      12 UNK        -0.4276 
     28 C         -54.6251  -27.0668   15.3299 C.2       12 UNK         0.5020 
     29 O         -55.7141  -27.5871   15.5754 O.2       12 UNK        -0.5489 
     30 CA        -53.6040  -26.9309   16.4674 C.3       11 UNK         0.0294 
     31 CB        -52.6187  -28.1105   16.4417 C.3       11 UNK        -0.2019 
     32 N         -52.8655  -25.6658   16.4743 N.am      11 UNK        -0.4493 
     33 C         -53.4180  -24.4602   16.6917 C.2       11 UNK         0.4932 
     34 O         -54.6333  -24.2766   16.7825 O.2       11 UNK        -0.5029 
     35 CA        -52.4525  -23.2677   16.8885 C.3       10 UNK         0.0280 
     36 CB        -53.1135  -22.0699   17.6025 C.3       10 UNK        -0.1976 
     37 N         -51.2030  -23.6419   17.5626 N.am      10 UNK        -0.4242 
     38 C         -51.0661  -24.2670   18.7451 C.2       10 UNK         0.5072 
     39 O         -51.9987  -24.4613   19.5270 O.2       10 UNK        -0.5224 
     40 CA        -49.6580  -24.7946   19.1080 C.3       9 UNK         0.0343 
     41 CB        -49.7233  -26.1226   19.8925 C.3       9 UNK        -0.2003 
     42 N         -48.7464  -24.9291   17.9613 N.am      9 UNK        -0.4272 
     43 C         -48.9384  -25.6503   16.8454 C.2       9 UNK         0.4988 
     44 O         -49.9255  -26.3560   16.6326 O.2       9 UNK        -0.5108 
     45 CA        -47.8817  -25.4762   15.7426 C.3       8 UNK         0.0248 
     46 CB        -47.4320  -26.8438   15.2003 C.3       8 UNK        -0.2001 
     47 N         -48.3653  -24.6416   14.6342 N.am      8 UNK        -0.4140 
     48 C         -48.8947  -23.4118   14.7449 C.2       8 UNK         0.5028 
     49 O         -49.0249  -22.8124   15.8136 O.2       8 UNK        -0.5428 
     50 CA        -49.3669  -22.7141   13.4591 C.3       7 UNK         0.0264 
     51 CB        -48.2168  -21.9134   12.8302 C.3       7 UNK        -0.1988 
     52 N         -49.9449  -23.6095   12.4556 N.am      7 UNK        -0.4454 
     53 C         -51.0782  -24.3109   12.6130 C.2       7 UNK         0.5027 
     54 O         -51.7323  -24.3508   13.6553 O.2       7 UNK        -0.5083 
     55 CA        -51.5768  -25.0946   11.3887 C.3       6 UNK         0.0844 
     56 C56       -52.2597  -24.1477   10.3658 C.3       14 UNK        -0.0967 
     57 S57       -53.4014  -25.0163    9.2426 S.3       14 UNK        -0.2604 
     58 C58       -52.2758  -25.6469    7.9519 C.3       14 UNK         0.0134 
     59 N         -50.4694  -25.8577   10.8145 N.am      6 UNK        -0.4116 
     60 C         -50.0697  -27.0602   11.2513 C.2       5 UNK         0.5034 
     61 O         -50.6785  -27.7205   12.0936 O.2       5 UNK        -0.5045 
     62 CA        -48.7683  -27.6261   10.6537 C.3       5 UNK         0.0224 
     63 CB        -49.0768  -28.6125    9.5158 C.3       5 UNK        -0.1978 
     64 N         -47.8547  -26.5886   10.1632 N.am      5 UNK        -0.4737 
     65 C         -47.2033  -25.7248   10.9580 C.2       4 UNK         0.5027 
     66 O         -47.2932  -25.7301   12.1834 O.2       4 UNK        -0.5211 
     67 CA        -46.3570  -24.6322   10.2803 C.3       4 UNK         0.0297 
     68 CB        -44.9207  -25.1313   10.0602 C.3       4 UNK        -0.1993 
     69 N         -46.9088  -24.1655    9.0074 N.am      4 UNK        -0.4486 
     70 C         -48.1483  -23.6917    8.8132 C.2       3 UNK         0.4961 
     71 O         -48.9582  -23.5056    9.7223 O.2       3 UNK        -0.5105 
     72 CA        -48.5799  -23.4506    7.3541 C.3       3 UNK         0.0299 
     73 CB        -48.4766  -21.9576    7.0076 C.3       3 UNK        -0.1972 
     74 N         -47.8209  -24.2376    6.3706 N.am      3 UNK        -0.4305 
     75 C         -47.7722  -25.5775    6.3292 C.2       2 UNK         0.5006 
     76 O         -48.3731  -26.3109    7.1180 O.2       2 UNK        -0.5106 
     77 CA        -46.8098  -26.1911    5.3027 C.3       2 UNK         0.0296 
     78 CB        -45.3982  -26.3052    5.9035 C.3       2 UNK        -0.2002 
     79 N         -47.2594  -27.5232    4.9040 N.am      2 UNK        -0.4032 
     80 C         -48.1942  -27.7645    3.9750 C.2       1 UNK         0.5000 
     81 O         -48.7145  -26.8795    3.2917 O.2       1 UNK        -0.5238 
     82 H82       -45.2114  -32.1246    3.1314 H         1 UNK         0.0889 
     83 H83       -45.7227  -31.8483    4.7973 H         1 UNK         0.0889 
     84 H84       -44.4344  -30.8666    4.0965 H         1 UNK         0.0889 
     85 H85       -47.6653  -30.7450    4.9138 H         1 UNK         0.3028 
     86 H86       -48.7933  -29.3576    2.6850 H         1 UNK         0.0864 
     87 H87       -49.8701  -29.2268    5.5450 H         1 UNK         0.0720 
     88 H88       -50.0070  -30.6826    4.5930 H         1 UNK         0.0720 
     89 H89       -52.6721  -30.6838    4.7930 H         1 UNK         0.0814 
     90 H90       -53.6750  -29.3207    4.3626 H         1 UNK         0.0814 
     91 H91       -52.4442  -26.9828    5.5777 H         1 UNK         0.1469 
     92 H92       -52.4953  -27.6445    9.8128 H         1 UNK         0.1381 
     93 H93       -52.7869  -30.9672    7.1365 H         1 UNK         0.1206 
     94 H94       -52.3590  -29.8543   10.6848 H         1 UNK         0.0813 
     95 H95       -52.1792  -31.2386    9.6283 H         1 UNK         0.0813 
     96 H96       -54.7915  -32.4101   11.7713 H         1 UNK         0.0638 
     97 H97       -53.4534  -31.3674   12.1802 H         1 UNK         0.0638 
     98 H98       -56.3933  -30.5401   12.2408 H         1 UNK         0.0568 
     99 H99       -55.8854  -30.9084   16.0728 H         1 UNK         0.3450 
    100 H100      -55.7016  -29.4331   15.1552 H         1 UNK         0.3450 
    101 H101      -54.0177  -28.9915   13.1726 H         1 UNK         0.2987 
    102 H102      -54.3868  -26.4807   12.0485 H         1 UNK         0.0766 
    103 H103      -56.8253  -25.6616   13.7012 H         1 UNK         0.0798 
    104 H104      -56.6269  -25.4501   11.9653 H         1 UNK         0.0798 
    105 H105      -55.5996  -24.5598   13.0752 H         1 UNK         0.0798 
    106 H106      -53.3326  -26.2164   14.0364 H         1 UNK         0.3198 
    107 H107      -54.1605  -26.9822   17.4059 H         1 UNK         0.0843 
    108 H108      -51.9750  -28.1059   17.3216 H         1 UNK         0.0831 
    109 H109      -51.9771  -28.0833   15.5597 H         1 UNK         0.0831 
    110 H110      -53.1470  -29.0651   16.4346 H         1 UNK         0.0831 
    111 H111      -51.8527  -25.7358   16.4234 H         1 UNK         0.3133 
    112 H112      -52.1683  -22.9370   15.8891 H         1 UNK         0.0566 
    113 H113      -53.9698  -21.7006   17.0369 H         1 UNK         0.0814 
    114 H114      -53.4717  -22.3398   18.5965 H         1 UNK         0.0814 
    115 H115      -52.4164  -21.2390   17.7108 H         1 UNK         0.0814 
    116 H116      -50.3599  -23.4875   17.0131 H         1 UNK         0.3091 
    117 H117      -49.2155  -24.0422   19.7625 H         1 UNK         0.0702 
    118 H118      -48.7270  -26.4787   20.1543 H         1 UNK         0.0785 
    119 H119      -50.2196  -26.9056   19.3179 H         1 UNK         0.0785 
    120 H120      -50.2769  -26.0031   20.8246 H         1 UNK         0.0785 
    121 H121      -47.9282  -24.3359   17.9957 H         1 UNK         0.2998 
    122 H122      -47.0077  -24.9810   16.1699 H         1 UNK         0.0697 
    123 H123      -46.5726  -26.7445   14.5375 H         1 UNK         0.0825 
    124 H124      -47.1364  -27.5109   16.0112 H         1 UNK         0.0825 
    125 H125      -48.2299  -27.3381   14.6438 H         1 UNK         0.0825 
    126 H126      -48.2432  -25.0315   13.7029 H         1 UNK         0.3029 
    127 H127      -50.1498  -22.0085   13.7460 H         1 UNK         0.0897 
    128 H128      -48.5382  -21.3896   11.9295 H         1 UNK         0.0792 
    129 H129      -47.8407  -21.1623   13.5263 H         1 UNK         0.0792 
    130 H130      -47.3789  -22.5570   12.5656 H         1 UNK         0.0792 
    131 H131      -49.4967  -23.6143   11.5425 H         1 UNK         0.3086 
    132 H132      -52.3257  -25.7959   11.7528 H         1 UNK         0.0583 
    133 H133      -52.8652  -23.4010   10.8844 H         1 UNK         0.1020 
    134 H134      -51.5315  -23.5788    9.7866 H         1 UNK         0.1020 
    135 H135      -52.4684  -25.0931    7.0319 H         1 UNK         0.0694 
    136 H136      -51.2360  -25.4514    8.2132 H         1 UNK         0.0694 
    137 H137      -49.8831  -25.3677   10.1513 H         1 UNK         0.2989 
    138 H138      -48.2601  -28.1722   11.4518 H         1 UNK         0.1055 
    139 H139      -49.5887  -28.1254    8.6850 H         1 UNK         0.0806 
    140 H140      -49.7203  -29.4215    9.8636 H         1 UNK         0.0806 
    141 H141      -48.1665  -29.0679    9.1259 H         1 UNK         0.0806 
    142 H142      -47.7772  -26.4917    9.1559 H         1 UNK         0.3061 
    143 H143      -46.3194  -23.7751   10.9530 H         1 UNK         0.0734 
    144 H144      -44.2805  -24.3424    9.6648 H         1 UNK         0.0832 
    145 H145      -44.4767  -25.4645   10.9995 H         1 UNK         0.0832 
    146 H146      -44.8858  -25.9733    9.3676 H         1 UNK         0.0832 
    147 H147      -46.3188  -24.2713    8.1962 H         1 UNK         0.3156 
    148 H148      -49.6275  -23.7475    7.2744 H         1 UNK         0.0589 
    149 H149      -47.4456  -21.6033    7.0448 H         1 UNK         0.0808 
    150 H150      -48.8681  -21.7524    6.0111 H         1 UNK         0.0808 
    151 H151      -49.0537  -21.3538    7.7098 H         1 UNK         0.0808 
    152 H152      -47.2849  -23.7132    5.6932 H         1 UNK         0.3098 
    153 H153      -46.7665  -25.5468    4.4217 H         1 UNK         0.0720 
    154 H154      -45.0033  -25.3248    6.1727 H         1 UNK         0.0791 
    155 H155      -45.3894  -26.9201    6.8049 H         1 UNK         0.0791 
    156 H156      -44.7004  -26.7466    5.1915 H         1 UNK         0.0791 
    157 H157      -46.9102  -28.3007    5.4438 H         1 UNK         0.3028 
@<TRIPOS>BOND
     1    1    2 1    
     2    1   82 1    
     3    1   83 1    
     4    1   84 1    
     5    2    3 2    
     6    2    4 am   BACKBONE|DICT|INTERRES
     7    4    5 1    
     8    4   85 1    
     9    5    6 1    
    10    5   80 1    
    11    5   86 1    
    12    6    7 1    
    13    6   87 1    
    14    6   88 1    
    15    7    8 1    
    16    8    9 1    
    17    8   89 1    
    18    8   90 1    
    19    9   10 ar   
    20    9   14 ar   
    21   10   11 ar   
    22   10   91 1    
    23   11   12 ar   
    24   11   58 1    
    25   12   13 ar   
    26   12   92 1    
    27   13   14 ar   
    28   13   15 1    
    29   14   93 1    
    30   15   16 1    
    31   15   94 1    
    32   15   95 1    
    33   16   17 1    
    34   17   18 1    
    35   17   96 1    
    36   17   97 1    
    37   18   19 1    
    38   18   22 1    
    39   18   98 1    
    40   19   20 am   BACKBONE|DICT|INTERRES
    41   19   21 2    
    42   20   99 1    
    43   20  100 1    
    44   22   23 am   BACKBONE|DICT|INTERRES
    45   22  101 1    
    46   23   24 2    
    47   23   25 1    
    48   25   26 1    
    49   25   27 1    
    50   25  102 1    
    51   26  103 1    
    52   26  104 1    
    53   26  105 1    
    54   27   28 am   BACKBONE|DICT|INTERRES
    55   27  106 1    
    56   28   29 2    
    57   28   30 1    
    58   30   31 1    
    59   30   32 1    
    60   30  107 1    
    61   31  108 1    
    62   31  109 1    
    63   31  110 1    
    64   32   33 am   BACKBONE|DICT|INTERRES
    65   32  111 1    
    66   33   34 2    
    67   33   35 1    
    68   35   36 1    
    69   35   37 1    
    70   35  112 1    
    71   36  113 1    
    72   36  114 1    
    73   36  115 1    
    74   37   38 am   BACKBONE|DICT|INTERRES
    75   37  116 1    
    76   38   39 2    
    77   38   40 1    
    78   40   41 1    
    79   40   42 1    
    80   40  117 1    
    81   41  118 1    
    82   41  119 1    
    83   41  120 1    
    84   42   43 am   BACKBONE|DICT|INTERRES
    85   42  121 1    
    86   43   44 2    
    87   43   45 1    
    88   45   46 1    
    89   45   47 1    
    90   45  122 1    
    91   46  123 1    
    92   46  124 1    
    93   46  125 1    
    94   47   48 am   BACKBONE|DICT|INTERRES
    95   47  126 1    
    96   48   49 2    
    97   48   50 1    
    98   50   51 1    
    99   50   52 1    
   100   50  127 1    
   101   51  128 1    
   102   51  129 1    
   103   51  130 1    
   104   52   53 am   BACKBONE|DICT|INTERRES
   105   52  131 1    
   106   53   54 2    
   107   53   55 1    
   108   55   56 1    
   109   55   59 1    
   110   55  132 1    
   111   56   57 1    
   112   56  133 1    
   113   56  134 1    
   114   57   58 1    
   115   58  135 1    
   116   58  136 1    
   117   59   60 am   BACKBONE|DICT|INTERRES
   118   59  137 1    
   119   60   61 2    
   120   60   62 1    
   121   62   63 1    
   122   62   64 1    
   123   62  138 1    
   124   63  139 1    
   125   63  140 1    
   126   63  141 1    
   127   64   65 am   BACKBONE|DICT|INTERRES
   128   64  142 1    
   129   65   66 2    
   130   65   67 1    
   131   67   68 1    
   132   67   69 1    
   133   67  143 1    
   134   68  144 1    
   135   68  145 1    
   136   68  146 1    
   137   69   70 am   BACKBONE|DICT|INTERRES
   138   69  147 1    
   139   70   71 2    
   140   70   72 1    
   141   72   73 1    
   142   72   74 1    
   143   72  148 1    
   144   73  149 1    
   145   73  150 1    
   146   73  151 1    
   147   74   75 am   BACKBONE|DICT|INTERRES
   148   74  152 1    
   149   75   76 2    
   150   75   77 1    
   151   77   78 1    
   152   77   79 1    
   153   77  153 1    
   154   78  154 1    
   155   78  155 1    
   156   78  156 1    
   157   79   80 am   BACKBONE|DICT|INTERRES
   158   79  157 1    
   159   80   81 2    
@<TRIPOS>SUBSTRUCTURE
     1 UNK         1 GROUP             0       ****    0 ROOT    
