@<TRIPOS>MOLECULE
3R207
157   159    1
SMALL
USER_CHARGES


@<TRIPOS>ATOM
      1 CA        -46.5959  -27.8196   10.0536 C.3       0 UNK        -0.1975 
      2 C         -47.2155  -27.6804    8.6728 C.2       0 UNK         0.4852 
      3 O         -46.6835  -26.9442    7.8402 O.2       0 UNK        -0.5216 
      4 N         -48.3178  -28.4020    8.4159 N.am      1 UNK        -0.4461 
      5 CA        -49.1345  -28.3559    7.1902 C.3       1 UNK         0.0864 
      6 C6        -49.9667  -27.0494    7.0768 C.3       14 UNK        -0.0898 
      7 S7        -51.0932  -26.7982    8.4871 S.3       14 UNK        -0.2598 
      8 C8        -52.4074  -25.8128    7.7056 C.3       14 UNK         0.0286 
      9 C9        -53.0619  -24.8796    8.7118 C.ar      14 UNK        -0.0844 
     10 C10       -52.7921  -23.5084    8.6780 C.ar      14 UNK        -0.0881 
     11 C11       -53.3748  -22.6439    9.6109 C.ar      14 UNK        -0.0643 
     12 C12       -54.2421  -23.1646   10.5771 C.ar      14 UNK        -0.0930 
     13 C13       -54.5344  -24.5320   10.6090 C.ar      14 UNK        -0.0827 
     14 C14       -53.9419  -25.3841    9.6727 C.ar      14 UNK        -0.1249 
     15 C15       -55.5218  -25.0801   11.6290 C.3       14 UNK         0.0141 
     16 S16       -54.7442  -25.4457   13.2352 S.3       14 UNK        -0.2313 
     17 C17       -53.6713  -26.8809   12.8725 C.3       14 UNK        -0.0915 
     18 CA        -54.4332  -28.1553   12.4159 C.3       13 UNK         0.0968 
     19 C         -53.4608  -29.3273   12.0908 C.2       13 UNK         0.5732 
     20 N         -53.6245  -30.5217   12.6500 N.am      13 UNK        -0.7310 
     21 O         -52.5447  -29.1585   11.2912 O.2       13 UNK        -0.5035 
     22 N         -55.5102  -28.5180   13.3487 N.am      13 UNK        -0.4233 
     23 C         -56.6574  -29.1079   12.9872 C.2       13 UNK         0.4989 
     24 O         -56.9705  -29.3244   11.8149 O.2       13 UNK        -0.4996 
     25 CA        -57.6169  -29.5298   14.1225 C.3       12 UNK         0.0216 
     26 CB        -58.5739  -30.6646   13.6973 C.3       12 UNK        -0.1964 
     27 N         -56.9373  -29.8791   15.3786 N.am      12 UNK        -0.4276 
     28 C         -55.9858  -30.8083   15.5467 C.2       12 UNK         0.5020 
     29 O         -55.5461  -31.5269   14.6458 O.2       12 UNK        -0.5489 
     30 CA        -55.3898  -30.9240   16.9581 C.3       11 UNK         0.0294 
     31 CB        -55.7306  -32.2860   17.5847 C.3       11 UNK        -0.2019 
     32 N         -53.9364  -30.7443   16.9391 N.am      11 UNK        -0.4493 
     33 C         -53.3073  -29.6298   16.5432 C.2       11 UNK         0.4932 
     34 O         -53.8862  -28.6155   16.1445 O.2       11 UNK        -0.5029 
     35 CA        -51.7725  -29.6715   16.5776 C.3       10 UNK         0.0280 
     36 CB        -51.2058  -29.9503   15.1771 C.3       10 UNK        -0.1976 
     37 N         -51.2373  -28.4059   17.0773 N.am      10 UNK        -0.4242 
     38 C         -51.2008  -28.0646   18.3751 C.2       10 UNK         0.5072 
     39 O         -51.5399  -28.8218   19.2864 O.2       10 UNK        -0.5224 
     40 CA        -50.6940  -26.6538   18.7383 C.3       9 UNK         0.0343 
     41 CB        -49.2135  -26.7042   19.1499 C.3       9 UNK        -0.2003 
     42 N         -50.8550  -25.6848   17.6547 N.am      9 UNK        -0.4272 
     43 C         -52.0306  -25.2130   17.2184 C.2       9 UNK         0.4988 
     44 O         -53.1001  -25.4182   17.7935 O.2       9 UNK        -0.5108 
     45 CA        -52.0263  -24.3790   15.9216 C.3       8 UNK         0.0248 
     46 CB        -52.3292  -22.9022   16.2240 C.3       8 UNK        -0.2001 
     47 N         -50.8032  -24.4540   15.1110 N.am      8 UNK        -0.4140 
     48 C         -50.2557  -25.5557   14.5804 C.2       8 UNK         0.5028 
     49 O         -50.6741  -26.6931   14.7943 O.2       8 UNK        -0.5428 
     50 CA        -49.0276  -25.3415   13.6740 C.3       7 UNK         0.0264 
     51 CB        -48.3632  -26.6679   13.2619 C.3       7 UNK        -0.1988 
     52 N         -49.3615  -24.5851   12.4650 N.am      7 UNK        -0.4454 
     53 C         -49.6319  -23.2755   12.4056 C.2       7 UNK         0.5027 
     54 O         -49.5762  -22.5285   13.3858 O.2       7 UNK        -0.5083 
     55 CA        -50.0151  -22.7125   11.0222 C.3       6 UNK         0.0844 
     56 C56       -50.7630  -21.3586   11.1377 C.3       14 UNK        -0.0967 
     57 S57       -51.3247  -20.7331    9.5185 S.3       14 UNK        -0.2604 
     58 C58       -53.1014  -21.1441    9.5563 C.3       14 UNK         0.0134 
     59 N         -48.8378  -22.6184   10.1528 N.am      6 UNK        -0.4116 
     60 C         -48.2472  -23.6528    9.5432 C.2       5 UNK         0.5034 
     61 O         -48.6018  -24.8237    9.6851 O.2       5 UNK        -0.5045 
     62 CA        -47.0373  -23.3348    8.6568 C.3       5 UNK         0.0224 
     63 CB        -45.7304  -23.7399    9.3579 C.3       5 UNK        -0.1978 
     64 N         -47.1449  -24.0679    7.3970 N.am      5 UNK        -0.4737 
     65 C         -47.6346  -23.5582    6.2589 C.2       4 UNK         0.5027 
     66 O         -48.0397  -22.3989    6.1582 O.2       4 UNK        -0.5211 
     67 CA        -47.6810  -24.4906    5.0279 C.3       4 UNK         0.0297 
     68 CB        -47.6729  -23.7199    3.6903 C.3       4 UNK        -0.1993 
     69 N         -46.6433  -25.5293    5.0437 N.am      4 UNK        -0.4486 
     70 C         -45.3105  -25.3564    5.0347 C.2       3 UNK         0.4961 
     71 O         -44.7638  -24.2607    4.9028 O.2       3 UNK        -0.5105 
     72 CA        -44.4264  -26.6038    5.2313 C.3       3 UNK         0.0299 
     73 CB        -43.4846  -26.4143    6.4344 C.3       3 UNK        -0.1972 
     74 N         -45.2221  -27.8128    5.4548 N.am      3 UNK        -0.4305 
     75 C         -45.4489  -28.7720    4.5465 C.2       2 UNK         0.5006 
     76 O         -44.9512  -28.7790    3.4200 O.2       2 UNK        -0.5106 
     77 CA        -46.3994  -29.9201    4.9463 C.3       2 UNK         0.0296 
     78 CB        -45.5921  -31.1547    5.3797 C.3       2 UNK        -0.2002 
     79 N         -47.3562  -29.5771    6.0051 N.am      2 UNK        -0.4032 
     80 C         -48.3055  -28.6332    5.9127 C.2       1 UNK         0.5000 
     81 O         -48.4871  -27.9608    4.8953 O.2       1 UNK        -0.5238 
     82 H82       -47.1674  -28.4916   10.6932 H         1 UNK         0.0889 
     83 H83       -46.5556  -26.8445   10.5361 H         1 UNK         0.0889 
     84 H84       -45.5794  -28.2032    9.9726 H         1 UNK         0.0889 
     85 H85       -48.6948  -28.9850    9.1499 H         1 UNK         0.3028 
     86 H86       -49.8389  -29.1861    7.2618 H         1 UNK         0.0864 
     87 H87       -49.3099  -26.1812    7.0185 H         1 UNK         0.0720 
     88 H88       -50.5621  -27.0565    6.1618 H         1 UNK         0.0720 
     89 H89       -53.1539  -26.4812    7.2742 H         1 UNK         0.0814 
     90 H90       -51.9931  -25.2358    6.8773 H         1 UNK         0.0814 
     91 H91       -52.1194  -23.1102    7.9305 H         1 UNK         0.1469 
     92 H92       -54.7056  -22.5043   11.2975 H         1 UNK         0.1381 
     93 H93       -54.1582  -26.4432    9.6916 H         1 UNK         0.1206 
     94 H94       -56.3124  -24.3465   11.7929 H         1 UNK         0.0813 
     95 H95       -56.0250  -25.9670   11.2435 H         1 UNK         0.0813 
     96 H96       -53.1061  -27.0985   13.7800 H         1 UNK         0.0638 
     97 H97       -52.9352  -26.5778   12.1258 H         1 UNK         0.0638 
     98 H98       -54.8897  -27.9205   11.4547 H         1 UNK         0.0568 
     99 H99       -52.9881  -31.2616   12.4037 H         1 UNK         0.3450 
    100 H100      -54.3793  -30.7087   13.3029 H         1 UNK         0.3450 
    101 H101      -55.2960  -28.4014   14.3310 H         1 UNK         0.2987 
    102 H102      -58.2249  -28.6501   14.3387 H         1 UNK         0.0766 
    103 H103      -59.1855  -30.3658   12.8450 H         1 UNK         0.0798 
    104 H104      -59.2565  -30.9317   14.5039 H         1 UNK         0.0798 
    105 H105      -58.0292  -31.5639   13.4075 H         1 UNK         0.0798 
    106 H106      -57.1999  -29.3211   16.1803 H         1 UNK         0.3198 
    107 H107      -55.8113  -30.1407   17.5920 H         1 UNK         0.0843 
    108 H108      -55.3101  -33.1120   17.0091 H         1 UNK         0.0831 
    109 H109      -56.8103  -32.4360   17.6261 H         1 UNK         0.0831 
    110 H110      -55.3550  -32.3608   18.6054 H         1 UNK         0.0831 
    111 H111      -53.3813  -31.5420   17.2131 H         1 UNK         0.3133 
    112 H112      -51.4477  -30.4757   17.2414 H         1 UNK         0.0566 
    113 H113      -51.5186  -29.1924   14.4581 H         1 UNK         0.0814 
    114 H114      -51.5492  -30.9150   14.8019 H         1 UNK         0.0814 
    115 H115      -50.1161  -29.9718   15.1849 H         1 UNK         0.0814 
    116 H116      -51.0041  -27.7126   16.3691 H         1 UNK         0.3091 
    117 H117      -51.2759  -26.3059   19.5945 H         1 UNK         0.0702 
    118 H118      -48.8589  -25.7271   19.4786 H         1 UNK         0.0785 
    119 H119      -48.5769  -27.0356   18.3284 H         1 UNK         0.0785 
    120 H120      -49.0630  -27.3974   19.9788 H         1 UNK         0.0785 
    121 H121      -50.0292  -25.4570   17.1217 H         1 UNK         0.2998 
    122 H122      -52.8358  -24.7714   15.3061 H         1 UNK         0.0697 
    123 H123      -52.4478  -22.3255   15.3063 H         1 UNK         0.0825 
    124 H124      -51.5347  -22.4410   16.8119 H         1 UNK         0.0825 
    125 H125      -53.2564  -22.7993   16.7897 H         1 UNK         0.0825 
    126 H126      -50.3921  -23.5675   14.8324 H         1 UNK         0.3029 
    127 H127      -48.2970  -24.7699   14.2506 H         1 UNK         0.0897 
    128 H128      -48.1106  -27.2695   14.1362 H         1 UNK         0.0792 
    129 H129      -47.4368  -26.4896   12.7176 H         1 UNK         0.0792 
    130 H130      -49.0186  -27.2689   12.6299 H         1 UNK         0.0792 
    131 H131      -49.3718  -25.0989   11.5891 H         1 UNK         0.3086 
    132 H132      -50.7068  -23.4303   10.5769 H         1 UNK         0.0583 
    133 H133      -51.6240  -21.4531   11.8026 H         1 UNK         0.1020 
    134 H134      -50.1196  -20.6003   11.5882 H         1 UNK         0.1020 
    135 H135      -53.5626  -20.6317   10.4020 H         1 UNK         0.0694 
    136 H136      -53.5713  -20.7385    8.6594 H         1 UNK         0.0694 
    137 H137      -48.4779  -21.6877   10.0022 H         1 UNK         0.2989 
    138 H138      -47.0028  -22.2602    8.4635 H         1 UNK         0.1055 
    139 H139      -44.8623  -23.4887    8.7480 H         1 UNK         0.0806 
    140 H140      -45.6947  -24.8107    9.5592 H         1 UNK         0.0806 
    141 H141      -45.6194  -23.2226   10.3117 H         1 UNK         0.0806 
    142 H142      -46.9147  -25.0584    7.4374 H         1 UNK         0.3061 
    143 H143      -48.6331  -25.0185    5.0863 H         1 UNK         0.0734 
    144 H144      -46.7832  -23.0985    3.5852 H         1 UNK         0.0832 
    145 H145      -47.7109  -24.4004    2.8398 H         1 UNK         0.0832 
    146 H146      -48.5382  -23.0604    3.6142 H         1 UNK         0.0832 
    147 H147      -46.9955  -26.4756    5.1330 H         1 UNK         0.3156 
    148 H148      -43.8141  -26.7113    4.3339 H         1 UNK         0.0589 
    149 H149      -42.8463  -27.2859    6.5797 H         1 UNK         0.0808 
    150 H150      -44.0397  -26.2465    7.3585 H         1 UNK         0.0808 
    151 H151      -42.8284  -25.5552    6.2887 H         1 UNK         0.0808 
    152 H152      -45.7023  -27.8519    6.3490 H         1 UNK         0.3098 
    153 H153      -46.9758  -30.1840    4.0570 H         1 UNK         0.0720 
    154 H154      -44.8911  -31.4566    4.6000 H         1 UNK         0.0791 
    155 H155      -46.2427  -32.0077    5.5739 H         1 UNK         0.0791 
    156 H156      -45.0111  -30.9608    6.2824 H         1 UNK         0.0791 
    157 H157      -47.2591  -30.0688    6.8819 H         1 UNK         0.3028 
@<TRIPOS>BOND
     1    1    2 1    
     2    1   82 1    
     3    1   83 1    
     4    1   84 1    
     5    2    3 2    
     6    2    4 am   BACKBONE|DICT|INTERRES
     7    4    5 1    
     8    4   85 1    
     9    5    6 1    
    10    5   80 1    
    11    5   86 1    
    12    6    7 1    
    13    6   87 1    
    14    6   88 1    
    15    7    8 1    
    16    8    9 1    
    17    8   89 1    
    18    8   90 1    
    19    9   10 ar   
    20    9   14 ar   
    21   10   11 ar   
    22   10   91 1    
    23   11   12 ar   
    24   11   58 1    
    25   12   13 ar   
    26   12   92 1    
    27   13   14 ar   
    28   13   15 1    
    29   14   93 1    
    30   15   16 1    
    31   15   94 1    
    32   15   95 1    
    33   16   17 1    
    34   17   18 1    
    35   17   96 1    
    36   17   97 1    
    37   18   19 1    
    38   18   22 1    
    39   18   98 1    
    40   19   20 am   BACKBONE|DICT|INTERRES
    41   19   21 2    
    42   20   99 1    
    43   20  100 1    
    44   22   23 am   BACKBONE|DICT|INTERRES
    45   22  101 1    
    46   23   24 2    
    47   23   25 1    
    48   25   26 1    
    49   25   27 1    
    50   25  102 1    
    51   26  103 1    
    52   26  104 1    
    53   26  105 1    
    54   27   28 am   BACKBONE|DICT|INTERRES
    55   27  106 1    
    56   28   29 2    
    57   28   30 1    
    58   30   31 1    
    59   30   32 1    
    60   30  107 1    
    61   31  108 1    
    62   31  109 1    
    63   31  110 1    
    64   32   33 am   BACKBONE|DICT|INTERRES
    65   32  111 1    
    66   33   34 2    
    67   33   35 1    
    68   35   36 1    
    69   35   37 1    
    70   35  112 1    
    71   36  113 1    
    72   36  114 1    
    73   36  115 1    
    74   37   38 am   BACKBONE|DICT|INTERRES
    75   37  116 1    
    76   38   39 2    
    77   38   40 1    
    78   40   41 1    
    79   40   42 1    
    80   40  117 1    
    81   41  118 1    
    82   41  119 1    
    83   41  120 1    
    84   42   43 am   BACKBONE|DICT|INTERRES
    85   42  121 1    
    86   43   44 2    
    87   43   45 1    
    88   45   46 1    
    89   45   47 1    
    90   45  122 1    
    91   46  123 1    
    92   46  124 1    
    93   46  125 1    
    94   47   48 am   BACKBONE|DICT|INTERRES
    95   47  126 1    
    96   48   49 2    
    97   48   50 1    
    98   50   51 1    
    99   50   52 1    
   100   50  127 1    
   101   51  128 1    
   102   51  129 1    
   103   51  130 1    
   104   52   53 am   BACKBONE|DICT|INTERRES
   105   52  131 1    
   106   53   54 2    
   107   53   55 1    
   108   55   56 1    
   109   55   59 1    
   110   55  132 1    
   111   56   57 1    
   112   56  133 1    
   113   56  134 1    
   114   57   58 1    
   115   58  135 1    
   116   58  136 1    
   117   59   60 am   BACKBONE|DICT|INTERRES
   118   59  137 1    
   119   60   61 2    
   120   60   62 1    
   121   62   63 1    
   122   62   64 1    
   123   62  138 1    
   124   63  139 1    
   125   63  140 1    
   126   63  141 1    
   127   64   65 am   BACKBONE|DICT|INTERRES
   128   64  142 1    
   129   65   66 2    
   130   65   67 1    
   131   67   68 1    
   132   67   69 1    
   133   67  143 1    
   134   68  144 1    
   135   68  145 1    
   136   68  146 1    
   137   69   70 am   BACKBONE|DICT|INTERRES
   138   69  147 1    
   139   70   71 2    
   140   70   72 1    
   141   72   73 1    
   142   72   74 1    
   143   72  148 1    
   144   73  149 1    
   145   73  150 1    
   146   73  151 1    
   147   74   75 am   BACKBONE|DICT|INTERRES
   148   74  152 1    
   149   75   76 2    
   150   75   77 1    
   151   77   78 1    
   152   77   79 1    
   153   77  153 1    
   154   78  154 1    
   155   78  155 1    
   156   78  156 1    
   157   79   80 am   BACKBONE|DICT|INTERRES
   158   79  157 1    
   159   80   81 2    
@<TRIPOS>SUBSTRUCTURE
     1 UNK         1 GROUP             0       ****    0 ROOT    
