@<TRIPOS>MOLECULE
3R207
157   159    1
SMALL
USER_CHARGES


@<TRIPOS>ATOM
      1 CA        -45.8764  -31.2277   10.1970 C.3       0 UNK        -0.1975 
      2 C         -46.3770  -29.9232    9.5957 C.2       0 UNK         0.4852 
      3 O         -46.0226  -28.8538   10.0864 O.2       0 UNK        -0.5216 
      4 N         -47.1798  -30.0103    8.5250 N.am      1 UNK        -0.4461 
      5 CA        -47.8528  -28.9009    7.8230 C.3       1 UNK         0.0864 
      6 C6        -48.9393  -28.1846    8.6766 C.3       14 UNK        -0.0898 
      7 S7        -50.1315  -29.3450    9.4299 S.3       14 UNK        -0.2598 
      8 C8        -51.3435  -29.5660    8.0895 C.3       14 UNK         0.0286 
      9 C9        -52.4307  -28.5042    8.1294 C.ar      14 UNK        -0.0844 
     10 C10       -52.3278  -27.3482    7.3505 C.ar      14 UNK        -0.0881 
     11 C11       -53.3320  -26.3759    7.3904 C.ar      14 UNK        -0.0643 
     12 C12       -54.4475  -26.5696    8.2110 C.ar      14 UNK        -0.0930 
     13 C13       -54.5634  -27.7253    8.9881 C.ar      14 UNK        -0.0827 
     14 C14       -53.5551  -28.6905    8.9381 C.ar      14 UNK        -0.1249 
     15 C15       -55.7827  -27.9337    9.8713 C.3       14 UNK         0.0141 
     16 S16       -55.6287  -27.0086   11.4267 S.3       14 UNK        -0.2313 
     17 C17       -57.2523  -27.3427   12.1901 C.3       14 UNK        -0.0915 
     18 CA        -57.1881  -28.0652   13.5637 C.3       13 UNK         0.0968 
     19 C         -56.7097  -29.5440   13.5071 C.2       13 UNK         0.5732 
     20 N         -56.0541  -30.0643   14.5399 N.am      13 UNK        -0.7310 
     21 O         -56.9668  -30.2475   12.5331 O.2       13 UNK        -0.5035 
     22 N         -56.4752  -27.2720   14.5744 N.am      13 UNK        -0.4233 
     23 C         -57.0578  -26.5549   15.5428 C.2       13 UNK         0.4989 
     24 O         -58.2778  -26.4016   15.6308 O.2       13 UNK        -0.4996 
     25 CA        -56.1441  -25.8874   16.5948 C.3       12 UNK         0.0216 
     26 CB        -56.8048  -25.8294   17.9888 C.3       12 UNK        -0.1964 
     27 N         -54.7964  -26.4611   16.6971 N.am      12 UNK        -0.4276 
     28 C         -54.4621  -27.7261   16.9889 C.2       12 UNK         0.5020 
     29 O         -55.2702  -28.6356   17.1930 O.2       12 UNK        -0.5489 
     30 CA        -52.9557  -28.0374   16.9865 C.3       11 UNK         0.0294 
     31 CB        -52.5293  -28.7021   18.3058 C.3       11 UNK        -0.2019 
     32 N         -52.5361  -28.8835   15.8645 N.am      11 UNK        -0.4493 
     33 C         -52.8476  -28.7118   14.5724 C.2       11 UNK         0.4932 
     34 O         -53.6136  -27.8468   14.1505 O.2       11 UNK        -0.5029 
     35 CA        -52.0927  -29.5996   13.5757 C.3       10 UNK         0.0280 
     36 CB        -52.8161  -29.7058   12.2234 C.3       10 UNK        -0.1976 
     37 N         -50.7820  -28.9939   13.3687 N.am      10 UNK        -0.4242 
     38 C         -49.7205  -29.1917   14.1592 C.2       10 UNK         0.5072 
     39 O         -49.6559  -30.0665   15.0244 O.2       10 UNK        -0.5224 
     40 CA        -48.5749  -28.1843   14.0023 C.3       9 UNK         0.0343 
     41 CB        -47.8096  -28.4142   12.6934 C.3       9 UNK        -0.2003 
     42 N         -49.0740  -26.8070   14.0571 N.am      9 UNK        -0.4272 
     43 C         -49.4787  -26.2039   15.1859 C.2       9 UNK         0.4988 
     44 O         -49.4369  -26.7283   16.2989 O.2       9 UNK        -0.5108 
     45 CA        -50.0279  -24.7795   15.0555 C.3       8 UNK         0.0248 
     46 CB        -48.9390  -23.8004   14.5815 C.3       8 UNK        -0.2001 
     47 N         -51.1581  -24.7459   14.1301 N.am      8 UNK        -0.4140 
     48 C         -52.4489  -24.7073   14.4897 C.2       8 UNK         0.5028 
     49 O         -52.8267  -24.7320   15.6632 O.2       8 UNK        -0.5428 
     50 CA        -53.5200  -24.6466   13.3786 C.3       7 UNK         0.0264 
     51 CB        -54.4214  -23.4031   13.5239 C.3       7 UNK        -0.1988 
     52 N         -53.0062  -24.7847   12.0067 N.am      7 UNK        -0.4454 
     53 C         -52.2407  -23.9185   11.3298 C.2       7 UNK         0.5027 
     54 O         -51.8853  -22.8214   11.7653 O.2       7 UNK        -0.5083 
     55 CA        -51.7496  -24.3692    9.9434 C.3       6 UNK         0.0844 
     56 C56       -52.4954  -23.5948    8.8264 C.3       14 UNK        -0.0967 
     57 S57       -51.8961  -24.0147    7.1512 S.3       14 UNK        -0.2604 
     58 C58       -53.2111  -25.1169    6.5454 C.3       14 UNK         0.0134 
     59 N         -50.3028  -24.1895    9.8420 N.am      6 UNK        -0.4116 
     60 C         -49.3486  -24.7504   10.5929 C.2       5 UNK         0.5034 
     61 O         -49.5776  -25.5392   11.5153 O.2       5 UNK        -0.5045 
     62 CA        -47.8954  -24.3437   10.2540 C.3       5 UNK         0.0224 
     63 CB        -46.8471  -25.2779   10.8832 C.3       5 UNK        -0.1978 
     64 N         -47.6382  -24.2349    8.8092 N.am      5 UNK        -0.4737 
     65 C         -48.0255  -23.2161    8.0283 C.2       4 UNK         0.5027 
     66 O         -48.6556  -22.2466    8.4538 O.2       4 UNK        -0.5211 
     67 CA        -47.6837  -23.3184    6.5310 C.3       4 UNK         0.0297 
     68 CB        -48.0287  -22.0369    5.7429 C.3       4 UNK        -0.1993 
     69 N         -46.2941  -23.7199    6.2945 N.am      4 UNK        -0.4486 
     70 C         -45.1752  -23.0891    6.6880 C.2       3 UNK         0.4961 
     71 O         -45.1658  -22.0175    7.2955 O.2       3 UNK        -0.5105 
     72 CA        -43.8354  -23.7616    6.3146 C.3       3 UNK         0.0299 
     73 CB        -42.7148  -23.4665    7.3352 C.3       3 UNK        -0.1972 
     74 N         -43.9572  -25.2041    6.0541 N.am      3 UNK        -0.4305 
     75 C         -44.3182  -26.1540    6.9292 C.2       2 UNK         0.5006 
     76 O         -44.4959  -25.9614    8.1333 O.2       2 UNK        -0.5106 
     77 CA        -44.5270  -27.5574    6.3338 C.3       2 UNK         0.0296 
     78 CB        -43.2311  -28.3784    6.4349 C.3       2 UNK        -0.2002 
     79 N         -45.6146  -28.3050    6.9706 N.am      2 UNK        -0.4032 
     80 C         -46.8856  -27.9036    7.1357 C.2       1 UNK         0.5000 
     81 O         -47.3136  -26.8175    6.7351 O.2       1 UNK        -0.5238 
     82 H82       -46.2104  -31.3145   11.2304 H         1 UNK         0.0889 
     83 H83       -44.7871  -31.2515   10.1880 H         1 UNK         0.0889 
     84 H84       -46.2398  -32.0970    9.6494 H         1 UNK         0.0889 
     85 H85       -47.4147  -30.9291    8.1754 H         1 UNK         0.3028 
     86 H86       -48.3736  -29.3758    6.9908 H         1 UNK         0.0864 
     87 H87       -49.4888  -27.4529    8.0829 H         1 UNK         0.0720 
     88 H88       -48.4732  -27.6205    9.4829 H         1 UNK         0.0720 
     89 H89       -51.7968  -30.5530    8.1924 H         1 UNK         0.0814 
     90 H90       -50.8405  -29.5672    7.1217 H         1 UNK         0.0814 
     91 H91       -51.4647  -27.1970    6.7170 H         1 UNK         0.1469 
     92 H92       -55.2275  -25.8214    8.2485 H         1 UNK         0.1381 
     93 H93       -53.6438  -29.5898    9.5313 H         1 UNK         0.1206 
     94 H94       -55.9191  -28.9930   10.0951 H         1 UNK         0.0813 
     95 H95       -56.6789  -27.6093    9.3405 H         1 UNK         0.0813 
     96 H96       -57.8781  -27.9082   11.4978 H         1 UNK         0.0638 
     97 H97       -57.7562  -26.3832   12.3136 H         1 UNK         0.0638 
     98 H98       -58.2246  -28.1733   13.8864 H         1 UNK         0.0568 
     99 H99       -55.7722  -31.0299   14.5014 H         1 UNK         0.3450 
    100 H100      -55.8688  -29.5166   15.3722 H         1 UNK         0.3450 
    101 H101      -55.4633  -27.3719   14.5553 H         1 UNK         0.2987 
    102 H102      -56.0039  -24.8608   16.2543 H         1 UNK         0.0766 
    103 H103      -57.7432  -25.2742   17.9590 H         1 UNK         0.0798 
    104 H104      -56.1605  -25.3304   18.7126 H         1 UNK         0.0798 
    105 H105      -57.0284  -26.8264   18.3701 H         1 UNK         0.0798 
    106 H106      -54.0406  -25.8189   16.4515 H         1 UNK         0.3198 
    107 H107      -52.4044  -27.0994   16.8972 H         1 UNK         0.0843 
    108 H108      -52.9898  -29.6831   18.4304 H         1 UNK         0.0831 
    109 H109      -52.8233  -28.0932   19.1619 H         1 UNK         0.0831 
    110 H110      -51.4474  -28.8278   18.3557 H         1 UNK         0.0831 
    111 H111      -51.8598  -29.6026   16.0832 H         1 UNK         0.3133 
    112 H112      -51.9928  -30.6036   13.9935 H         1 UNK         0.0566 
    113 H113      -52.2786  -30.3616   11.5386 H         1 UNK         0.0814 
    114 H114      -52.9175  -28.7317   11.7436 H         1 UNK         0.0814 
    115 H115      -53.8200  -30.1132   12.3470 H         1 UNK         0.0814 
    116 H116      -50.7411  -28.2379   12.7004 H         1 UNK         0.3091 
    117 H117      -47.8784  -28.3363   14.8298 H         1 UNK         0.0702 
    118 H118      -47.4724  -29.4482   12.6141 H         1 UNK         0.0785 
    119 H119      -46.9230  -27.7830   12.6373 H         1 UNK         0.0785 
    120 H120      -48.4244  -28.2036   11.8183 H         1 UNK         0.0785 
    121 H121      -49.1651  -26.3164   13.1704 H         1 UNK         0.2998 
    122 H122      -50.3496  -24.4551   16.0476 H         1 UNK         0.0697 
    123 H123      -48.5681  -24.0421   13.5858 H         1 UNK         0.0825 
    124 H124      -48.0842  -23.8117   15.2590 H         1 UNK         0.0825 
    125 H125      -49.3162  -22.7780   14.5545 H         1 UNK         0.0825 
    126 H126      -50.9341  -24.7544   13.1436 H         1 UNK         0.3029 
    127 H127      -54.1645  -25.5084   13.5384 H         1 UNK         0.0897 
    128 H128      -53.8566  -22.4743   13.4430 H         1 UNK         0.0792 
    129 H129      -54.9158  -23.3921   14.4957 H         1 UNK         0.0792 
    130 H130      -55.2035  -23.3911   12.7648 H         1 UNK         0.0792 
    131 H131      -53.2413  -25.6625   11.5605 H         1 UNK         0.3086 
    132 H132      -51.9498  -25.4364    9.8262 H         1 UNK         0.0583 
    133 H133      -53.5703  -23.7755    8.8858 H         1 UNK         0.1020 
    134 H134      -52.3672  -22.5183    8.9589 H         1 UNK         0.1020 
    135 H135      -54.1551  -24.5703    6.5184 H         1 UNK         0.0694 
    136 H136      -52.9900  -25.3964    5.5143 H         1 UNK         0.0694 
    137 H137      -49.9981  -23.5058    9.1580 H         1 UNK         0.2989 
    138 H138      -47.7511  -23.3557   10.6969 H         1 UNK         0.1055 
    139 H139      -46.9166  -26.2910   10.4895 H         1 UNK         0.0806 
    140 H140      -46.9659  -25.3363   11.9655 H         1 UNK         0.0806 
    141 H141      -45.8350  -24.9212   10.6907 H         1 UNK         0.0806 
    142 H142      -47.1505  -25.0090    8.3742 H         1 UNK         0.3061 
    143 H143      -48.3062  -24.1230    6.1359 H         1 UNK         0.0734 
    144 H144      -47.4787  -21.1716    6.1141 H         1 UNK         0.0832 
    145 H145      -47.8035  -22.1493    4.6826 H         1 UNK         0.0832 
    146 H146      -49.0915  -21.8051    5.8245 H         1 UNK         0.0832 
    147 H147      -46.1835  -24.6160    5.8399 H         1 UNK         0.3156 
    148 H148      -43.5352  -23.3133    5.3664 H         1 UNK         0.0589 
    149 H149      -41.7823  -23.9559    7.0548 H         1 UNK         0.0808 
    150 H150      -42.5120  -22.3965    7.3942 H         1 UNK         0.0808 
    151 H151      -42.9807  -23.7992    8.3389 H         1 UNK         0.0808 
    152 H152      -43.8165  -25.4779    5.0906 H         1 UNK         0.3098 
    153 H153      -44.7912  -27.4516    5.2798 H         1 UNK         0.0720 
    154 H154      -42.9432  -28.5466    7.4738 H         1 UNK         0.0791 
    155 H155      -42.4014  -27.8651    5.9467 H         1 UNK         0.0791 
    156 H156      -43.3359  -29.3507    5.9529 H         1 UNK         0.0791 
    157 H157      -45.3659  -29.1969    7.3705 H         1 UNK         0.3028 
@<TRIPOS>BOND
     1    1    2 1    
     2    1   82 1    
     3    1   83 1    
     4    1   84 1    
     5    2    3 2    
     6    2    4 am   BACKBONE|DICT|INTERRES
     7    4    5 1    
     8    4   85 1    
     9    5    6 1    
    10    5   80 1    
    11    5   86 1    
    12    6    7 1    
    13    6   87 1    
    14    6   88 1    
    15    7    8 1    
    16    8    9 1    
    17    8   89 1    
    18    8   90 1    
    19    9   10 ar   
    20    9   14 ar   
    21   10   11 ar   
    22   10   91 1    
    23   11   12 ar   
    24   11   58 1    
    25   12   13 ar   
    26   12   92 1    
    27   13   14 ar   
    28   13   15 1    
    29   14   93 1    
    30   15   16 1    
    31   15   94 1    
    32   15   95 1    
    33   16   17 1    
    34   17   18 1    
    35   17   96 1    
    36   17   97 1    
    37   18   19 1    
    38   18   22 1    
    39   18   98 1    
    40   19   20 am   BACKBONE|DICT|INTERRES
    41   19   21 2    
    42   20   99 1    
    43   20  100 1    
    44   22   23 am   BACKBONE|DICT|INTERRES
    45   22  101 1    
    46   23   24 2    
    47   23   25 1    
    48   25   26 1    
    49   25   27 1    
    50   25  102 1    
    51   26  103 1    
    52   26  104 1    
    53   26  105 1    
    54   27   28 am   BACKBONE|DICT|INTERRES
    55   27  106 1    
    56   28   29 2    
    57   28   30 1    
    58   30   31 1    
    59   30   32 1    
    60   30  107 1    
    61   31  108 1    
    62   31  109 1    
    63   31  110 1    
    64   32   33 am   BACKBONE|DICT|INTERRES
    65   32  111 1    
    66   33   34 2    
    67   33   35 1    
    68   35   36 1    
    69   35   37 1    
    70   35  112 1    
    71   36  113 1    
    72   36  114 1    
    73   36  115 1    
    74   37   38 am   BACKBONE|DICT|INTERRES
    75   37  116 1    
    76   38   39 2    
    77   38   40 1    
    78   40   41 1    
    79   40   42 1    
    80   40  117 1    
    81   41  118 1    
    82   41  119 1    
    83   41  120 1    
    84   42   43 am   BACKBONE|DICT|INTERRES
    85   42  121 1    
    86   43   44 2    
    87   43   45 1    
    88   45   46 1    
    89   45   47 1    
    90   45  122 1    
    91   46  123 1    
    92   46  124 1    
    93   46  125 1    
    94   47   48 am   BACKBONE|DICT|INTERRES
    95   47  126 1    
    96   48   49 2    
    97   48   50 1    
    98   50   51 1    
    99   50   52 1    
   100   50  127 1    
   101   51  128 1    
   102   51  129 1    
   103   51  130 1    
   104   52   53 am   BACKBONE|DICT|INTERRES
   105   52  131 1    
   106   53   54 2    
   107   53   55 1    
   108   55   56 1    
   109   55   59 1    
   110   55  132 1    
   111   56   57 1    
   112   56  133 1    
   113   56  134 1    
   114   57   58 1    
   115   58  135 1    
   116   58  136 1    
   117   59   60 am   BACKBONE|DICT|INTERRES
   118   59  137 1    
   119   60   61 2    
   120   60   62 1    
   121   62   63 1    
   122   62   64 1    
   123   62  138 1    
   124   63  139 1    
   125   63  140 1    
   126   63  141 1    
   127   64   65 am   BACKBONE|DICT|INTERRES
   128   64  142 1    
   129   65   66 2    
   130   65   67 1    
   131   67   68 1    
   132   67   69 1    
   133   67  143 1    
   134   68  144 1    
   135   68  145 1    
   136   68  146 1    
   137   69   70 am   BACKBONE|DICT|INTERRES
   138   69  147 1    
   139   70   71 2    
   140   70   72 1    
   141   72   73 1    
   142   72   74 1    
   143   72  148 1    
   144   73  149 1    
   145   73  150 1    
   146   73  151 1    
   147   74   75 am   BACKBONE|DICT|INTERRES
   148   74  152 1    
   149   75   76 2    
   150   75   77 1    
   151   77   78 1    
   152   77   79 1    
   153   77  153 1    
   154   78  154 1    
   155   78  155 1    
   156   78  156 1    
   157   79   80 am   BACKBONE|DICT|INTERRES
   158   79  157 1    
   159   80   81 2    
@<TRIPOS>SUBSTRUCTURE
     1 UNK         1 GROUP             0       ****    0 ROOT    
