@<TRIPOS>MOLECULE
3R207
157   159    1
SMALL
USER_CHARGES


@<TRIPOS>ATOM
      1 CA        -51.3234  -28.5335    1.0953 C.3       0 UNK        -0.1975 
      2 C         -50.9213  -28.5414    2.5629 C.2       0 UNK         0.4852 
      3 O         -51.0992  -27.5348    3.2509 O.2       0 UNK        -0.5216 
      4 N         -50.3885  -29.6708    3.0473 N.am      1 UNK        -0.4461 
      5 CA        -49.9114  -29.8458    4.4229 C.3       1 UNK         0.0864 
      6 C6        -49.6849  -31.3370    4.7737 C.3       14 UNK        -0.0898 
      7 S7        -51.2535  -32.2677    4.7790 S.3       14 UNK        -0.2598 
      8 C8        -51.6126  -32.3899    6.5641 C.3       14 UNK         0.0286 
      9 C9        -51.7271  -31.0257    7.2350 C.ar      14 UNK        -0.0844 
     10 C10       -50.7951  -30.6329    8.2006 C.ar      14 UNK        -0.0881 
     11 C11       -50.8985  -29.3832    8.8178 C.ar      14 UNK        -0.0643 
     12 C12       -51.9378  -28.5233    8.4568 C.ar      14 UNK        -0.0930 
     13 C13       -52.8855  -28.9015    7.4975 C.ar      14 UNK        -0.0827 
     14 C14       -52.7704  -30.1586    6.8958 C.ar      14 UNK        -0.1249 
     15 C15       -54.0398  -27.9922    7.0673 C.3       14 UNK         0.0141 
     16 S16       -54.3734  -26.5469    8.1381 S.3       14 UNK        -0.2313 
     17 C17       -54.8896  -27.3351    9.7024 C.3       14 UNK        -0.0915 
     18 CA        -56.3889  -27.0811   10.0525 C.3       13 UNK         0.0968 
     19 C         -57.3562  -28.1729    9.4965 C.2       13 UNK         0.5732 
     20 N         -58.4175  -28.5401   10.2056 N.am      13 UNK        -0.7310 
     21 O         -57.1718  -28.6733    8.3905 O.2       13 UNK        -0.5035 
     22 N         -56.5897  -26.7487   11.4750 N.am      13 UNK        -0.4233 
     23 C         -56.2759  -27.5273   12.5182 C.2       13 UNK         0.4989 
     24 O         -55.7551  -28.6412   12.4258 O.2       13 UNK        -0.4996 
     25 CA        -56.6584  -26.9824   13.9040 C.3       12 UNK         0.0216 
     26 CB        -58.0269  -27.5325   14.3399 C.3       12 UNK        -0.1964 
     27 N         -55.6564  -27.3319   14.9122 N.am      12 UNK        -0.4276 
     28 C         -54.4557  -26.7500   15.0107 C.2       12 UNK         0.5020 
     29 O         -54.0771  -25.8314   14.2784 O.2       12 UNK        -0.5489 
     30 CA        -53.5208  -27.3005   16.0975 C.3       11 UNK         0.0294 
     31 CB        -52.6478  -28.4358   15.5375 C.3       11 UNK        -0.2019 
     32 N         -52.6499  -26.2348   16.5856 N.am      11 UNK        -0.4493 
     33 C         -52.8978  -25.4566   17.6457 C.2       11 UNK         0.4932 
     34 O         -53.8697  -25.6063   18.3891 O.2       11 UNK        -0.5029 
     35 CA        -51.8912  -24.3170   17.9097 C.3       10 UNK         0.0280 
     36 CB        -51.9990  -23.7241   19.3309 C.3       10 UNK        -0.1976 
     37 N         -50.5082  -24.6932   17.5937 N.am      10 UNK        -0.4242 
     38 C         -49.7672  -25.6560   18.1652 C.2       10 UNK         0.5072 
     39 O         -50.1334  -26.3177   19.1378 O.2       10 UNK        -0.5224 
     40 CA        -48.3903  -25.9650   17.5410 C.3       9 UNK         0.0343 
     41 CB        -48.4058  -27.3550   16.8824 C.3       9 UNK        -0.2003 
     42 N         -47.9491  -24.9790   16.5500 N.am      9 UNK        -0.4272 
     43 C         -47.4869  -23.7546   16.8390 C.2       9 UNK         0.4988 
     44 O         -47.3148  -23.3409   17.9859 O.2       9 UNK        -0.5108 
     45 CA        -47.1998  -22.8203   15.6492 C.3       8 UNK         0.0248 
     46 CB        -45.7858  -23.0637   15.0985 C.3       8 UNK        -0.2001 
     47 N         -48.1842  -22.9383   14.5664 N.am      8 UNK        -0.4140 
     48 C         -49.4897  -22.6517   14.6931 C.2       8 UNK         0.5028 
     49 O         -49.9973  -22.2197   15.7280 O.2       8 UNK        -0.5428 
     50 CA        -50.3979  -22.9490   13.4877 C.3       7 UNK         0.0264 
     51 CB        -50.2627  -21.8576   12.4145 C.3       7 UNK        -0.1988 
     52 N         -50.1462  -24.2664   12.8983 N.am      7 UNK        -0.4454 
     53 C         -50.2931  -25.4294   13.5510 C.2       7 UNK         0.5027 
     54 O         -50.7062  -25.5124   14.7063 O.2       7 UNK        -0.5083 
     55 CA        -49.8328  -26.7140   12.8373 C.3       6 UNK         0.0844 
     56 C56       -50.9379  -27.3094   11.9316 C.3       14 UNK        -0.0967 
     57 S57       -50.5830  -29.0610   11.5501 S.3       14 UNK        -0.2604 
     58 C58       -49.8887  -28.9600    9.8732 C.3       14 UNK         0.0134 
     59 N         -48.5647  -26.5042   12.1325 N.am      6 UNK        -0.4116 
     60 C         -47.3966  -26.2590   12.7426 C.2       5 UNK         0.5034 
     61 O         -47.2506  -26.2291   13.9642 O.2       5 UNK        -0.5045 
     62 CA        -46.2006  -25.9432   11.8346 C.3       5 UNK         0.0224 
     63 CB        -45.5727  -27.2352   11.2873 C.3       5 UNK        -0.1978 
     64 N         -46.5767  -25.0593   10.7286 N.am      5 UNK        -0.4737 
     65 C         -46.8737  -23.7600   10.8807 C.2       4 UNK         0.5027 
     66 O         -46.8369  -23.1778   11.9641 O.2       4 UNK        -0.5211 
     67 CA        -47.3226  -22.9838    9.6287 C.3       4 UNK         0.0297 
     68 CB        -46.1036  -22.4121    8.8884 C.3       4 UNK        -0.1993 
     69 N         -48.1298  -23.7793    8.7000 N.am      4 UNK        -0.4486 
     70 C         -49.2996  -24.3556    9.0067 C.2       3 UNK         0.4961 
     71 O         -49.8493  -24.2510   10.1023 O.2       3 UNK        -0.5105 
     72 CA        -49.9491  -25.2491    7.9387 C.3       3 UNK         0.0299 
     73 CB        -50.9248  -24.4376    7.0734 C.3       3 UNK        -0.1972 
     74 N         -49.0327  -26.0030    7.0723 N.am      3 UNK        -0.4305 
     75 C         -47.9999  -26.7645    7.4663 C.2       2 UNK         0.5006 
     76 O         -47.5669  -26.8004    8.6183 O.2       2 UNK        -0.5106 
     77 CA        -47.4141  -27.6957    6.3999 C.3       2 UNK         0.0296 
     78 CB        -46.2447  -28.5553    6.9200 C.3       2 UNK        -0.2002 
     79 N         -48.4961  -28.5563    5.9293 N.am      2 UNK        -0.4032 
     80 C         -48.6351  -29.0227    4.6849 C.2       1 UNK         0.5000 
     81 O         -47.8118  -28.8443    3.7824 O.2       1 UNK        -0.5238 
     82 H82       -52.3880  -28.3217    0.9994 H         1 UNK         0.0889 
     83 H83       -51.1231  -29.4898    0.6124 H         1 UNK         0.0889 
     84 H84       -50.7720  -27.7610    0.5600 H         1 UNK         0.0889 
     85 H85       -50.2557  -30.4631    2.4358 H         1 UNK         0.3028 
     86 H86       -50.6887  -29.4522    5.0811 H         1 UNK         0.0864 
     87 H87       -49.2089  -31.4465    5.7501 H         1 UNK         0.0720 
     88 H88       -49.0062  -31.8021    4.0563 H         1 UNK         0.0720 
     89 H89       -50.8405  -32.9958    7.0410 H         1 UNK         0.0814 
     90 H90       -52.5498  -32.9317    6.6985 H         1 UNK         0.0814 
     91 H91       -49.9919  -31.3022    8.4778 H         1 UNK         0.1469 
     92 H92       -52.0122  -27.5659    8.9472 H         1 UNK         0.1381 
     93 H93       -53.4912  -30.4637    6.1490 H         1 UNK         0.1206 
     94 H94       -54.9532  -28.5820    6.9857 H         1 UNK         0.0813 
     95 H95       -53.8240  -27.6242    6.0635 H         1 UNK         0.0813 
     96 H96       -54.6603  -28.4023    9.6926 H         1 UNK         0.0638 
     97 H97       -54.2423  -26.9118   10.4721 H         1 UNK         0.0638 
     98 H98       -56.6986  -26.1714    9.5374 H         1 UNK         0.0568 
     99 H99       -59.0414  -29.2363    9.8295 H         1 UNK         0.3450 
    100 H100      -58.5984  -28.1341   11.1085 H         1 UNK         0.3450 
    101 H101      -57.0372  -25.8603   11.6495 H         1 UNK         0.2987 
    102 H102      -56.7251  -25.8932   13.8518 H         1 UNK         0.0766 
    103 H103      -58.3212  -27.1397   15.3135 H         1 UNK         0.0798 
    104 H104      -58.0236  -28.6216   14.4042 H         1 UNK         0.0798 
    105 H105      -58.8067  -27.2503   13.6314 H         1 UNK         0.0798 
    106 H106      -55.8736  -28.1131   15.5141 H         1 UNK         0.3198 
    107 H107      -54.1208  -27.6949   16.9207 H         1 UNK         0.0843 
    108 H108      -51.9977  -28.8507   16.3080 H         1 UNK         0.0831 
    109 H109      -52.0151  -28.0930   14.7190 H         1 UNK         0.0831 
    110 H110      -53.2616  -29.2522   15.1548 H         1 UNK         0.0831 
    111 H111      -51.8845  -25.9721   15.9639 H         1 UNK         0.3133 
    112 H112      -52.1484  -23.5243   17.2058 H         1 UNK         0.0566 
    113 H113      -51.2819  -22.9165   19.4782 H         1 UNK         0.0814 
    114 H114      -52.9925  -23.3101   19.5065 H         1 UNK         0.0814 
    115 H115      -51.8213  -24.4763   20.0999 H         1 UNK         0.0814 
    116 H116      -50.1159  -24.2223   16.7871 H         1 UNK         0.3091 
    117 H117      -47.6621  -25.9823   18.3544 H         1 UNK         0.0702 
    118 H118      -47.4275  -27.6138   16.4768 H         1 UNK         0.0785 
    119 H119      -49.1299  -27.4054   16.0688 H         1 UNK         0.0785 
    120 H120      -48.6723  -28.1287   17.6037 H         1 UNK         0.0785 
    121 H121      -47.9881  -25.2675   15.5770 H         1 UNK         0.2998 
    122 H122      -47.2454  -21.7945   16.0206 H         1 UNK         0.0697 
    123 H123      -45.5355  -22.3451   14.3179 H         1 UNK         0.0825 
    124 H124      -45.0367  -22.9617   15.8848 H         1 UNK         0.0825 
    125 H125      -45.6829  -24.0639   14.6768 H         1 UNK         0.0825 
    126 H126      -47.8309  -23.2359   13.6606 H         1 UNK         0.3029 
    127 H127      -51.4300  -22.9462   13.8452 H         1 UNK         0.0897 
    128 H128      -50.9496  -22.0295   11.5855 H         1 UNK         0.0792 
    129 H129      -50.4916  -20.8744   12.8276 H         1 UNK         0.0792 
    130 H130      -49.2528  -21.8132   12.0076 H         1 UNK         0.0792 
    131 H131      -49.8608  -24.2814   11.9201 H         1 UNK         0.3086 
    132 H132      -49.6370  -27.4393   13.6305 H         1 UNK         0.0583 
    133 H133      -51.9072  -27.2816   12.4343 H         1 UNK         0.1020 
    134 H134      -51.0619  -26.7231   11.0199 H         1 UNK         0.1020 
    135 H135      -49.5576  -27.9434    9.6771 H         1 UNK         0.0694 
    136 H136      -48.9958  -29.5851    9.8232 H         1 UNK         0.0694 
    137 H137      -48.5929  -26.4797   11.1238 H         1 UNK         0.2989 
    138 H138      -45.4498  -25.4310   12.4408 H         1 UNK         0.1055 
    139 H139      -45.2271  -27.8732   12.1018 H         1 UNK         0.0806 
    140 H140      -44.7108  -27.0209   10.6553 H         1 UNK         0.0806 
    141 H141      -46.2823  -27.8177   10.6987 H         1 UNK         0.0806 
    142 H142      -46.7139  -25.4965    9.8214 H         1 UNK         0.3061 
    143 H143      -47.9390  -22.1478    9.9647 H         1 UNK         0.0734 
    144 H144      -46.4053  -21.7803    8.0529 H         1 UNK         0.0832 
    145 H145      -45.4976  -21.7964    9.5548 H         1 UNK         0.0832 
    146 H146      -45.4593  -23.2017    8.4995 H         1 UNK         0.0832 
    147 H147      -47.7477  -23.9395    7.7794 H         1 UNK         0.3156 
    148 H148      -50.5331  -25.9888    8.4830 H         1 UNK         0.0589 
    149 H149      -50.4033  -23.7124    6.4476 H         1 UNK         0.0808 
    150 H150      -51.5121  -25.0862    6.4226 H         1 UNK         0.0808 
    151 H151      -51.6321  -23.8855    7.6945 H         1 UNK         0.0808 
    152 H152      -49.2926  -26.0443    6.0966 H         1 UNK         0.3098 
    153 H153      -47.0531  -27.0668    5.5833 H         1 UNK         0.0720 
    154 H154      -45.4335  -27.9277    7.2914 H         1 UNK         0.0791 
    155 H155      -45.8332  -29.1839    6.1303 H         1 UNK         0.0791 
    156 H156      -46.5559  -29.2060    7.7383 H         1 UNK         0.0791 
    157 H157      -49.2245  -28.7457    6.6053 H         1 UNK         0.3028 
@<TRIPOS>BOND
     1    1    2 1    
     2    1   82 1    
     3    1   83 1    
     4    1   84 1    
     5    2    3 2    
     6    2    4 am   BACKBONE|DICT|INTERRES
     7    4    5 1    
     8    4   85 1    
     9    5    6 1    
    10    5   80 1    
    11    5   86 1    
    12    6    7 1    
    13    6   87 1    
    14    6   88 1    
    15    7    8 1    
    16    8    9 1    
    17    8   89 1    
    18    8   90 1    
    19    9   10 ar   
    20    9   14 ar   
    21   10   11 ar   
    22   10   91 1    
    23   11   12 ar   
    24   11   58 1    
    25   12   13 ar   
    26   12   92 1    
    27   13   14 ar   
    28   13   15 1    
    29   14   93 1    
    30   15   16 1    
    31   15   94 1    
    32   15   95 1    
    33   16   17 1    
    34   17   18 1    
    35   17   96 1    
    36   17   97 1    
    37   18   19 1    
    38   18   22 1    
    39   18   98 1    
    40   19   20 am   BACKBONE|DICT|INTERRES
    41   19   21 2    
    42   20   99 1    
    43   20  100 1    
    44   22   23 am   BACKBONE|DICT|INTERRES
    45   22  101 1    
    46   23   24 2    
    47   23   25 1    
    48   25   26 1    
    49   25   27 1    
    50   25  102 1    
    51   26  103 1    
    52   26  104 1    
    53   26  105 1    
    54   27   28 am   BACKBONE|DICT|INTERRES
    55   27  106 1    
    56   28   29 2    
    57   28   30 1    
    58   30   31 1    
    59   30   32 1    
    60   30  107 1    
    61   31  108 1    
    62   31  109 1    
    63   31  110 1    
    64   32   33 am   BACKBONE|DICT|INTERRES
    65   32  111 1    
    66   33   34 2    
    67   33   35 1    
    68   35   36 1    
    69   35   37 1    
    70   35  112 1    
    71   36  113 1    
    72   36  114 1    
    73   36  115 1    
    74   37   38 am   BACKBONE|DICT|INTERRES
    75   37  116 1    
    76   38   39 2    
    77   38   40 1    
    78   40   41 1    
    79   40   42 1    
    80   40  117 1    
    81   41  118 1    
    82   41  119 1    
    83   41  120 1    
    84   42   43 am   BACKBONE|DICT|INTERRES
    85   42  121 1    
    86   43   44 2    
    87   43   45 1    
    88   45   46 1    
    89   45   47 1    
    90   45  122 1    
    91   46  123 1    
    92   46  124 1    
    93   46  125 1    
    94   47   48 am   BACKBONE|DICT|INTERRES
    95   47  126 1    
    96   48   49 2    
    97   48   50 1    
    98   50   51 1    
    99   50   52 1    
   100   50  127 1    
   101   51  128 1    
   102   51  129 1    
   103   51  130 1    
   104   52   53 am   BACKBONE|DICT|INTERRES
   105   52  131 1    
   106   53   54 2    
   107   53   55 1    
   108   55   56 1    
   109   55   59 1    
   110   55  132 1    
   111   56   57 1    
   112   56  133 1    
   113   56  134 1    
   114   57   58 1    
   115   58  135 1    
   116   58  136 1    
   117   59   60 am   BACKBONE|DICT|INTERRES
   118   59  137 1    
   119   60   61 2    
   120   60   62 1    
   121   62   63 1    
   122   62   64 1    
   123   62  138 1    
   124   63  139 1    
   125   63  140 1    
   126   63  141 1    
   127   64   65 am   BACKBONE|DICT|INTERRES
   128   64  142 1    
   129   65   66 2    
   130   65   67 1    
   131   67   68 1    
   132   67   69 1    
   133   67  143 1    
   134   68  144 1    
   135   68  145 1    
   136   68  146 1    
   137   69   70 am   BACKBONE|DICT|INTERRES
   138   69  147 1    
   139   70   71 2    
   140   70   72 1    
   141   72   73 1    
   142   72   74 1    
   143   72  148 1    
   144   73  149 1    
   145   73  150 1    
   146   73  151 1    
   147   74   75 am   BACKBONE|DICT|INTERRES
   148   74  152 1    
   149   75   76 2    
   150   75   77 1    
   151   77   78 1    
   152   77   79 1    
   153   77  153 1    
   154   78  154 1    
   155   78  155 1    
   156   78  156 1    
   157   79   80 am   BACKBONE|DICT|INTERRES
   158   79  157 1    
   159   80   81 2    
@<TRIPOS>SUBSTRUCTURE
     1 UNK         1 GROUP             0       ****    0 ROOT    
