@<TRIPOS>MOLECULE
3R207
157   159    1
SMALL
USER_CHARGES


@<TRIPOS>ATOM
      1 CA        -50.5697  -31.8249    6.1998 C.3       0 UNK        -0.1975 
      2 C         -49.9193  -30.8748    5.2055 C.2       0 UNK         0.4852 
      3 O         -49.0066  -31.2722    4.4814 O.2       0 UNK        -0.5216 
      4 N         -50.3825  -29.6186    5.1695 N.am      1 UNK        -0.4461 
      5 CA        -49.9327  -28.5641    4.2490 C.3       1 UNK         0.0864 
      6 C6        -50.8954  -27.3391    4.2219 C.3       14 UNK        -0.0898 
      7 S7        -52.6800  -27.7383    4.2747 S.3       14 UNK        -0.2598 
      8 C8        -53.1762  -27.0657    5.9007 C.3       14 UNK         0.0286 
      9 C9        -52.7866  -27.9960    7.0425 C.ar      14 UNK        -0.0844 
     10 C10       -51.4892  -27.9744    7.5614 C.ar      14 UNK        -0.0881 
     11 C11       -51.0968  -28.8911    8.5394 C.ar      14 UNK        -0.0643 
     12 C12       -52.0378  -29.7882    9.0523 C.ar      14 UNK        -0.0930 
     13 C13       -53.3628  -29.7607    8.6081 C.ar      14 UNK        -0.0827 
     14 C14       -53.7247  -28.8810    7.5829 C.ar      14 UNK        -0.1249 
     15 C15       -54.4024  -30.6694    9.2478 C.3       14 UNK         0.0141 
     16 S16       -54.5831  -30.2973   11.0226 S.3       14 UNK        -0.2313 
     17 C17       -56.2521  -30.9412   11.3745 C.3       14 UNK        -0.0915 
     18 CA        -57.2956  -29.8015   11.5203 C.3       13 UNK         0.0968 
     19 C         -58.7351  -30.3739   11.6674 C.2       13 UNK         0.5732 
     20 N         -59.4337  -30.1517   12.7748 N.am      13 UNK        -0.7310 
     21 O         -59.2321  -31.0254   10.7517 O.2       13 UNK        -0.5035 
     22 N         -56.9074  -28.8495   12.5734 N.am      13 UNK        -0.4233 
     23 C         -57.2975  -27.5748   12.6577 C.2       13 UNK         0.4989 
     24 O         -58.0508  -27.0388   11.8442 O.2       13 UNK        -0.4996 
     25 CA        -56.7571  -26.7374   13.8353 C.3       12 UNK         0.0216 
     26 CB        -57.6975  -26.8354   15.0526 C.3       12 UNK        -0.1964 
     27 N         -55.3590  -26.9997   14.2213 N.am      12 UNK        -0.4276 
     28 C         -54.8149  -28.1111   14.7410 C.2       12 UNK         0.5020 
     29 O         -55.4373  -29.1561   14.9367 O.2       12 UNK        -0.5489 
     30 CA        -53.3139  -28.0627   15.0794 C.3       11 UNK         0.0294 
     31 CB        -52.4941  -28.6257   13.9085 C.3       11 UNK        -0.2019 
     32 N         -52.8128  -26.7270   15.4257 N.am      11 UNK        -0.4493 
     33 C         -53.1669  -26.0368   16.5205 C.2       11 UNK         0.4932 
     34 O         -54.0172  -26.4163   17.3275 O.2       11 UNK        -0.5029 
     35 CA        -52.4073  -24.7172   16.7540 C.3       10 UNK         0.0280 
     36 CB        -52.8109  -23.9975   18.0582 C.3       10 UNK        -0.1976 
     37 N         -50.9555  -24.9142   16.6855 N.am      10 UNK        -0.4242 
     38 C         -50.1939  -25.7048   17.4588 C.2       10 UNK         0.5072 
     39 O         -50.6114  -26.3287   18.4354 O.2       10 UNK        -0.5224 
     40 CA        -48.7105  -25.8531   17.0681 C.3       9 UNK         0.0343 
     41 CB        -48.4849  -27.2028   16.3677 C.3       9 UNK        -0.2003 
     42 N         -48.2131  -24.7755   16.2070 N.am      9 UNK        -0.4272 
     43 C         -48.0026  -23.5156   16.6161 C.2       9 UNK         0.4988 
     44 O         -48.1438  -23.1403   17.7805 O.2       9 UNK        -0.5108 
     45 CA        -47.5899  -22.4950   15.5426 C.3       8 UNK         0.0248 
     46 CB        -46.0786  -22.5742   15.2739 C.3       8 UNK        -0.2001 
     47 N         -48.3275  -22.6556   14.2856 N.am      8 UNK        -0.4140 
     48 C         -49.6496  -22.4711   14.1450 C.2       8 UNK         0.5028 
     49 O         -50.3926  -22.1072   15.0561 O.2       8 UNK        -0.5428 
     50 CA        -50.2579  -22.7971   12.7702 C.3       7 UNK         0.0264 
     51 CB        -49.9799  -21.6734   11.7600 C.3       7 UNK        -0.1988 
     52 N         -49.7737  -24.0752   12.2456 N.am      7 UNK        -0.4454 
     53 C         -50.0352  -25.2654   12.8066 C.2       7 UNK         0.5027 
     54 O         -50.7965  -25.4204   13.7634 O.2       7 UNK        -0.5083 
     55 CA        -49.3050  -26.4913   12.2356 C.3       6 UNK         0.0844 
     56 C56       -50.1570  -27.1971   11.1619 C.3       14 UNK        -0.0967 
     57 S57       -49.4960  -28.8593   10.8199 S.3       14 UNK        -0.2604 
     58 C58       -49.6501  -28.9270    9.0128 C.3       14 UNK         0.0134 
     59 N         -47.9691  -26.1503   11.7432 N.am      6 UNK        -0.4116 
     60 C         -46.9137  -25.8949   12.5253 C.2       5 UNK         0.5034 
     61 O         -46.9497  -25.9063   13.7557 O.2       5 UNK        -0.5045 
     62 CA        -45.6093  -25.5174   11.8035 C.3       5 UNK         0.0224 
     63 CB        -44.9301  -26.7658   11.2168 C.3       5 UNK        -0.1978 
     64 N         -45.8163  -24.5274   10.7421 N.am      5 UNK        -0.4737 
     65 C         -46.2767  -23.2864   10.9505 C.2       4 UNK         0.5027 
     66 O         -46.5482  -22.8356   12.0619 O.2       4 UNK        -0.5211 
     67 CA        -46.5169  -22.4082    9.7133 C.3       4 UNK         0.0297 
     68 CB        -45.2331  -21.6499    9.3419 C.3       4 UNK        -0.1993 
     69 N         -47.0204  -23.1195    8.5342 N.am      4 UNK        -0.4486 
     70 C         -48.0901  -23.9260    8.4768 C.2       3 UNK         0.4961 
     71 O         -48.7417  -24.2867    9.4589 O.2       3 UNK        -0.5105 
     72 CA        -48.5256  -24.3997    7.0790 C.3       3 UNK         0.0299 
     73 CB        -48.0956  -23.4524    5.9358 C.3       3 UNK        -0.1972 
     74 N         -48.1140  -25.7747    6.7865 N.am      3 UNK        -0.4305 
     75 C         -46.8724  -26.2838    6.7439 C.2       2 UNK         0.5006 
     76 O         -45.8596  -25.6526    7.0472 O.2       2 UNK        -0.5106 
     77 CA        -46.7304  -27.7486    6.2739 C.3       2 UNK         0.0296 
     78 CB        -46.1931  -28.6381    7.4092 C.3       2 UNK        -0.2002 
     79 N         -47.9816  -28.3179    5.7506 N.am      2 UNK        -0.4032 
     80 C         -48.4946  -28.0670    4.5339 C.2       1 UNK         0.5000 
     81 O         -47.9049  -27.4121    3.6731 O.2       1 UNK        -0.5238 
     82 H82       -51.4817  -31.4053    6.6242 H         1 UNK         0.0889 
     83 H83       -50.8294  -32.7626    5.7095 H         1 UNK         0.0889 
     84 H84       -49.8822  -32.0449    7.0160 H         1 UNK         0.0889 
     85 H85       -51.1643  -29.3644    5.7605 H         1 UNK         0.3028 
     86 H86       -49.9231  -29.0017    3.2483 H         1 UNK         0.0864 
     87 H87       -50.6740  -26.6380    5.0266 H         1 UNK         0.0720 
     88 H88       -50.7223  -26.7711    3.3058 H         1 UNK         0.0720 
     89 H89       -54.2572  -26.9175    5.8969 H         1 UNK         0.0814 
     90 H90       -52.7418  -26.0759    6.0491 H         1 UNK         0.0814 
     91 H91       -50.7733  -27.2645    7.1789 H         1 UNK         0.1469 
     92 H92       -51.7473  -30.4876    9.8244 H         1 UNK         0.1381 
     93 H93       -54.7400  -28.8779    7.2099 H         1 UNK         0.1206 
     94 H94       -54.1110  -31.7128    9.1210 H         1 UNK         0.0813 
     95 H95       -55.3670  -30.5489    8.7521 H         1 UNK         0.0813 
     96 H96       -56.5396  -31.6387   10.5855 H         1 UNK         0.0638 
     97 H97       -56.2015  -31.5271   12.2940 H         1 UNK         0.0638 
     98 H98       -57.3012  -29.2516   10.5772 H         1 UNK         0.0568 
     99 H99       -59.0342  -29.6213   13.5317 H         1 UNK         0.3450 
    100 H100      -60.3666  -30.5246   12.8535 H         1 UNK         0.3450 
    101 H101      -56.3153  -29.2081   13.3189 H         1 UNK         0.2987 
    102 H102      -56.7719  -25.6993   13.4994 H         1 UNK         0.0766 
    103 H103      -57.3726  -26.1752   15.8569 H         1 UNK         0.0798 
    104 H104      -57.7455  -27.8488   15.4520 H         1 UNK         0.0798 
    105 H105      -58.7141  -26.5441   14.7848 H         1 UNK         0.0798 
    106 H106      -54.7266  -26.2253   14.0743 H         1 UNK         0.3198 
    107 H107      -53.1544  -28.7056   15.9477 H         1 UNK         0.0843 
    108 H108      -52.7567  -29.6670   13.7160 H         1 UNK         0.0831 
    109 H109      -51.4230  -28.5925   14.1092 H         1 UNK         0.0831 
    110 H110      -52.6872  -28.0733   12.9896 H         1 UNK         0.0831 
    111 H111      -52.0966  -26.3279   14.8216 H         1 UNK         0.3133 
    112 H112      -52.6643  -24.0599   15.9219 H         1 UNK         0.0566 
    113 H113      -52.2679  -23.0596   18.1754 H         1 UNK         0.0814 
    114 H114      -53.8751  -23.7587   18.0570 H         1 UNK         0.0814 
    115 H115      -52.6173  -24.6098   18.9394 H         1 UNK         0.0814 
    116 H116      -50.5070  -24.4803   15.8888 H         1 UNK         0.3091 
    117 H117      -48.1264  -25.8462   17.9908 H         1 UNK         0.0702 
    118 H118      -47.4331  -27.3549   16.1248 H         1 UNK         0.0785 
    119 H119      -49.0580  -27.2751   15.4432 H         1 UNK         0.0785 
    120 H120      -48.7928  -28.0316   17.0067 H         1 UNK         0.0785 
    121 H121      -47.9883  -25.0244   15.2485 H         1 UNK         0.2998 
    122 H122      -47.8133  -21.4991   15.9308 H         1 UNK         0.0697 
    123 H123      -45.7948  -23.5345   14.8412 H         1 UNK         0.0825 
    124 H124      -45.5092  -22.4486   16.1958 H         1 UNK         0.0825 
    125 H125      -45.7578  -21.7918   14.5857 H         1 UNK         0.0825 
    126 H126      -47.7741  -22.8986   13.4658 H         1 UNK         0.3029 
    127 H127      -51.3400  -22.8793   12.8951 H         1 UNK         0.0897 
    128 H128      -50.3945  -21.9069   10.7790 H         1 UNK         0.0792 
    129 H129      -50.4311  -20.7368   12.0899 H         1 UNK         0.0792 
    130 H130      -48.9127  -21.4921   11.6397 H         1 UNK         0.0792 
    131 H131      -49.1923  -24.0481   11.4133 H         1 UNK         0.3086 
    132 H132      -49.1828  -27.1863   13.0689 H         1 UNK         0.0583 
    133 H133      -51.1919  -27.3141   11.4832 H         1 UNK         0.1020 
    134 H134      -50.1939  -26.6014   10.2475 H         1 UNK         0.1020 
    135 H135      -49.0843  -28.0967    8.5903 H         1 UNK         0.0694 
    136 H136      -49.1833  -29.8453    8.6544 H         1 UNK         0.0694 
    137 H137      -47.8725  -26.0371   10.7441 H         1 UNK         0.2989 
    138 H138      -44.9403  -25.0775   12.5467 H         1 UNK         0.1055 
    139 H139      -44.7600  -27.5166   11.9899 H         1 UNK         0.0806 
    140 H140      -43.9589  -26.5224   10.7853 H         1 UNK         0.0806 
    141 H141      -45.5352  -27.2314   10.4376 H         1 UNK         0.0806 
    142 H142      -45.6310  -24.8149    9.7905 H         1 UNK         0.3061 
    143 H143      -47.2744  -21.6708    9.9821 H         1 UNK         0.0734 
    144 H144      -44.8456  -21.0956   10.1982 H         1 UNK         0.0832 
    145 H145      -44.4455  -22.3275    9.0094 H         1 UNK         0.0832 
    146 H146      -45.4131  -20.9263    8.5467 H         1 UNK         0.0832 
    147 H147      -46.5365  -22.9397    7.6663 H         1 UNK         0.3156 
    148 H148      -49.6167  -24.4059    7.0955 H         1 UNK         0.0589 
    149 H149      -47.0169  -23.4503    5.7763 H         1 UNK         0.0808 
    150 H150      -48.5612  -23.7453    4.9945 H         1 UNK         0.0808 
    151 H151      -48.4046  -22.4254    6.1366 H         1 UNK         0.0808 
    152 H152      -48.8626  -26.3985    6.5369 H         1 UNK         0.3098 
    153 H153      -45.9915  -27.7536    5.4697 H         1 UNK         0.0720 
    154 H154      -45.2099  -28.2958    7.7353 H         1 UNK         0.0791 
    155 H155      -46.0795  -29.6725    7.0840 H         1 UNK         0.0791 
    156 H156      -46.8396  -28.6291    8.2856 H         1 UNK         0.0791 
    157 H157      -48.5076  -28.9177    6.3677 H         1 UNK         0.3028 
@<TRIPOS>BOND
     1    1    2 1    
     2    1   82 1    
     3    1   83 1    
     4    1   84 1    
     5    2    3 2    
     6    2    4 am   BACKBONE|DICT|INTERRES
     7    4    5 1    
     8    4   85 1    
     9    5    6 1    
    10    5   80 1    
    11    5   86 1    
    12    6    7 1    
    13    6   87 1    
    14    6   88 1    
    15    7    8 1    
    16    8    9 1    
    17    8   89 1    
    18    8   90 1    
    19    9   10 ar   
    20    9   14 ar   
    21   10   11 ar   
    22   10   91 1    
    23   11   12 ar   
    24   11   58 1    
    25   12   13 ar   
    26   12   92 1    
    27   13   14 ar   
    28   13   15 1    
    29   14   93 1    
    30   15   16 1    
    31   15   94 1    
    32   15   95 1    
    33   16   17 1    
    34   17   18 1    
    35   17   96 1    
    36   17   97 1    
    37   18   19 1    
    38   18   22 1    
    39   18   98 1    
    40   19   20 am   BACKBONE|DICT|INTERRES
    41   19   21 2    
    42   20   99 1    
    43   20  100 1    
    44   22   23 am   BACKBONE|DICT|INTERRES
    45   22  101 1    
    46   23   24 2    
    47   23   25 1    
    48   25   26 1    
    49   25   27 1    
    50   25  102 1    
    51   26  103 1    
    52   26  104 1    
    53   26  105 1    
    54   27   28 am   BACKBONE|DICT|INTERRES
    55   27  106 1    
    56   28   29 2    
    57   28   30 1    
    58   30   31 1    
    59   30   32 1    
    60   30  107 1    
    61   31  108 1    
    62   31  109 1    
    63   31  110 1    
    64   32   33 am   BACKBONE|DICT|INTERRES
    65   32  111 1    
    66   33   34 2    
    67   33   35 1    
    68   35   36 1    
    69   35   37 1    
    70   35  112 1    
    71   36  113 1    
    72   36  114 1    
    73   36  115 1    
    74   37   38 am   BACKBONE|DICT|INTERRES
    75   37  116 1    
    76   38   39 2    
    77   38   40 1    
    78   40   41 1    
    79   40   42 1    
    80   40  117 1    
    81   41  118 1    
    82   41  119 1    
    83   41  120 1    
    84   42   43 am   BACKBONE|DICT|INTERRES
    85   42  121 1    
    86   43   44 2    
    87   43   45 1    
    88   45   46 1    
    89   45   47 1    
    90   45  122 1    
    91   46  123 1    
    92   46  124 1    
    93   46  125 1    
    94   47   48 am   BACKBONE|DICT|INTERRES
    95   47  126 1    
    96   48   49 2    
    97   48   50 1    
    98   50   51 1    
    99   50   52 1    
   100   50  127 1    
   101   51  128 1    
   102   51  129 1    
   103   51  130 1    
   104   52   53 am   BACKBONE|DICT|INTERRES
   105   52  131 1    
   106   53   54 2    
   107   53   55 1    
   108   55   56 1    
   109   55   59 1    
   110   55  132 1    
   111   56   57 1    
   112   56  133 1    
   113   56  134 1    
   114   57   58 1    
   115   58  135 1    
   116   58  136 1    
   117   59   60 am   BACKBONE|DICT|INTERRES
   118   59  137 1    
   119   60   61 2    
   120   60   62 1    
   121   62   63 1    
   122   62   64 1    
   123   62  138 1    
   124   63  139 1    
   125   63  140 1    
   126   63  141 1    
   127   64   65 am   BACKBONE|DICT|INTERRES
   128   64  142 1    
   129   65   66 2    
   130   65   67 1    
   131   67   68 1    
   132   67   69 1    
   133   67  143 1    
   134   68  144 1    
   135   68  145 1    
   136   68  146 1    
   137   69   70 am   BACKBONE|DICT|INTERRES
   138   69  147 1    
   139   70   71 2    
   140   70   72 1    
   141   72   73 1    
   142   72   74 1    
   143   72  148 1    
   144   73  149 1    
   145   73  150 1    
   146   73  151 1    
   147   74   75 am   BACKBONE|DICT|INTERRES
   148   74  152 1    
   149   75   76 2    
   150   75   77 1    
   151   77   78 1    
   152   77   79 1    
   153   77  153 1    
   154   78  154 1    
   155   78  155 1    
   156   78  156 1    
   157   79   80 am   BACKBONE|DICT|INTERRES
   158   79  157 1    
   159   80   81 2    
@<TRIPOS>SUBSTRUCTURE
     1 UNK         1 GROUP             0       ****    0 ROOT    
