@<TRIPOS>MOLECULE
3R207
157   159    1
SMALL
USER_CHARGES


@<TRIPOS>ATOM
      1 CA        -45.2897  -27.3567   10.1150 C.3       0 UNK        -0.1975 
      2 C         -46.5497  -28.2060   10.0297 C.2       0 UNK         0.4852 
      3 O         -46.4614  -29.4320    9.9460 O.2       0 UNK        -0.5216 
      4 N         -47.7166  -27.5572   10.0555 N.am      1 UNK        -0.4461 
      5 CA        -49.0397  -28.1660    9.9073 C.3       1 UNK         0.0864 
      6 C6        -50.1235  -27.3325   10.6347 C.3       14 UNK        -0.0898 
      7 S7        -49.7189  -27.0489   12.3931 S.3       14 UNK        -0.2598 
      8 C8        -51.3375  -26.7499   13.1597 C.3       14 UNK         0.0286 
      9 C9        -52.1225  -25.6629   12.4479 C.ar      14 UNK        -0.0844 
     10 C10       -51.9252  -24.3149   12.7547 C.ar      14 UNK        -0.0881 
     11 C11       -52.6192  -23.3224   12.0548 C.ar      14 UNK        -0.0643 
     12 C12       -53.5520  -23.6911   11.0770 C.ar      14 UNK        -0.0930 
     13 C13       -53.7847  -25.0407   10.7928 C.ar      14 UNK        -0.0827 
     14 C14       -53.0562  -26.0145   11.4754 C.ar      14 UNK        -0.1249 
     15 C15       -54.8518  -25.4631    9.7927 C.3       14 UNK         0.0141 
     16 S16       -54.2040  -26.6058    8.5263 S.3       14 UNK        -0.2313 
     17 C17       -55.6848  -27.5972    8.1271 C.3       14 UNK        -0.0915 
     18 CA        -55.5316  -29.1445    8.2702 C.3       13 UNK         0.0968 
     19 C         -54.8084  -29.8470    7.0787 C.2       13 UNK         0.5732 
     20 N         -54.3822  -31.0957    7.2266 N.am      13 UNK        -0.7310 
     21 O         -54.6651  -29.2818    5.9977 O.2       13 UNK        -0.5035 
     22 N         -55.1644  -29.5920    9.6322 N.am      13 UNK        -0.4233 
     23 C         -53.9322  -29.7427   10.1426 C.2       13 UNK         0.4989 
     24 O         -52.8876  -29.5104    9.5320 O.2       13 UNK        -0.4996 
     25 CA        -53.8655  -30.1774   11.6135 C.3       12 UNK         0.0216 
     26 CB        -52.4285  -30.5694   12.0362 C.3       12 UNK        -0.1964 
     27 N         -54.3859  -29.0747   12.4227 N.am      12 UNK        -0.4276 
     28 C         -54.5713  -29.0674   13.7463 C.2       12 UNK         0.5020 
     29 O         -54.3736  -30.0346   14.4839 O.2       12 UNK        -0.5489 
     30 CA        -55.0509  -27.7468   14.3565 C.3       11 UNK         0.0294 
     31 CB        -56.4877  -27.8601   14.8951 C.3       11 UNK        -0.2019 
     32 N         -54.1318  -27.3919   15.4320 N.am      11 UNK        -0.4493 
     33 C         -53.8325  -26.1501   15.8239 C.2       11 UNK         0.4932 
     34 O         -54.3846  -25.1467   15.3731 O.2       11 UNK        -0.5029 
     35 CA        -52.7226  -25.9694   16.8787 C.3       10 UNK         0.0280 
     36 CB        -53.3114  -25.9540   18.3026 C.3       10 UNK        -0.1976 
     37 N         -51.5860  -26.8994   16.7775 N.am      10 UNK        -0.4242 
     38 C         -51.5550  -28.2255   16.9916 C.2       10 UNK         0.5072 
     39 O         -52.5499  -28.8978   17.2620 O.2       10 UNK        -0.5224 
     40 CA        -50.1904  -28.9359   16.8753 C.3       9 UNK         0.0343 
     41 CB        -50.0805  -29.6705   15.5287 C.3       9 UNK        -0.2003 
     42 N         -49.0426  -28.0373   17.0296 N.am      9 UNK        -0.4272 
     43 C         -48.7356  -27.3699   18.1514 C.2       9 UNK         0.4988 
     44 O         -49.3162  -27.5470   19.2231 O.2       9 UNK        -0.5108 
     45 CA        -47.6168  -26.3099   18.0833 C.3       8 UNK         0.0248 
     46 CB        -46.4071  -26.7560   18.9229 C.3       8 UNK        -0.2001 
     47 N         -47.1448  -25.9311   16.7433 N.am      8 UNK        -0.4140 
     48 C         -47.8743  -25.4276   15.7376 C.2       8 UNK         0.5028 
     49 O         -49.1057  -25.3191   15.7595 O.2       8 UNK        -0.5428 
     50 CA        -47.0813  -24.9909   14.4967 C.3       7 UNK         0.0264 
     51 CB        -46.3358  -26.1709   13.8394 C.3       7 UNK        -0.1988 
     52 N         -47.9930  -24.3871   13.5306 N.am      7 UNK        -0.4454 
     53 C         -47.6700  -23.4533   12.6312 C.2       7 UNK         0.5027 
     54 O         -46.5424  -22.9632   12.5249 O.2       7 UNK        -0.5083 
     55 CA        -48.8105  -22.9579   11.7182 C.3       6 UNK         0.0844 
     56 C56       -49.5296  -21.7440   12.3574 C.3       14 UNK        -0.0967 
     57 S57       -50.9780  -21.1852   11.3939 S.3       14 UNK        -0.2604 
     58 C58       -52.3718  -21.8526   12.3612 C.3       14 UNK         0.0134 
     59 N         -48.3053  -22.6614   10.3747 N.am      6 UNK        -0.4116 
     60 C         -47.9188  -23.5991    9.5036 C.2       5 UNK         0.5034 
     61 O         -47.9823  -24.8104    9.7234 O.2       5 UNK        -0.5045 
     62 CA        -47.3439  -23.1190    8.1690 C.3       5 UNK         0.0224 
     63 CB        -45.8196  -22.9220    8.2803 C.3       5 UNK        -0.1978 
     64 N         -47.6594  -24.1304    7.1643 N.am      5 UNK        -0.4737 
     65 C         -47.5787  -23.9863    5.8380 C.2       4 UNK         0.5027 
     66 O         -47.1843  -22.9634    5.2774 O.2       4 UNK        -0.5211 
     67 CA        -48.0418  -25.1852    4.9981 C.3       4 UNK         0.0297 
     68 CB        -46.9800  -26.2975    4.9971 C.3       4 UNK        -0.1993 
     69 N         -49.3172  -25.7157    5.4862 N.am      4 UNK        -0.4486 
     70 C         -50.5135  -25.1763    5.2023 C.2       3 UNK         0.4961 
     71 O         -50.6479  -24.1894    4.4766 O.2       3 UNK        -0.5105 
     72 CA        -51.7744  -25.8099    5.8327 C.3       3 UNK         0.0299 
     73 CB        -52.9692  -25.8379    4.8560 C.3       3 UNK        -0.1972 
     74 N         -51.5627  -27.1320    6.4317 N.am      3 UNK        -0.4305 
     75 C         -51.1804  -28.2651    5.8241 C.2       2 UNK         0.5006 
     76 O         -51.0187  -28.3731    4.6071 O.2       2 UNK        -0.5106 
     77 CA        -50.8805  -29.4661    6.7475 C.3       2 UNK         0.0296 
     78 CB        -49.8891  -30.4631    6.1104 C.3       2 UNK        -0.2002 
     79 N         -50.4246  -29.0956    8.0977 N.am      2 UNK        -0.4032 
     80 C         -49.3695  -28.3246    8.4077 C.2       1 UNK         0.5000 
     81 O         -48.6971  -27.7271    7.5599 O.2       1 UNK        -0.5238 
     82 H82       -44.7033  -27.6410   10.9882 H         1 UNK         0.0889 
     83 H83       -45.5226  -26.2944   10.1939 H         1 UNK         0.0889 
     84 H84       -44.6769  -27.5042    9.2263 H         1 UNK         0.0889 
     85 H85       -47.7281  -26.5379   10.0592 H         1 UNK         0.3028 
     86 H86       -49.0194  -29.1639   10.3507 H         1 UNK         0.0864 
     87 H87       -50.2560  -26.3595   10.1568 H         1 UNK         0.0720 
     88 H88       -51.0855  -27.8403   10.5776 H         1 UNK         0.0720 
     89 H89       -51.1719  -26.4563   14.1939 H         1 UNK         0.0814 
     90 H90       -51.9041  -27.6798   13.1918 H         1 UNK         0.0814 
     91 H91       -51.2180  -24.0386   13.5236 H         1 UNK         0.1469 
     92 H92       -54.1041  -22.9263   10.5481 H         1 UNK         0.1381 
     93 H93       -53.2055  -27.0538   11.2326 H         1 UNK         0.1206 
     94 H94       -55.6565  -25.9389   10.3537 H         1 UNK         0.0813 
     95 H95       -55.2893  -24.5972    9.2939 H         1 UNK         0.0813 
     96 H96       -55.9983  -27.3338    7.1156 H         1 UNK         0.0638 
     97 H97       -56.5106  -27.2740    8.7610 H         1 UNK         0.0638 
     98 H98       -56.5473  -29.5246    8.1558 H         1 UNK         0.0568 
     99 H99       -54.5000  -31.5780    8.1025 H         1 UNK         0.3450 
    100 H100      -53.9398  -31.5599    6.4501 H         1 UNK         0.3450 
    101 H101      -55.9487  -29.8294   10.2222 H         1 UNK         0.2987 
    102 H102      -54.5163  -31.0447   11.7406 H         1 UNK         0.0766 
    103 H103      -51.7440  -29.7231   11.9907 H         1 UNK         0.0798 
    104 H104      -52.0290  -31.3441   11.3805 H         1 UNK         0.0798 
    105 H105      -52.3957  -30.9693   13.0491 H         1 UNK         0.0798 
    106 H106      -54.6200  -28.2416   11.9003 H         1 UNK         0.3198 
    107 H107      -55.0213  -26.9678   13.5908 H         1 UNK         0.0843 
    108 H108      -56.5640  -28.6129   15.6808 H         1 UNK         0.0831 
    109 H109      -57.1810  -28.1423   14.1018 H         1 UNK         0.0831 
    110 H110      -56.8330  -26.9113   15.3060 H         1 UNK         0.0831 
    111 H111      -53.6571  -28.1718   15.8846 H         1 UNK         0.3133 
    112 H112      -52.2911  -24.9833   16.6982 H         1 UNK         0.0566 
    113 H113      -53.7842  -26.9023   18.5595 H         1 UNK         0.0814 
    114 H114      -54.0717  -25.1779   18.3998 H         1 UNK         0.0814 
    115 H115      -52.5420  -25.7499   19.0474 H         1 UNK         0.0814 
    116 H116      -50.7077  -26.4567   16.5219 H         1 UNK         0.3091 
    117 H117      -50.1442  -29.6784   17.6747 H         1 UNK         0.0702 
    118 H118      -49.1705  -30.2684   15.4760 H         1 UNK         0.0785 
    119 H119      -50.0747  -28.9773   14.6883 H         1 UNK         0.0785 
    120 H120      -50.9219  -30.3500   15.3830 H         1 UNK         0.0785 
    121 H121      -48.5167  -27.8236   16.1951 H         1 UNK         0.2998 
    122 H122      -48.0269  -25.4057   18.5375 H         1 UNK         0.0697 
    123 H123      -45.9279  -27.6400   18.5002 H         1 UNK         0.0825 
    124 H124      -46.7051  -27.0045   19.9427 H         1 UNK         0.0825 
    125 H125      -45.6578  -25.9673   18.9941 H         1 UNK         0.0825 
    126 H126      -46.1465  -25.9970   16.6054 H         1 UNK         0.3029 
    127 H127      -46.3569  -24.2402   14.8205 H         1 UNK         0.0897 
    128 H128      -47.0151  -26.9787   13.5664 H         1 UNK         0.0792 
    129 H129      -45.5818  -26.5903   14.5059 H         1 UNK         0.0792 
    130 H130      -45.8176  -25.8561   12.9335 H         1 UNK         0.0792 
    131 H131      -48.9447  -24.7241   13.6024 H         1 UNK         0.3086 
    132 H132      -49.5304  -23.7717   11.6159 H         1 UNK         0.0583 
    133 H133      -49.8451  -21.9730   13.3768 H         1 UNK         0.1020 
    134 H134      -48.8409  -20.9015   12.4477 H         1 UNK         0.1020 
    135 H135      -52.1967  -21.7076   13.4282 H         1 UNK         0.0694 
    136 H136      -53.2652  -21.2728   12.1243 H         1 UNK         0.0694 
    137 H137      -48.2018  -21.6856   10.1404 H         1 UNK         0.2989 
    138 H138      -47.8236  -22.1787    7.8886 H         1 UNK         0.1055 
    139 H139      -45.3121  -23.8557    8.5265 H         1 UNK         0.0806 
    140 H140      -45.5737  -22.2016    9.0617 H         1 UNK         0.0806 
    141 H141      -45.3936  -22.5449    7.3506 H         1 UNK         0.0806 
    142 H142      -48.0026  -25.0029    7.5505 H         1 UNK         0.3061 
    143 H143      -48.1715  -24.8472    3.9675 H         1 UNK         0.0734 
    144 H144      -46.7764  -26.6695    6.0020 H         1 UNK         0.0832 
    145 H145      -47.2935  -27.1436    4.3855 H         1 UNK         0.0832 
    146 H146      -46.0366  -25.9327    4.5889 H         1 UNK         0.0832 
    147 H147      -49.2671  -26.5118    6.1172 H         1 UNK         0.3156 
    148 H148      -52.0479  -25.1557    6.6617 H         1 UNK         0.0589 
    149 H149      -53.8503  -26.2805    5.3213 H         1 UNK         0.0808 
    150 H150      -53.2426  -24.8305    4.5404 H         1 UNK         0.0808 
    151 H151      -52.7430  -26.4101    3.9560 H         1 UNK         0.0808 
    152 H152      -51.6918  -27.1723    7.4334 H         1 UNK         0.3098 
    153 H153      -51.8283  -29.9855    6.8821 H         1 UNK         0.0720 
    154 H154      -48.9274  -29.9939    5.8992 H         1 UNK         0.0791 
    155 H155      -50.2752  -30.8550    5.1687 H         1 UNK         0.0791 
    156 H156      -49.7100  -31.3166    6.7642 H         1 UNK         0.0791 
    157 H157      -51.0192  -29.4415    8.8464 H         1 UNK         0.3028 
@<TRIPOS>BOND
     1    1    2 1    
     2    1   82 1    
     3    1   83 1    
     4    1   84 1    
     5    2    3 2    
     6    2    4 am   BACKBONE|DICT|INTERRES
     7    4    5 1    
     8    4   85 1    
     9    5    6 1    
    10    5   80 1    
    11    5   86 1    
    12    6    7 1    
    13    6   87 1    
    14    6   88 1    
    15    7    8 1    
    16    8    9 1    
    17    8   89 1    
    18    8   90 1    
    19    9   10 ar   
    20    9   14 ar   
    21   10   11 ar   
    22   10   91 1    
    23   11   12 ar   
    24   11   58 1    
    25   12   13 ar   
    26   12   92 1    
    27   13   14 ar   
    28   13   15 1    
    29   14   93 1    
    30   15   16 1    
    31   15   94 1    
    32   15   95 1    
    33   16   17 1    
    34   17   18 1    
    35   17   96 1    
    36   17   97 1    
    37   18   19 1    
    38   18   22 1    
    39   18   98 1    
    40   19   20 am   BACKBONE|DICT|INTERRES
    41   19   21 2    
    42   20   99 1    
    43   20  100 1    
    44   22   23 am   BACKBONE|DICT|INTERRES
    45   22  101 1    
    46   23   24 2    
    47   23   25 1    
    48   25   26 1    
    49   25   27 1    
    50   25  102 1    
    51   26  103 1    
    52   26  104 1    
    53   26  105 1    
    54   27   28 am   BACKBONE|DICT|INTERRES
    55   27  106 1    
    56   28   29 2    
    57   28   30 1    
    58   30   31 1    
    59   30   32 1    
    60   30  107 1    
    61   31  108 1    
    62   31  109 1    
    63   31  110 1    
    64   32   33 am   BACKBONE|DICT|INTERRES
    65   32  111 1    
    66   33   34 2    
    67   33   35 1    
    68   35   36 1    
    69   35   37 1    
    70   35  112 1    
    71   36  113 1    
    72   36  114 1    
    73   36  115 1    
    74   37   38 am   BACKBONE|DICT|INTERRES
    75   37  116 1    
    76   38   39 2    
    77   38   40 1    
    78   40   41 1    
    79   40   42 1    
    80   40  117 1    
    81   41  118 1    
    82   41  119 1    
    83   41  120 1    
    84   42   43 am   BACKBONE|DICT|INTERRES
    85   42  121 1    
    86   43   44 2    
    87   43   45 1    
    88   45   46 1    
    89   45   47 1    
    90   45  122 1    
    91   46  123 1    
    92   46  124 1    
    93   46  125 1    
    94   47   48 am   BACKBONE|DICT|INTERRES
    95   47  126 1    
    96   48   49 2    
    97   48   50 1    
    98   50   51 1    
    99   50   52 1    
   100   50  127 1    
   101   51  128 1    
   102   51  129 1    
   103   51  130 1    
   104   52   53 am   BACKBONE|DICT|INTERRES
   105   52  131 1    
   106   53   54 2    
   107   53   55 1    
   108   55   56 1    
   109   55   59 1    
   110   55  132 1    
   111   56   57 1    
   112   56  133 1    
   113   56  134 1    
   114   57   58 1    
   115   58  135 1    
   116   58  136 1    
   117   59   60 am   BACKBONE|DICT|INTERRES
   118   59  137 1    
   119   60   61 2    
   120   60   62 1    
   121   62   63 1    
   122   62   64 1    
   123   62  138 1    
   124   63  139 1    
   125   63  140 1    
   126   63  141 1    
   127   64   65 am   BACKBONE|DICT|INTERRES
   128   64  142 1    
   129   65   66 2    
   130   65   67 1    
   131   67   68 1    
   132   67   69 1    
   133   67  143 1    
   134   68  144 1    
   135   68  145 1    
   136   68  146 1    
   137   69   70 am   BACKBONE|DICT|INTERRES
   138   69  147 1    
   139   70   71 2    
   140   70   72 1    
   141   72   73 1    
   142   72   74 1    
   143   72  148 1    
   144   73  149 1    
   145   73  150 1    
   146   73  151 1    
   147   74   75 am   BACKBONE|DICT|INTERRES
   148   74  152 1    
   149   75   76 2    
   150   75   77 1    
   151   77   78 1    
   152   77   79 1    
   153   77  153 1    
   154   78  154 1    
   155   78  155 1    
   156   78  156 1    
   157   79   80 am   BACKBONE|DICT|INTERRES
   158   79  157 1    
   159   80   81 2    
@<TRIPOS>SUBSTRUCTURE
     1 UNK         1 GROUP             0       ****    0 ROOT    
