@<TRIPOS>MOLECULE
3R207
157   159    1
SMALL
USER_CHARGES


@<TRIPOS>ATOM
      1 CA        -52.3259  -26.5414    7.1294 C.3       0 UNK        -0.1975 
      2 C         -51.5141  -25.7064    6.1458 C.2       0 UNK         0.4852 
      3 O         -51.7253  -24.4980    6.0617 O.2       0 UNK        -0.5216 
      4 N         -50.5862  -26.2914    5.3807 N.am      1 UNK        -0.4461 
      5 CA        -50.1703  -27.6919    5.3783 C.3       1 UNK         0.0864 
      6 C6        -51.0474  -28.5512    4.4255 C.3       14 UNK        -0.0898 
      7 S7        -50.5487  -30.3086    4.3314 S.3       14 UNK        -0.2598 
      8 C8        -51.8132  -31.1375    5.3493 C.3       14 UNK         0.0286 
      9 C9        -51.8541  -30.6137    6.7789 C.ar      14 UNK        -0.0844 
     10 C10       -50.7039  -30.6244    7.5742 C.ar      14 UNK        -0.0881 
     11 C11       -50.7376  -30.1138    8.8735 C.ar      14 UNK        -0.0643 
     12 C12       -51.9493  -29.6536    9.3984 C.ar      14 UNK        -0.0930 
     13 C13       -53.1035  -29.6078    8.6072 C.ar      14 UNK        -0.0827 
     14 C14       -53.0461  -30.1032    7.3010 C.ar      14 UNK        -0.1249 
     15 C15       -54.4169  -29.0095    9.1147 C.3       14 UNK         0.0141 
     16 S16       -54.2125  -27.6314   10.3000 S.3       14 UNK        -0.2313 
     17 C17       -54.2606  -28.5300   11.8863 C.3       14 UNK        -0.0915 
     18 CA        -55.5631  -28.2203   12.6739 C.3       13 UNK         0.0968 
     19 C         -55.8904  -29.3161   13.7312 C.2       13 UNK         0.5732 
     20 N         -56.1785  -28.9895   14.9866 N.am      13 UNK        -0.7310 
     21 O         -55.9092  -30.4992   13.4007 O.2       13 UNK        -0.5035 
     22 N         -55.5127  -26.8671   13.2411 N.am      13 UNK        -0.4233 
     23 C         -56.5336  -26.0055   13.3030 C.2       13 UNK         0.4989 
     24 O         -57.6341  -26.2111   12.7876 O.2       13 UNK        -0.4996 
     25 CA        -56.2807  -24.6935   14.0790 C.3       12 UNK         0.0216 
     26 CB        -57.5850  -24.0213   14.5584 C.3       12 UNK        -0.1964 
     27 N         -55.3363  -24.8446   15.1952 N.am      12 UNK        -0.4276 
     28 C         -55.4512  -25.6668   16.2480 C.2       12 UNK         0.5020 
     29 O         -56.4094  -26.4175   16.4446 O.2       12 UNK        -0.5489 
     30 CA        -54.2518  -25.7056   17.2116 C.3       11 UNK         0.0294 
     31 CB        -54.7105  -25.5386   18.6702 C.3       11 UNK        -0.2019 
     32 N         -53.4563  -26.9339   17.0945 N.am      11 UNK        -0.4493 
     33 C         -52.9647  -27.4532   15.9610 C.2       11 UNK         0.4932 
     34 O         -53.1802  -27.0010   14.8374 O.2       11 UNK        -0.5029 
     35 CA        -51.9978  -28.6281   16.1106 C.3       10 UNK         0.0280 
     36 CB        -52.2764  -29.7457   15.0915 C.3       10 UNK        -0.1976 
     37 N         -50.6791  -28.0648   15.8619 N.am      10 UNK        -0.4242 
     38 C         -49.6959  -27.9813   16.7641 C.2       10 UNK         0.5072 
     39 O         -49.7046  -28.5546   17.8546 O.2       10 UNK        -0.5224 
     40 CA        -48.5209  -27.0582   16.4053 C.3       9 UNK         0.0343 
     41 CB        -47.5730  -27.7421   15.4063 C.3       9 UNK        -0.2003 
     42 N         -48.9590  -25.7711   15.8582 N.am      9 UNK        -0.4272 
     43 C         -49.6960  -24.8537   16.5054 C.2       9 UNK         0.4988 
     44 O         -50.0752  -24.9718   17.6706 O.2       9 UNK        -0.5108 
     45 CA        -50.0822  -23.5925   15.7185 C.3       8 UNK         0.0248 
     46 CB        -48.9016  -22.6093   15.6454 C.3       8 UNK        -0.2001 
     47 N         -50.5173  -23.9427   14.3668 N.am      8 UNK        -0.4140 
     48 C         -51.7950  -24.0891   13.9898 C.2       8 UNK         0.5028 
     49 O         -52.7570  -23.8071   14.7073 O.2       8 UNK        -0.5428 
     50 CA        -52.0675  -24.6252   12.5706 C.3       7 UNK         0.0264 
     51 CB        -52.7149  -23.5420   11.6927 C.3       7 UNK        -0.1988 
     52 N         -50.8830  -25.1462   11.8828 N.am      7 UNK        -0.4454 
     53 C         -50.2804  -26.3085   12.1723 C.2       7 UNK         0.5027 
     54 O         -50.6155  -27.0524   13.0937 O.2       7 UNK        -0.5083 
     55 CA        -49.0594  -26.6811   11.3061 C.3       6 UNK         0.0844 
     56 C56       -49.5351  -27.2000    9.9236 C.3       14 UNK        -0.0967 
     57 S57       -48.4826  -28.5356    9.2613 S.3       14 UNK        -0.2604 
     58 C58       -49.4573  -30.0210    9.6937 C.3       14 UNK         0.0134 
     59 N         -48.0866  -25.5834   11.1824 N.am      6 UNK        -0.4116 
     60 C         -47.5725  -24.8735   12.2028 C.2       5 UNK         0.5034 
     61 O         -47.8641  -25.0694   13.3817 O.2       5 UNK        -0.5045 
     62 CA        -46.5861  -23.7344   11.8893 C.3       5 UNK         0.0224 
     63 CB        -45.1498  -24.1716   12.2180 C.3       5 UNK        -0.1978 
     64 N         -46.6341  -23.2525   10.5097 N.am      5 UNK        -0.4737 
     65 C         -47.6749  -22.6412    9.9267 C.2       4 UNK         0.5027 
     66 O         -48.7177  -22.3545   10.5146 O.2       4 UNK        -0.5211 
     67 CA        -47.5384  -22.3417    8.4201 C.3       4 UNK         0.0297 
     68 CB        -47.1349  -20.8752    8.1996 C.3       4 UNK        -0.1993 
     69 N         -46.5834  -23.2206    7.7269 N.am      4 UNK        -0.4486 
     70 C         -46.7077  -24.5515    7.6425 C.2       3 UNK         0.4961 
     71 O         -47.6539  -25.1796    8.1240 O.2       3 UNK        -0.5105 
     72 CA        -45.5615  -25.3157    6.9747 C.3       3 UNK         0.0299 
     73 CB        -44.3616  -25.4577    7.9295 C.3       3 UNK        -0.1972 
     74 N         -46.0762  -26.6308    6.6222 N.am      3 UNK        -0.4305 
     75 C         -45.6112  -27.4435    5.6699 C.2       2 UNK         0.5006 
     76 O         -44.5881  -27.2281    5.0186 O.2       2 UNK        -0.5106 
     77 CA        -46.4438  -28.7060    5.3789 C.3       2 UNK         0.0296 
     78 CB        -45.9243  -29.8946    6.2041 C.3       2 UNK        -0.2002 
     79 N         -47.8808  -28.5408    5.6287 N.am      2 UNK        -0.4032 
     80 C         -48.6854  -27.6889    4.9758 C.2       1 UNK         0.5000 
     81 O         -48.3045  -26.9230    4.0849 O.2       1 UNK        -0.5238 
     82 H82       -51.6809  -27.0624    7.8340 H         1 UNK         0.0889 
     83 H83       -52.9338  -27.2746    6.6020 H         1 UNK         0.0889 
     84 H84       -52.9988  -25.9087    7.7079 H         1 UNK         0.0889 
     85 H85       -50.0320  -25.7204    4.7539 H         1 UNK         0.3028 
     86 H86       -50.2391  -28.0898    6.3913 H         1 UNK         0.0864 
     87 H87       -51.0126  -28.1421    3.4140 H         1 UNK         0.0720 
     88 H88       -52.0941  -28.4980    4.7263 H         1 UNK         0.0720 
     89 H89       -51.6033  -32.2076    5.3712 H         1 UNK         0.0814 
     90 H90       -52.7836  -31.0252    4.8631 H         1 UNK         0.0814 
     91 H91       -49.7747  -31.0010    7.1690 H         1 UNK         0.1469 
     92 H92       -51.9752  -29.2838   10.4131 H         1 UNK         0.1381 
     93 H93       -53.9331  -30.0790    6.6824 H         1 UNK         0.1206 
     94 H94       -55.0329  -29.7977    9.5491 H         1 UNK         0.0813 
     95 H95       -54.9836  -28.6182    8.2684 H         1 UNK         0.0813 
     96 H96       -54.1519  -29.5979   11.6908 H         1 UNK         0.0638 
     97 H97       -53.3816  -28.2440   12.4646 H         1 UNK         0.0638 
     98 H98       -56.3924  -28.2744   11.9666 H         1 UNK         0.0568 
     99 H99       -56.2120  -28.0231   15.2937 H         1 UNK         0.3450 
    100 H100      -56.4017  -29.7236   15.6384 H         1 UNK         0.3450 
    101 H101      -54.6605  -26.6613   13.7579 H         1 UNK         0.2987 
    102 H102      -55.8016  -24.0165   13.3705 H         1 UNK         0.0766 
    103 H103      -58.2355  -23.7806   13.7167 H         1 UNK         0.0798 
    104 H104      -58.1492  -24.6685   15.2308 H         1 UNK         0.0798 
    105 H105      -57.3804  -23.0885   15.0838 H         1 UNK         0.0798 
    106 H106      -54.4459  -24.3554   15.0819 H         1 UNK         0.3198 
    107 H107      -53.5885  -24.8709   16.9775 H         1 UNK         0.0843 
    108 H108      -55.3269  -26.3769   18.9982 H         1 UNK         0.0831 
    109 H109      -55.3051  -24.6319   18.7898 H         1 UNK         0.0831 
    110 H110      -53.8610  -25.4585   19.3487 H         1 UNK         0.0831 
    111 H111      -53.2098  -27.3825   17.9647 H         1 UNK         0.3133 
    112 H112      -52.0799  -29.0422   17.1176 H         1 UNK         0.0566 
    113 H113      -52.1536  -29.3993   14.0653 H         1 UNK         0.0814 
    114 H114      -51.5989  -30.5866   15.2380 H         1 UNK         0.0814 
    115 H115      -53.2936  -30.1245   15.1946 H         1 UNK         0.0814 
    116 H116      -50.5943  -27.5531   14.9852 H         1 UNK         0.3091 
    117 H117      -47.9641  -26.8547   17.3222 H         1 UNK         0.0702 
    118 H118      -46.6947  -27.1268   15.2098 H         1 UNK         0.0785 
    119 H119      -48.0639  -27.9352   14.4514 H         1 UNK         0.0785 
    120 H120      -47.2200  -28.6988   15.7936 H         1 UNK         0.0785 
    121 H121      -48.6402  -25.5598   14.9147 H         1 UNK         0.2998 
    122 H122      -50.8949  -23.0982   16.2552 H         1 UNK         0.0697 
    123 H123      -48.0368  -23.0409   15.1410 H         1 UNK         0.0825 
    124 H124      -48.5803  -22.3147   16.6453 H         1 UNK         0.0825 
    125 H125      -49.1785  -21.6991   15.1134 H         1 UNK         0.0825 
    126 H126      -49.7914  -24.2181   13.7180 H         1 UNK         0.3029 
    127 H127      -52.7811  -25.4456   12.6746 H         1 UNK         0.0897 
    128 H128      -52.0389  -22.7025   11.5247 H         1 UNK         0.0792 
    129 H129      -53.6178  -23.1459   12.1594 H         1 UNK         0.0792 
    130 H130      -53.0054  -23.9422   10.7209 H         1 UNK         0.0792 
    131 H131      -50.5053  -24.5762   11.1382 H         1 UNK         0.3086 
    132 H132      -48.5511  -27.4916   11.8326 H         1 UNK         0.0583 
    133 H133      -50.5599  -27.5593    9.9673 H         1 UNK         0.1020 
    134 H134      -49.5769  -26.3891    9.1966 H         1 UNK         0.1020 
    135 H135      -48.8459  -30.9077    9.5196 H         1 UNK         0.0694 
    136 H136      -49.6824  -30.0097   10.7616 H         1 UNK         0.0694 
    137 H137      -47.7981  -25.3545   10.2379 H         1 UNK         0.2989 
    138 H138      -46.8498  -22.8987   12.5415 H         1 UNK         0.1055 
    139 H139      -45.0711  -24.5091   13.2527 H         1 UNK         0.0806 
    140 H140      -44.4453  -23.3487   12.0951 H         1 UNK         0.0806 
    141 H141      -44.8216  -24.9946   11.5816 H         1 UNK         0.0806 
    142 H142      -45.8222  -23.4360    9.9389 H         1 UNK         0.3061 
    143 H143      -48.5208  -22.4997    7.9696 H         1 UNK         0.0734 
    144 H144      -46.1477  -20.6606    8.6109 H         1 UNK         0.0832 
    145 H145      -47.1217  -20.6208    7.1397 H         1 UNK         0.0832 
    146 H146      -47.8423  -20.1998    8.6831 H         1 UNK         0.0832 
    147 H147      -45.7759  -22.7777    7.3108 H         1 UNK         0.3156 
    148 H148      -45.2636  -24.7850    6.0681 H         1 UNK         0.0589 
    149 H149      -44.6394  -25.9724    8.8505 H         1 UNK         0.0808 
    150 H150      -43.5507  -26.0202    7.4664 H         1 UNK         0.0808 
    151 H151      -43.9580  -24.4831    8.2060 H         1 UNK         0.0808 
    152 H152      -46.9405  -26.8629    7.0987 H         1 UNK         0.3098 
    153 H153      -46.3186  -28.9421    4.3201 H         1 UNK         0.0720 
    154 H154      -46.4428  -30.8172    5.9423 H         1 UNK         0.0791 
    155 H155      -46.0515  -29.7289    7.2750 H         1 UNK         0.0791 
    156 H156      -44.8611  -30.0600    6.0238 H         1 UNK         0.0791 
    157 H157      -48.2785  -29.1282    6.3471 H         1 UNK         0.3028 
@<TRIPOS>BOND
     1    1    2 1    
     2    1   82 1    
     3    1   83 1    
     4    1   84 1    
     5    2    3 2    
     6    2    4 am   BACKBONE|DICT|INTERRES
     7    4    5 1    
     8    4   85 1    
     9    5    6 1    
    10    5   80 1    
    11    5   86 1    
    12    6    7 1    
    13    6   87 1    
    14    6   88 1    
    15    7    8 1    
    16    8    9 1    
    17    8   89 1    
    18    8   90 1    
    19    9   10 ar   
    20    9   14 ar   
    21   10   11 ar   
    22   10   91 1    
    23   11   12 ar   
    24   11   58 1    
    25   12   13 ar   
    26   12   92 1    
    27   13   14 ar   
    28   13   15 1    
    29   14   93 1    
    30   15   16 1    
    31   15   94 1    
    32   15   95 1    
    33   16   17 1    
    34   17   18 1    
    35   17   96 1    
    36   17   97 1    
    37   18   19 1    
    38   18   22 1    
    39   18   98 1    
    40   19   20 am   BACKBONE|DICT|INTERRES
    41   19   21 2    
    42   20   99 1    
    43   20  100 1    
    44   22   23 am   BACKBONE|DICT|INTERRES
    45   22  101 1    
    46   23   24 2    
    47   23   25 1    
    48   25   26 1    
    49   25   27 1    
    50   25  102 1    
    51   26  103 1    
    52   26  104 1    
    53   26  105 1    
    54   27   28 am   BACKBONE|DICT|INTERRES
    55   27  106 1    
    56   28   29 2    
    57   28   30 1    
    58   30   31 1    
    59   30   32 1    
    60   30  107 1    
    61   31  108 1    
    62   31  109 1    
    63   31  110 1    
    64   32   33 am   BACKBONE|DICT|INTERRES
    65   32  111 1    
    66   33   34 2    
    67   33   35 1    
    68   35   36 1    
    69   35   37 1    
    70   35  112 1    
    71   36  113 1    
    72   36  114 1    
    73   36  115 1    
    74   37   38 am   BACKBONE|DICT|INTERRES
    75   37  116 1    
    76   38   39 2    
    77   38   40 1    
    78   40   41 1    
    79   40   42 1    
    80   40  117 1    
    81   41  118 1    
    82   41  119 1    
    83   41  120 1    
    84   42   43 am   BACKBONE|DICT|INTERRES
    85   42  121 1    
    86   43   44 2    
    87   43   45 1    
    88   45   46 1    
    89   45   47 1    
    90   45  122 1    
    91   46  123 1    
    92   46  124 1    
    93   46  125 1    
    94   47   48 am   BACKBONE|DICT|INTERRES
    95   47  126 1    
    96   48   49 2    
    97   48   50 1    
    98   50   51 1    
    99   50   52 1    
   100   50  127 1    
   101   51  128 1    
   102   51  129 1    
   103   51  130 1    
   104   52   53 am   BACKBONE|DICT|INTERRES
   105   52  131 1    
   106   53   54 2    
   107   53   55 1    
   108   55   56 1    
   109   55   59 1    
   110   55  132 1    
   111   56   57 1    
   112   56  133 1    
   113   56  134 1    
   114   57   58 1    
   115   58  135 1    
   116   58  136 1    
   117   59   60 am   BACKBONE|DICT|INTERRES
   118   59  137 1    
   119   60   61 2    
   120   60   62 1    
   121   62   63 1    
   122   62   64 1    
   123   62  138 1    
   124   63  139 1    
   125   63  140 1    
   126   63  141 1    
   127   64   65 am   BACKBONE|DICT|INTERRES
   128   64  142 1    
   129   65   66 2    
   130   65   67 1    
   131   67   68 1    
   132   67   69 1    
   133   67  143 1    
   134   68  144 1    
   135   68  145 1    
   136   68  146 1    
   137   69   70 am   BACKBONE|DICT|INTERRES
   138   69  147 1    
   139   70   71 2    
   140   70   72 1    
   141   72   73 1    
   142   72   74 1    
   143   72  148 1    
   144   73  149 1    
   145   73  150 1    
   146   73  151 1    
   147   74   75 am   BACKBONE|DICT|INTERRES
   148   74  152 1    
   149   75   76 2    
   150   75   77 1    
   151   77   78 1    
   152   77   79 1    
   153   77  153 1    
   154   78  154 1    
   155   78  155 1    
   156   78  156 1    
   157   79   80 am   BACKBONE|DICT|INTERRES
   158   79  157 1    
   159   80   81 2    
@<TRIPOS>SUBSTRUCTURE
     1 UNK         1 GROUP             0       ****    0 ROOT    
