@<TRIPOS>MOLECULE
3R207
157   159    1
SMALL
USER_CHARGES


@<TRIPOS>ATOM
      1 CA        -48.4042  -32.8398    6.8954 C.3       0 UNK        -0.1975 
      2 C         -47.9009  -31.9090    5.8018 C.2       0 UNK         0.4852 
      3 O         -46.7064  -31.9046    5.5034 O.2       0 UNK        -0.5216 
      4 N         -48.8055  -31.1214    5.2029 N.am      1 UNK        -0.4461 
      5 CA        -48.5164  -30.1484    4.1407 C.3       1 UNK         0.0864 
      6 C6        -49.8207  -29.6594    3.4526 C.3       14 UNK        -0.0898 
      7 S7        -50.8832  -28.5962    4.4977 S.3       14 UNK        -0.2598 
      8 C8        -52.1037  -29.7656    5.1687 C.3       14 UNK         0.0286 
      9 C9        -52.3703  -29.4756    6.6385 C.ar      14 UNK        -0.0844 
     10 C10       -51.5684  -30.0578    7.6260 C.ar      14 UNK        -0.0881 
     11 C11       -51.8071  -29.8020    8.9784 C.ar      14 UNK        -0.0643 
     12 C12       -52.8713  -28.9728    9.3417 C.ar      14 UNK        -0.0930 
     13 C13       -53.6587  -28.3573    8.3662 C.ar      14 UNK        -0.0827 
     14 C14       -53.4094  -28.6171    7.0145 C.ar      14 UNK        -0.1249 
     15 C15       -54.7551  -27.3921    8.7872 C.3       14 UNK         0.0141 
     16 S16       -54.0313  -25.8297    9.3733 S.3       14 UNK        -0.2313 
     17 C17       -55.5082  -24.8858    9.8673 C.3       14 UNK        -0.0915 
     18 CA        -55.6203  -24.7432   11.4081 C.3       13 UNK         0.0968 
     19 C         -56.6426  -23.6353   11.7976 C.2       13 UNK         0.5732 
     20 N         -57.7351  -23.9431   12.4874 N.am      13 UNK        -0.7310 
     21 O         -56.4342  -22.4682   11.4753 O.2       13 UNK        -0.5035 
     22 N         -55.8598  -26.0434   12.0570 N.am      13 UNK        -0.4233 
     23 C         -55.5433  -26.3275   13.3259 C.2       13 UNK         0.4989 
     24 O         -54.9717  -25.5375   14.0804 O.2       13 UNK        -0.4996 
     25 CA        -55.9665  -27.7060   13.8741 C.3       12 UNK         0.0216 
     26 CB        -56.4884  -28.6987   12.8070 C.3       12 UNK        -0.1964 
     27 N         -54.8956  -28.2929   14.6857 N.am      12 UNK        -0.4276 
     28 C         -53.6953  -28.7061   14.2574 C.2       12 UNK         0.5020 
     29 O         -53.3670  -28.7758   13.0724 O.2       12 UNK        -0.5489 
     30 CA        -52.6793  -29.0429   15.3597 C.3       11 UNK         0.0294 
     31 CB        -51.4433  -29.7904   14.8244 C.3       11 UNK        -0.2019 
     32 N         -52.2462  -27.7975   15.9885 N.am      11 UNK        -0.4493 
     33 C         -52.8601  -27.1861   17.0092 C.2       11 UNK         0.4932 
     34 O         -53.8395  -27.6630   17.5862 O.2       11 UNK        -0.5029 
     35 CA        -52.3223  -25.8004   17.4242 C.3       10 UNK         0.0280 
     36 CB        -52.6314  -25.4499   18.8952 C.3       10 UNK        -0.1976 
     37 N         -50.9004  -25.6045   17.1142 N.am      10 UNK        -0.4242 
     38 C         -49.8472  -26.2620   17.6260 C.2       10 UNK         0.5072 
     39 O         -49.9363  -27.1007   18.5240 O.2       10 UNK        -0.5224 
     40 CA        -48.4539  -25.9663   17.0307 C.3       9 UNK         0.0343 
     41 CB        -47.8783  -27.2250   16.3583 C.3       9 UNK        -0.2003 
     42 N         -48.4439  -24.8706   16.0573 N.am      9 UNK        -0.4272 
     43 C         -48.4681  -23.5663   16.3636 C.2       9 UNK         0.4988 
     44 O         -48.4273  -23.1330   17.5154 O.2       9 UNK        -0.5108 
     45 CA        -48.5988  -22.5779   15.1892 C.3       8 UNK         0.0248 
     46 CB        -47.2164  -22.2353   14.6119 C.3       8 UNK        -0.2001 
     47 N         -49.4812  -23.0597   14.1189 N.am      8 UNK        -0.4140 
     48 C         -50.7891  -23.3189   14.2769 C.2       8 UNK         0.5028 
     49 O         -51.3982  -23.1331   15.3302 O.2       8 UNK        -0.5428 
     50 CA        -51.5350  -23.9462   13.0878 C.3       7 UNK         0.0264 
     51 CB        -51.9257  -22.8736   12.0590 C.3       7 UNK        -0.1988 
     52 N         -50.7728  -25.0115   12.4326 N.am      7 UNK        -0.4454 
     53 C         -50.3705  -26.1419   13.0324 C.2       7 UNK         0.5027 
     54 O         -50.6148  -26.4131   14.2066 O.2       7 UNK        -0.5083 
     55 CA        -49.5025  -27.1133   12.2084 C.3       6 UNK         0.0844 
     56 C56       -50.3788  -27.9099   11.2198 C.3       14 UNK        -0.0967 
     57 S57       -49.5023  -29.2967   10.4252 S.3       14 UNK        -0.2604 
     58 C58       -50.9020  -30.4008   10.0456 C.3       14 UNK         0.0134 
     59 N         -48.3903  -26.4196   11.5554 N.am      6 UNK        -0.4116 
     60 C         -47.4370  -25.7318   12.2010 C.2       5 UNK         0.5034 
     61 O         -47.3399  -25.6704   13.4264 O.2       5 UNK        -0.5045 
     62 CA        -46.4609  -24.9255   11.3340 C.3       5 UNK         0.0224 
     63 CB        -45.3249  -25.8161   10.8060 C.3       5 UNK        -0.1978 
     64 N         -47.1490  -24.2697   10.2200 N.am      5 UNK        -0.4737 
     65 C         -47.9760  -23.2240   10.3610 C.2       4 UNK         0.5027 
     66 O         -48.2075  -22.6772   11.4394 O.2       4 UNK        -0.5211 
     67 CA        -48.6916  -22.7282    9.0921 C.3       4 UNK         0.0297 
     68 CB        -47.7805  -21.7854    8.2906 C.3       4 UNK        -0.1993 
     69 N         -49.1540  -23.8197    8.2293 N.am      4 UNK        -0.4486 
     70 C         -50.0884  -24.7131    8.5839 C.2       3 UNK         0.4961 
     71 O         -50.6712  -24.6930    9.6650 O.2       3 UNK        -0.5105 
     72 CA        -50.3961  -25.8444    7.5883 C.3       3 UNK         0.0299 
     73 CB        -51.4295  -25.3704    6.5539 C.3       3 UNK        -0.1972 
     74 N         -49.2240  -26.3966    6.8968 N.am      3 UNK        -0.4305 
     75 C         -48.0938  -26.8301    7.4765 C.2       2 UNK         0.5006 
     76 O         -47.8619  -26.7432    8.6826 O.2       2 UNK        -0.5106 
     77 CA        -47.0720  -27.4946    6.5448 C.3       2 UNK         0.0296 
     78 CB        -45.8005  -27.9670    7.2759 C.3       2 UNK        -0.2002 
     79 N         -47.7204  -28.6334    5.9048 N.am      2 UNK        -0.4032 
     80 C         -47.6348  -28.9661    4.6105 C.2       1 UNK         0.5000 
     81 O         -46.9211  -28.3787    3.7949 O.2       1 UNK        -0.5238 
     82 H82       -48.0401  -32.5070    7.8673 H         1 UNK         0.0889 
     83 H83       -48.0395  -33.8523    6.7235 H         1 UNK         0.0889 
     84 H84       -49.4926  -32.8779    6.9325 H         1 UNK         0.0889 
     85 H85       -49.7755  -31.1944    5.4661 H         1 UNK         0.3028 
     86 H86       -47.9327  -30.6781    3.3843 H         1 UNK         0.0864 
     87 H87       -50.3990  -30.5105    3.0897 H         1 UNK         0.0720 
     88 H88       -49.5666  -29.0867    2.5586 H         1 UNK         0.0720 
     89 H89       -51.7613  -30.7942    5.0520 H         1 UNK         0.0814 
     90 H90       -53.0264  -29.6877    4.5917 H         1 UNK         0.0814 
     91 H91       -50.7490  -30.7029    7.3485 H         1 UNK         0.1469 
     92 H92       -53.0662  -28.7699   10.3860 H         1 UNK         0.1381 
     93 H93       -54.0150  -28.1431    6.2542 H         1 UNK         0.1206 
     94 H94       -55.3528  -27.8416    9.5810 H         1 UNK         0.0813 
     95 H95       -55.4328  -27.1899    7.9565 H         1 UNK         0.0813 
     96 H96       -56.4071  -25.3441    9.4515 H         1 UNK         0.0638 
     97 H97       -55.4211  -23.9060    9.3939 H         1 UNK         0.0638 
     98 H98       -54.6577  -24.3739   11.7666 H         1 UNK         0.0568 
     99 H99       -58.3823  -23.2112   12.7347 H         1 UNK         0.3450 
    100 H100      -57.9210  -24.8939   12.7606 H         1 UNK         0.3450 
    101 H101      -56.3358  -26.7392   11.5046 H         1 UNK         0.2987 
    102 H102      -56.7887  -27.5105   14.5640 H         1 UNK         0.0766 
    103 H103      -55.7584  -28.8816   12.0176 H         1 UNK         0.0798 
    104 H104      -56.7314  -29.6615   13.2565 H         1 UNK         0.0798 
    105 H105      -57.4017  -28.3324   12.3368 H         1 UNK         0.0798 
    106 H106      -55.0141  -28.2077   15.6885 H         1 UNK         0.3198 
    107 H107      -53.1694  -29.6850   16.0949 H         1 UNK         0.0843 
    108 H108      -50.8941  -29.1982   14.0928 H         1 UNK         0.0831 
    109 H109      -51.7331  -30.7221   14.3371 H         1 UNK         0.0831 
    110 H110      -50.7552  -30.0440   15.6309 H         1 UNK         0.0831 
    111 H111      -51.5239  -27.2804   15.4868 H         1 UNK         0.3133 
    112 H112      -52.8569  -25.0824   16.8007 H         1 UNK         0.0566 
    113 H113      -52.2480  -24.4636   19.1566 H         1 UNK         0.0814 
    114 H114      -53.7069  -25.4358   19.0755 H         1 UNK         0.0814 
    115 H115      -52.1979  -26.1739   19.5854 H         1 UNK         0.0814 
    116 H116      -50.7200  -24.9411   16.3694 H         1 UNK         0.3091 
    117 H117      -47.7989  -25.6969   17.8617 H         1 UNK         0.0702 
    118 H118      -46.8736  -27.0456   15.9751 H         1 UNK         0.0785 
    119 H119      -48.4989  -27.5556   15.5247 H         1 UNK         0.0785 
    120 H120      -47.8122  -28.0537   17.0645 H         1 UNK         0.0785 
    121 H121      -48.4161  -25.1394   15.0784 H         1 UNK         0.2998 
    122 H122      -49.0372  -21.6586   15.5829 H         1 UNK         0.0697 
    123 H123      -46.7301  -23.1106   14.1812 H         1 UNK         0.0825 
    124 H124      -46.5560  -21.8431   15.3865 H         1 UNK         0.0825 
    125 H125      -47.2887  -21.4760   13.8330 H         1 UNK         0.0825 
    126 H126      -49.0614  -23.1897   13.2027 H         1 UNK         0.3029 
    127 H127      -52.4521  -24.3965   13.4748 H         1 UNK         0.0897 
    128 H128      -52.5118  -23.3003   11.2447 H         1 UNK         0.0792 
    129 H129      -52.5306  -22.0918   12.5199 H         1 UNK         0.0792 
    130 H130      -51.0484  -22.3966   11.6208 H         1 UNK         0.0792 
    131 H131      -50.5805  -24.8828   11.4387 H         1 UNK         0.3086 
    132 H132      -49.0629  -27.8228   12.9127 H         1 UNK         0.0583 
    133 H133      -51.2372  -28.3219   11.7498 H         1 UNK         0.1020 
    134 H134      -50.7855  -27.2587   10.4456 H         1 UNK         0.1020 
    135 H135      -50.5116  -31.3619    9.7077 H         1 UNK         0.0694 
    136 H136      -51.4688  -30.6049   10.9558 H         1 UNK         0.0694 
    137 H137      -48.3587  -26.4585   10.5400 H         1 UNK         0.2989 
    138 H138      -46.0188  -24.1505   11.9643 H         1 UNK         0.1055 
    139 H139      -44.7611  -26.2522   11.6317 H         1 UNK         0.0806 
    140 H140      -44.6215  -25.2461   10.1990 H         1 UNK         0.0806 
    141 H141      -45.7001  -26.6415   10.2009 H         1 UNK         0.0806 
    142 H142      -47.0935  -24.7276    9.3198 H         1 UNK         0.3061 
    143 H143      -49.5697  -22.1624    9.4110 H         1 UNK         0.0734 
    144 H144      -48.3054  -21.3555    7.4374 H         1 UNK         0.0832 
    145 H145      -47.4398  -20.9548    8.9106 H         1 UNK         0.0832 
    146 H146      -46.8929  -22.2979    7.9175 H         1 UNK         0.0832 
    147 H147      -48.7192  -23.9120    7.3230 H         1 UNK         0.3156 
    148 H148      -50.8440  -26.6635    8.1542 H         1 UNK         0.0589 
    149 H149      -51.0126  -24.6285    5.8722 H         1 UNK         0.0808 
    150 H150      -52.2920  -24.9157    7.0427 H         1 UNK         0.0808 
    151 H151      -51.8071  -26.2020    5.9604 H         1 UNK         0.0808 
    152 H152      -49.3271  -26.5391    5.9020 H         1 UNK         0.3098 
    153 H153      -46.7877  -26.7506    5.7977 H         1 UNK         0.0720 
    154 H154      -45.2849  -27.1277    7.7439 H         1 UNK         0.0791 
    155 H155      -45.0986  -28.4349    6.5855 H         1 UNK         0.0791 
    156 H156      -46.0313  -28.6901    8.0594 H         1 UNK         0.0791 
    157 H157      -48.3570  -29.1591    6.4873 H         1 UNK         0.3028 
@<TRIPOS>BOND
     1    1    2 1    
     2    1   82 1    
     3    1   83 1    
     4    1   84 1    
     5    2    3 2    
     6    2    4 am   BACKBONE|DICT|INTERRES
     7    4    5 1    
     8    4   85 1    
     9    5    6 1    
    10    5   80 1    
    11    5   86 1    
    12    6    7 1    
    13    6   87 1    
    14    6   88 1    
    15    7    8 1    
    16    8    9 1    
    17    8   89 1    
    18    8   90 1    
    19    9   10 ar   
    20    9   14 ar   
    21   10   11 ar   
    22   10   91 1    
    23   11   12 ar   
    24   11   58 1    
    25   12   13 ar   
    26   12   92 1    
    27   13   14 ar   
    28   13   15 1    
    29   14   93 1    
    30   15   16 1    
    31   15   94 1    
    32   15   95 1    
    33   16   17 1    
    34   17   18 1    
    35   17   96 1    
    36   17   97 1    
    37   18   19 1    
    38   18   22 1    
    39   18   98 1    
    40   19   20 am   BACKBONE|DICT|INTERRES
    41   19   21 2    
    42   20   99 1    
    43   20  100 1    
    44   22   23 am   BACKBONE|DICT|INTERRES
    45   22  101 1    
    46   23   24 2    
    47   23   25 1    
    48   25   26 1    
    49   25   27 1    
    50   25  102 1    
    51   26  103 1    
    52   26  104 1    
    53   26  105 1    
    54   27   28 am   BACKBONE|DICT|INTERRES
    55   27  106 1    
    56   28   29 2    
    57   28   30 1    
    58   30   31 1    
    59   30   32 1    
    60   30  107 1    
    61   31  108 1    
    62   31  109 1    
    63   31  110 1    
    64   32   33 am   BACKBONE|DICT|INTERRES
    65   32  111 1    
    66   33   34 2    
    67   33   35 1    
    68   35   36 1    
    69   35   37 1    
    70   35  112 1    
    71   36  113 1    
    72   36  114 1    
    73   36  115 1    
    74   37   38 am   BACKBONE|DICT|INTERRES
    75   37  116 1    
    76   38   39 2    
    77   38   40 1    
    78   40   41 1    
    79   40   42 1    
    80   40  117 1    
    81   41  118 1    
    82   41  119 1    
    83   41  120 1    
    84   42   43 am   BACKBONE|DICT|INTERRES
    85   42  121 1    
    86   43   44 2    
    87   43   45 1    
    88   45   46 1    
    89   45   47 1    
    90   45  122 1    
    91   46  123 1    
    92   46  124 1    
    93   46  125 1    
    94   47   48 am   BACKBONE|DICT|INTERRES
    95   47  126 1    
    96   48   49 2    
    97   48   50 1    
    98   50   51 1    
    99   50   52 1    
   100   50  127 1    
   101   51  128 1    
   102   51  129 1    
   103   51  130 1    
   104   52   53 am   BACKBONE|DICT|INTERRES
   105   52  131 1    
   106   53   54 2    
   107   53   55 1    
   108   55   56 1    
   109   55   59 1    
   110   55  132 1    
   111   56   57 1    
   112   56  133 1    
   113   56  134 1    
   114   57   58 1    
   115   58  135 1    
   116   58  136 1    
   117   59   60 am   BACKBONE|DICT|INTERRES
   118   59  137 1    
   119   60   61 2    
   120   60   62 1    
   121   62   63 1    
   122   62   64 1    
   123   62  138 1    
   124   63  139 1    
   125   63  140 1    
   126   63  141 1    
   127   64   65 am   BACKBONE|DICT|INTERRES
   128   64  142 1    
   129   65   66 2    
   130   65   67 1    
   131   67   68 1    
   132   67   69 1    
   133   67  143 1    
   134   68  144 1    
   135   68  145 1    
   136   68  146 1    
   137   69   70 am   BACKBONE|DICT|INTERRES
   138   69  147 1    
   139   70   71 2    
   140   70   72 1    
   141   72   73 1    
   142   72   74 1    
   143   72  148 1    
   144   73  149 1    
   145   73  150 1    
   146   73  151 1    
   147   74   75 am   BACKBONE|DICT|INTERRES
   148   74  152 1    
   149   75   76 2    
   150   75   77 1    
   151   77   78 1    
   152   77   79 1    
   153   77  153 1    
   154   78  154 1    
   155   78  155 1    
   156   78  156 1    
   157   79   80 am   BACKBONE|DICT|INTERRES
   158   79  157 1    
   159   80   81 2    
@<TRIPOS>SUBSTRUCTURE
     1 UNK         1 GROUP             0       ****    0 ROOT    
