@<TRIPOS>MOLECULE
3R207
157   159    1
SMALL
USER_CHARGES


@<TRIPOS>ATOM
      1 CA        -55.8707  -28.0533    5.8211 C.3       0 UNK        -0.1975 
      2 C         -54.3778  -27.9080    5.5635 C.2       0 UNK         0.4852 
      3 O         -53.9619  -27.8551    4.4051 O.2       0 UNK        -0.5216 
      4 N         -53.5800  -27.8517    6.6370 N.am      1 UNK        -0.4461 
      5 CA        -52.1250  -27.6681    6.6428 C.3       1 UNK         0.0864 
      6 C6        -51.3628  -28.7587    5.8316 C.3       14 UNK        -0.0898 
      7 S7        -49.6935  -29.0961    6.4956 S.3       14 UNK        -0.2598 
      8 C8        -49.7760  -30.8773    6.8566 C.3       14 UNK         0.0286 
      9 C9        -50.6419  -31.1769    8.0711 C.ar      14 UNK        -0.0844 
     10 C10       -50.1140  -31.0491    9.3586 C.ar      14 UNK        -0.0881 
     11 C11       -50.8890  -31.3667   10.4779 C.ar      14 UNK        -0.0643 
     12 C12       -52.2085  -31.8005   10.3036 C.ar      14 UNK        -0.0930 
     13 C13       -52.7426  -31.9417    9.0188 C.ar      14 UNK        -0.0827 
     14 C14       -51.9550  -31.6259    7.9086 C.ar      14 UNK        -0.1249 
     15 C15       -54.1448  -32.4935    8.8102 C.3       14 UNK         0.0141 
     16 S16       -55.3485  -31.1790    8.4426 S.3       14 UNK        -0.2313 
     17 C17       -56.2332  -30.9963   10.0288 C.3       14 UNK        -0.0915 
     18 CA        -56.3207  -29.5141   10.4804 C.3       13 UNK         0.0968 
     19 C         -57.3877  -29.2751   11.5896 C.2       13 UNK         0.5732 
     20 N         -57.1865  -28.3458   12.5178 N.am      13 UNK        -0.7310 
     21 O         -58.4290  -29.9274   11.6075 O.2       13 UNK        -0.5035 
     22 N         -55.0007  -28.9957   10.8653 N.am      13 UNK        -0.4233 
     23 C         -54.3442  -28.0108   10.2470 C.2       13 UNK         0.4989 
     24 O         -54.7213  -27.4908    9.1959 O.2       13 UNK        -0.4996 
     25 CA        -53.0466  -27.5225   10.9226 C.3       12 UNK         0.0216 
     26 CB        -52.6325  -26.1117   10.4544 C.3       12 UNK        -0.1964 
     27 N         -53.0657  -27.5914   12.3953 N.am      12 UNK        -0.4276 
     28 C         -53.9625  -27.0424   13.2298 C.2       12 UNK         0.5020 
     29 O         -54.9508  -26.4110   12.8542 O.2       12 UNK        -0.5489 
     30 CA        -53.7503  -27.2484   14.7368 C.3       11 UNK         0.0294 
     31 CB        -53.0124  -28.5508   15.1006 C.3       11 UNK        -0.2019 
     32 N         -53.0023  -26.1098   15.2590 N.am      11 UNK        -0.4493 
     33 C         -53.4911  -25.1804   16.0894 C.2       11 UNK         0.4932 
     34 O         -54.6295  -25.2153   16.5609 O.2       11 UNK        -0.5029 
     35 CA        -52.5571  -24.0048   16.4385 C.3       10 UNK         0.0280 
     36 CB        -53.0182  -23.2071   17.6777 C.3       10 UNK        -0.1976 
     37 N         -51.1453  -24.3895   16.5533 N.am      10 UNK        -0.4242 
     38 C         -50.5899  -25.2185   17.4527 C.2       10 UNK         0.5072 
     39 O         -51.2268  -25.7805   18.3450 O.2       10 UNK        -0.5224 
     40 CA        -49.0711  -25.4847   17.3558 C.3       9 UNK         0.0343 
     41 CB        -48.8008  -26.9792   17.1087 C.3       9 UNK        -0.2003 
     42 N         -48.3902  -24.7072   16.3169 N.am      9 UNK        -0.4272 
     43 C         -48.0856  -23.4035   16.3877 C.2       9 UNK         0.4988 
     44 O         -48.2540  -22.7134   17.3930 O.2       9 UNK        -0.5108 
     45 CA        -47.5625  -22.7462   15.0944 C.3       8 UNK         0.0248 
     46 CB        -46.0352  -22.8774   14.9899 C.3       8 UNK        -0.2001 
     47 N         -48.1970  -23.2883   13.8853 N.am      8 UNK        -0.4140 
     48 C         -49.5118  -23.2116   13.6260 C.2       8 UNK         0.5028 
     49 O         -50.3122  -22.6034   14.3348 O.2       8 UNK        -0.5428 
     50 CA        -50.0401  -24.0013   12.4223 C.3       7 UNK         0.0264 
     51 CB        -49.9131  -23.1815   11.1317 C.3       7 UNK        -0.1988 
     52 N         -49.3518  -25.2866   12.2803 N.am      7 UNK        -0.4454 
     53 C         -49.6046  -26.3542   13.0534 C.2       7 UNK         0.5027 
     54 O         -50.4830  -26.3644   13.9167 O.2       7 UNK        -0.5083 
     55 CA        -48.7134  -27.6040   12.8622 C.3       6 UNK         0.0844 
     56 C56       -49.3283  -28.6083   11.8529 C.3       14 UNK        -0.0967 
     57 S57       -50.5761  -29.6764   12.6488 S.3       14 UNK        -0.2604 
     58 C58       -50.2845  -31.2914   11.8718 C.3       14 UNK         0.0134 
     59 N         -47.3318  -27.2549   12.5180 N.am      6 UNK        -0.4116 
     60 C         -46.4831  -26.6316   13.3480 C.2       5 UNK         0.5034 
     61 O         -46.7632  -26.3268   14.5061 O.2       5 UNK        -0.5045 
     62 CA        -45.1099  -26.2303   12.7785 C.3       5 UNK         0.0224 
     63 CB        -44.0835  -27.3484   13.0191 C.3       5 UNK        -0.1978 
     64 N         -45.1222  -25.8755   11.3528 N.am      5 UNK        -0.4737 
     65 C         -45.8883  -24.9263   10.7971 C.2       4 UNK         0.5027 
     66 O         -46.6990  -24.2559   11.4416 O.2       4 UNK        -0.5211 
     67 CA        -45.7406  -24.7216    9.2787 C.3       4 UNK         0.0297 
     68 CB        -45.7032  -26.0605    8.5146 C.3       4 UNK        -0.1993 
     69 N         -46.8649  -23.9438    8.7647 N.am      4 UNK        -0.4486 
     70 C         -46.8456  -22.6724    8.3579 C.2       3 UNK         0.4961 
     71 O         -45.8296  -21.9750    8.3380 O.2       3 UNK        -0.5105 
     72 CA        -48.1963  -22.0993    7.8666 C.3       3 UNK         0.0299 
     73 CB        -48.0851  -20.6315    7.4133 C.3       3 UNK        -0.1972 
     74 N         -48.7973  -22.8859    6.7811 N.am      3 UNK        -0.4305 
     75 C         -49.3406  -24.1066    6.8926 C.2       2 UNK         0.5006 
     76 O         -49.4174  -24.7231    7.9597 O.2       2 UNK        -0.5106 
     77 CA        -49.8263  -24.7561    5.5844 C.3       2 UNK         0.0296 
     78 CB        -48.6488  -24.9994    4.6224 C.3       2 UNK        -0.2002 
     79 N         -50.4748  -26.0404    5.8428 N.am      2 UNK        -0.4032 
     80 C         -51.7293  -26.2169    6.2734 C.2       1 UNK         0.5000 
     81 O         -52.5390  -25.2942    6.4081 O.2       1 UNK        -0.5238 
     82 H82       -56.0919  -28.1550    6.8838 H         1 UNK         0.0889 
     83 H83       -56.2549  -28.9370    5.3124 H         1 UNK         0.0889 
     84 H84       -56.4040  -27.1811    5.4443 H         1 UNK         0.0889 
     85 H85       -54.0157  -27.8177    7.5577 H         1 UNK         0.3028 
     86 H86       -51.8490  -27.7850    7.6919 H         1 UNK         0.0864 
     87 H87       -51.2831  -28.4896    4.7766 H         1 UNK         0.0720 
     88 H88       -51.9319  -29.6879    5.8411 H         1 UNK         0.0720 
     89 H89       -48.7643  -31.2454    7.0334 H         1 UNK         0.0814 
     90 H90       -50.1404  -31.4125    5.9782 H         1 UNK         0.0814 
     91 H91       -49.0919  -30.7204    9.4861 H         1 UNK         0.1469 
     92 H92       -52.8081  -32.0559   11.1665 H         1 UNK         0.1381 
     93 H93       -52.3642  -31.7480    6.9151 H         1 UNK         0.1206 
     94 H94       -54.1313  -33.1879    7.9688 H         1 UNK         0.0813 
     95 H95       -54.4632  -33.0841    9.6700 H         1 UNK         0.0813 
     96 H96       -55.7616  -31.5987   10.8063 H         1 UNK         0.0638 
     97 H97       -57.2272  -31.4200    9.8762 H         1 UNK         0.0638 
     98 H98       -56.7041  -28.9429    9.6333 H         1 UNK         0.0568 
     99 H99       -56.3794  -27.7317   12.4873 H         1 UNK         0.3450 
    100 H100      -57.8939  -28.2028   13.2206 H         1 UNK         0.3450 
    101 H101      -54.6251  -29.3580   11.7285 H         1 UNK         0.2987 
    102 H102      -52.2742  -28.2168   10.5894 H         1 UNK         0.0766 
    103 H103      -53.3426  -25.3525   10.7832 H         1 UNK         0.0798 
    104 H104      -52.5697  -26.0486    9.3678 H         1 UNK         0.0798 
    105 H105      -51.6514  -25.8448   10.8389 H         1 UNK         0.0798 
    106 H106      -52.2945  -28.1013   12.8106 H         1 UNK         0.3198 
    107 H107      -54.7449  -27.3010   15.1849 H         1 UNK         0.0843 
    108 H108      -51.9478  -28.4971   14.8765 H         1 UNK         0.0831 
    109 H109      -53.4295  -29.4113   14.5757 H         1 UNK         0.0831 
    110 H110      -53.1014  -28.7543   16.1678 H         1 UNK         0.0831 
    111 H111      -52.0587  -26.0029   14.8906 H         1 UNK         0.3133 
    112 H112      -52.6104  -23.3280   15.5850 H         1 UNK         0.0566 
    113 H113      -54.0141  -22.7894   17.5255 H         1 UNK         0.0814 
    114 H114      -53.0623  -23.8322   18.5700 H         1 UNK         0.0814 
    115 H115      -52.3473  -22.3731   17.8841 H         1 UNK         0.0814 
    116 H116      -50.5408  -23.9645   15.8588 H         1 UNK         0.3091 
    117 H117      -48.6365  -25.2166   18.3208 H         1 UNK         0.0702 
    118 H118      -47.7316  -27.1896   17.0737 H         1 UNK         0.0785 
    119 H119      -49.2398  -27.3172   16.1698 H         1 UNK         0.0785 
    120 H120      -49.2246  -27.5924   17.9049 H         1 UNK         0.0785 
    121 H121      -48.1217  -25.2160   15.4807 H         1 UNK         0.2998 
    122 H122      -47.8084  -21.6833   15.1412 H         1 UNK         0.0697 
    123 H123      -45.7152  -23.9184   15.0145 H         1 UNK         0.0825 
    124 H124      -45.5466  -22.3713   15.8235 H         1 UNK         0.0825 
    125 H125      -45.6569  -22.4291   14.0709 H         1 UNK         0.0825 
    126 H126      -47.6007  -23.7630   13.2145 H         1 UNK         0.3029 
    127 H127      -51.1023  -24.1920   12.5935 H         1 UNK         0.0897 
    128 H128      -48.8763  -22.9239   10.9189 H         1 UNK         0.0792 
    129 H129      -50.4700  -22.2468   11.2090 H         1 UNK         0.0792 
    130 H130      -50.3120  -23.7248   10.2756 H         1 UNK         0.0792 
    131 H131      -48.5591  -25.3034   11.6509 H         1 UNK         0.3086 
    132 H132      -48.6580  -28.0983   13.8350 H         1 UNK         0.0583 
    133 H133      -49.7659  -28.1067   10.9871 H         1 UNK         0.1020 
    134 H134      -48.5446  -29.2541   11.4549 H         1 UNK         0.1020 
    135 H135      -50.7276  -32.0631   12.5030 H         1 UNK         0.0694 
    136 H136      -49.2153  -31.5068   11.8433 H         1 UNK         0.0694 
    137 H137      -47.0190  -27.4657   11.5823 H         1 UNK         0.2989 
    138 H138      -44.7821  -25.3452   13.3269 H         1 UNK         0.1055 
    139 H139      -44.0392  -27.6166   14.0759 H         1 UNK         0.0806 
    140 H140      -43.0806  -27.0376   12.7255 H         1 UNK         0.0806 
    141 H141      -44.3319  -28.2536   12.4635 H         1 UNK         0.0806 
    142 H142      -44.4787  -26.3796   10.7593 H         1 UNK         0.3061 
    143 H143      -44.8027  -24.1901    9.1062 H         1 UNK         0.0734 
    144 H144      -45.6816  -25.8956    7.4370 H         1 UNK         0.0832 
    145 H145      -44.8140  -26.6423    8.7587 H         1 UNK         0.0832 
    146 H146      -46.5756  -26.6778    8.7345 H         1 UNK         0.0832 
    147 H147      -47.7673  -24.4141    8.7362 H         1 UNK         0.3156 
    148 H148      -48.8823  -22.1225    8.7134 H         1 UNK         0.0589 
    149 H149      -47.4192  -20.5222    6.5563 H         1 UNK         0.0808 
    150 H150      -49.0585  -20.2254    7.1374 H         1 UNK         0.0808 
    151 H151      -47.6918  -20.0037    8.2142 H         1 UNK         0.0808 
    152 H152      -48.7468  -22.4723    5.8612 H         1 UNK         0.3098 
    153 H153      -50.5436  -24.0831    5.1101 H         1 UNK         0.0720 
    154 H154      -48.9810  -25.4911    3.7077 H         1 UNK         0.0791 
    155 H155      -47.8794  -25.6257    5.0769 H         1 UNK         0.0791 
    156 H156      -48.1737  -24.0641    4.3246 H         1 UNK         0.0791 
    157 H157      -49.8760  -26.8559    5.8272 H         1 UNK         0.3028 
@<TRIPOS>BOND
     1    1    2 1    
     2    1   82 1    
     3    1   83 1    
     4    1   84 1    
     5    2    3 2    
     6    2    4 am   BACKBONE|DICT|INTERRES
     7    4    5 1    
     8    4   85 1    
     9    5    6 1    
    10    5   80 1    
    11    5   86 1    
    12    6    7 1    
    13    6   87 1    
    14    6   88 1    
    15    7    8 1    
    16    8    9 1    
    17    8   89 1    
    18    8   90 1    
    19    9   10 ar   
    20    9   14 ar   
    21   10   11 ar   
    22   10   91 1    
    23   11   12 ar   
    24   11   58 1    
    25   12   13 ar   
    26   12   92 1    
    27   13   14 ar   
    28   13   15 1    
    29   14   93 1    
    30   15   16 1    
    31   15   94 1    
    32   15   95 1    
    33   16   17 1    
    34   17   18 1    
    35   17   96 1    
    36   17   97 1    
    37   18   19 1    
    38   18   22 1    
    39   18   98 1    
    40   19   20 am   BACKBONE|DICT|INTERRES
    41   19   21 2    
    42   20   99 1    
    43   20  100 1    
    44   22   23 am   BACKBONE|DICT|INTERRES
    45   22  101 1    
    46   23   24 2    
    47   23   25 1    
    48   25   26 1    
    49   25   27 1    
    50   25  102 1    
    51   26  103 1    
    52   26  104 1    
    53   26  105 1    
    54   27   28 am   BACKBONE|DICT|INTERRES
    55   27  106 1    
    56   28   29 2    
    57   28   30 1    
    58   30   31 1    
    59   30   32 1    
    60   30  107 1    
    61   31  108 1    
    62   31  109 1    
    63   31  110 1    
    64   32   33 am   BACKBONE|DICT|INTERRES
    65   32  111 1    
    66   33   34 2    
    67   33   35 1    
    68   35   36 1    
    69   35   37 1    
    70   35  112 1    
    71   36  113 1    
    72   36  114 1    
    73   36  115 1    
    74   37   38 am   BACKBONE|DICT|INTERRES
    75   37  116 1    
    76   38   39 2    
    77   38   40 1    
    78   40   41 1    
    79   40   42 1    
    80   40  117 1    
    81   41  118 1    
    82   41  119 1    
    83   41  120 1    
    84   42   43 am   BACKBONE|DICT|INTERRES
    85   42  121 1    
    86   43   44 2    
    87   43   45 1    
    88   45   46 1    
    89   45   47 1    
    90   45  122 1    
    91   46  123 1    
    92   46  124 1    
    93   46  125 1    
    94   47   48 am   BACKBONE|DICT|INTERRES
    95   47  126 1    
    96   48   49 2    
    97   48   50 1    
    98   50   51 1    
    99   50   52 1    
   100   50  127 1    
   101   51  128 1    
   102   51  129 1    
   103   51  130 1    
   104   52   53 am   BACKBONE|DICT|INTERRES
   105   52  131 1    
   106   53   54 2    
   107   53   55 1    
   108   55   56 1    
   109   55   59 1    
   110   55  132 1    
   111   56   57 1    
   112   56  133 1    
   113   56  134 1    
   114   57   58 1    
   115   58  135 1    
   116   58  136 1    
   117   59   60 am   BACKBONE|DICT|INTERRES
   118   59  137 1    
   119   60   61 2    
   120   60   62 1    
   121   62   63 1    
   122   62   64 1    
   123   62  138 1    
   124   63  139 1    
   125   63  140 1    
   126   63  141 1    
   127   64   65 am   BACKBONE|DICT|INTERRES
   128   64  142 1    
   129   65   66 2    
   130   65   67 1    
   131   67   68 1    
   132   67   69 1    
   133   67  143 1    
   134   68  144 1    
   135   68  145 1    
   136   68  146 1    
   137   69   70 am   BACKBONE|DICT|INTERRES
   138   69  147 1    
   139   70   71 2    
   140   70   72 1    
   141   72   73 1    
   142   72   74 1    
   143   72  148 1    
   144   73  149 1    
   145   73  150 1    
   146   73  151 1    
   147   74   75 am   BACKBONE|DICT|INTERRES
   148   74  152 1    
   149   75   76 2    
   150   75   77 1    
   151   77   78 1    
   152   77   79 1    
   153   77  153 1    
   154   78  154 1    
   155   78  155 1    
   156   78  156 1    
   157   79   80 am   BACKBONE|DICT|INTERRES
   158   79  157 1    
   159   80   81 2    
@<TRIPOS>SUBSTRUCTURE
     1 UNK         1 GROUP             0       ****    0 ROOT    
