@<TRIPOS>MOLECULE
3R207
157   159    1
SMALL
USER_CHARGES


@<TRIPOS>ATOM
      1 CA        -47.3032  -32.0698    8.3530 C.3       0 UNK        -0.1975 
      2 C         -47.5391  -31.3856    7.0144 C.2       0 UNK         0.4852 
      3 O         -47.8992  -32.0493    6.0411 O.2       0 UNK        -0.5216 
      4 N         -47.3340  -30.0672    6.9596 N.am      1 UNK        -0.4461 
      5 CA        -47.5076  -29.2169    5.7845 C.3       1 UNK         0.0864 
      6 C6        -49.0030  -28.9688    5.4352 C.3       14 UNK        -0.0898 
      7 S7        -49.9717  -28.1229    6.7376 S.3       14 UNK        -0.2598 
      8 C8        -51.4261  -27.6299    5.7635 C.3       14 UNK         0.0286 
      9 C9        -52.5416  -27.0970    6.6487 C.ar      14 UNK        -0.0844 
     10 C10       -52.7455  -25.7197    6.7907 C.ar      14 UNK        -0.0881 
     11 C11       -53.7949  -25.2370    7.5797 C.ar      14 UNK        -0.0643 
     12 C12       -54.6465  -26.1433    8.2143 C.ar      14 UNK        -0.0930 
     13 C13       -54.4368  -27.5199    8.1047 C.ar      14 UNK        -0.0827 
     14 C14       -53.3890  -27.9915    7.3100 C.ar      14 UNK        -0.1249 
     15 C15       -55.3434  -28.4887    8.8479 C.3       14 UNK         0.0141 
     16 S16       -55.3621  -28.1297   10.6310 S.3       14 UNK        -0.2313 
     17 C17       -56.4880  -29.4274   11.2478 C.3       14 UNK        -0.0915 
     18 CA        -55.7977  -30.4383   12.2012 C.3       13 UNK         0.0968 
     19 C         -54.9202  -31.4757   11.4447 C.2       13 UNK         0.5732 
     20 N         -55.5423  -32.3857   10.7073 N.am      13 UNK        -0.7310 
     21 O         -53.6918  -31.4589   11.5008 O.2       13 UNK        -0.5035 
     22 N         -55.0741  -29.7307   13.2616 N.am      13 UNK        -0.4233 
     23 C         -54.6964  -30.2458   14.4339 C.2       13 UNK         0.4989 
     24 O         -54.9960  -31.3792   14.8129 O.2       13 UNK        -0.4996 
     25 CA        -53.8381  -29.3492   15.3446 C.3       12 UNK         0.0216 
     26 CB        -52.3980  -29.8755   15.4109 C.3       12 UNK        -0.1964 
     27 N         -53.8170  -27.9348   14.9469 N.am      12 UNK        -0.4276 
     28 C         -54.8200  -27.0736   15.1602 C.2       12 UNK         0.5020 
     29 O         -55.8866  -27.3867   15.6940 O.2       12 UNK        -0.5489 
     30 CA        -54.5699  -25.6210   14.7096 C.3       11 UNK         0.0294 
     31 CB        -55.7702  -24.6898   14.9803 C.3       11 UNK        -0.2019 
     32 N         -53.3407  -25.0552   15.2821 N.am      11 UNK        -0.4493 
     33 C         -53.0206  -24.9341   16.5791 C.2       11 UNK         0.4932 
     34 O         -53.7446  -25.2914   17.5106 O.2       11 UNK        -0.5029 
     35 CA        -51.6498  -24.2924   16.8693 C.3       10 UNK         0.0280 
     36 CB        -51.4310  -23.9854   18.3663 C.3       10 UNK        -0.1976 
     37 N         -50.5284  -25.0753   16.3355 N.am      10 UNK        -0.4242 
     38 C         -50.2018  -26.3462   16.6277 C.2       10 UNK         0.5072 
     39 O         -50.8366  -27.0553   17.4087 O.2       10 UNK        -0.5224 
     40 CA        -48.9516  -26.9472   15.9525 C.3       9 UNK         0.0343 
     41 CB        -49.3258  -28.1304   15.0484 C.3       9 UNK        -0.2003 
     42 N         -48.1959  -25.9795   15.1591 N.am      9 UNK        -0.4272 
     43 C         -47.2739  -25.1456   15.6528 C.2       9 UNK         0.4988 
     44 O         -46.9414  -25.1086   16.8381 O.2       9 UNK        -0.5108 
     45 CA        -46.6243  -24.1731   14.6550 C.3       8 UNK         0.0248 
     46 CB        -45.4638  -24.8569   13.9133 C.3       8 UNK        -0.2001 
     47 N         -47.5549  -23.5962   13.6777 N.am      8 UNK        -0.4140 
     48 C         -48.6523  -22.8852   13.9715 C.2       8 UNK         0.5028 
     49 O         -49.0871  -22.7289   15.1123 O.2       8 UNK        -0.5428 
     50 CA        -49.3651  -22.2056   12.7954 C.3       7 UNK         0.0264 
     51 CB        -48.3849  -21.4648   11.8655 C.3       7 UNK        -0.1988 
     52 N         -50.1657  -23.1364   12.0054 N.am      7 UNK        -0.4454 
     53 C         -51.3750  -23.5977   12.3513 C.2       7 UNK         0.5027 
     54 O         -51.8854  -23.4375   13.4597 O.2       7 UNK        -0.5083 
     55 CA        -52.1607  -24.3303   11.2464 C.3       6 UNK         0.0844 
     56 C56       -52.3282  -23.4363    9.9765 C.3       14 UNK        -0.0967 
     57 S57       -54.0682  -23.2192    9.4857 S.3       14 UNK        -0.2604 
     58 C58       -54.0287  -23.7404    7.7370 C.3       14 UNK         0.0134 
     59 N         -51.5039  -25.5970   10.9411 N.am      6 UNK        -0.4116 
     60 C         -51.5070  -26.6958   11.7081 C.2       5 UNK         0.5034 
     61 O         -52.1642  -26.8309   12.7419 O.2       5 UNK        -0.5045 
     62 CA        -50.5758  -27.8325   11.2488 C.3       5 UNK         0.0224 
     63 CB        -51.3207  -28.7908   10.3094 C.3       5 UNK        -0.1978 
     64 N         -49.3609  -27.3398   10.5870 N.am      5 UNK        -0.4737 
     65 C         -48.4150  -26.6105   11.1983 C.2       4 UNK         0.5027 
     66 O         -48.4369  -26.3284   12.3944 O.2       4 UNK        -0.5211 
     67 CA        -47.2778  -26.0586   10.3262 C.3       4 UNK         0.0297 
     68 CB        -46.1161  -27.0611   10.2689 C.3       4 UNK        -0.1993 
     69 N         -47.7095  -25.6983    8.9705 N.am      4 UNK        -0.4486 
     70 C         -48.5681  -24.7013    8.6977 C.2       3 UNK         0.4961 
     71 O         -49.0951  -24.0169    9.5759 O.2       3 UNK        -0.5105 
     72 CA        -48.9557  -24.4373    7.2282 C.3       3 UNK         0.0299 
     73 CB        -49.1822  -22.9387    6.9395 C.3       3 UNK        -0.1972 
     74 N         -48.0582  -25.0432    6.2400 N.am      3 UNK        -0.4305 
     75 C         -46.7605  -24.7768    6.0215 C.2       2 UNK         0.5006 
     76 O         -46.1387  -23.8726    6.5811 O.2       2 UNK        -0.5106 
     77 CA        -46.0344  -25.7154    5.0285 C.3       2 UNK         0.0296 
     78 CB        -44.5110  -25.7686    5.2740 C.3       2 UNK        -0.2002 
     79 N         -46.5982  -27.0772    4.9890 N.am      2 UNK        -0.4032 
     80 C         -46.7423  -27.9071    6.0350 C.2       1 UNK         0.5000 
     81 O         -46.3632  -27.6373    7.1787 O.2       1 UNK        -0.5238 
     82 H82       -48.2176  -32.5567    8.6908 H         1 UNK         0.0889 
     83 H83       -46.9921  -31.3631    9.1223 H         1 UNK         0.0889 
     84 H84       -46.5277  -32.8290    8.2555 H         1 UNK         0.0889 
     85 H85       -46.9892  -29.5561    7.7634 H         1 UNK         0.3028 
     86 H86       -47.0248  -29.7117    4.9390 H         1 UNK         0.0864 
     87 H87       -49.0805  -28.3944    4.5105 H         1 UNK         0.0720 
     88 H88       -49.4918  -29.9205    5.2218 H         1 UNK         0.0720 
     89 H89       -51.7923  -28.4897    5.1999 H         1 UNK         0.0814 
     90 H90       -51.1324  -26.8818    5.0256 H         1 UNK         0.0814 
     91 H91       -52.0981  -25.0238    6.2760 H         1 UNK         0.1469 
     92 H92       -55.4614  -25.7736    8.8217 H         1 UNK         0.1381 
     93 H93       -53.2239  -29.0558    7.2101 H         1 UNK         0.1206 
     94 H94       -56.3555  -28.4113    8.4485 H         1 UNK         0.0813 
     95 H95       -55.0188  -29.5195    8.6961 H         1 UNK         0.0813 
     96 H96       -57.2928  -28.9236   11.7851 H         1 UNK         0.0638 
     97 H97       -56.9731  -29.9371   10.4137 H         1 UNK         0.0638 
     98 H98       -56.5877  -31.0126   12.6891 H         1 UNK         0.0568 
     99 H99       -54.9920  -33.0640   10.2046 H         1 UNK         0.3450 
    100 H100      -56.5482  -32.4155   10.6499 H         1 UNK         0.3450 
    101 H101      -54.7505  -28.8068   13.0171 H         1 UNK         0.2987 
    102 H102      -54.2652  -29.4152   16.3476 H         1 UNK         0.0766 
    103 H103      -51.8312  -29.3421   16.1728 H         1 UNK         0.0798 
    104 H104      -51.8833  -29.7686   14.4553 H         1 UNK         0.0798 
    105 H105      -52.3749  -30.9328   15.6788 H         1 UNK         0.0798 
    106 H106      -53.0032  -27.5986   14.4399 H         1 UNK         0.3198 
    107 H107      -54.4228  -25.6543   13.6290 H         1 UNK         0.0843 
    108 H108      -55.9951  -24.6170   16.0449 H         1 UNK         0.0831 
    109 H109      -56.6684  -25.0578   14.4828 H         1 UNK         0.0831 
    110 H110      -55.5824  -23.6832   14.6068 H         1 UNK         0.0831 
    111 H111      -52.6826  -24.6750   14.6036 H         1 UNK         0.3133 
    112 H112      -51.6349  -23.3395   16.3378 H         1 UNK         0.0566 
    113 H113      -50.4808  -23.4770   18.5301 H         1 UNK         0.0814 
    114 H114      -52.2176  -23.3340   18.7488 H         1 UNK         0.0814 
    115 H115      -51.4359  -24.8913   18.9732 H         1 UNK         0.0814 
    116 H116      -49.9233  -24.5625   15.7027 H         1 UNK         0.3091 
    117 H117      -48.3037  -27.3271   16.7454 H         1 UNK         0.0702 
    118 H118      -49.6316  -28.9880   15.6461 H         1 UNK         0.0785 
    119 H119      -50.1492  -27.8741   14.3828 H         1 UNK         0.0785 
    120 H120      -48.4839  -28.4539   14.4357 H         1 UNK         0.0785 
    121 H121      -48.3671  -25.9786   14.1529 H         1 UNK         0.2998 
    122 H122      -46.2143  -23.3427   15.2333 H         1 UNK         0.0697 
    123 H123      -45.8129  -25.6823   13.2921 H         1 UNK         0.0825 
    124 H124      -44.7379  -25.2654   14.6179 H         1 UNK         0.0825 
    125 H125      -44.9303  -24.1548   13.2724 H         1 UNK         0.0825 
    126 H126      -47.3090  -23.7034   12.7056 H         1 UNK         0.3029 
    127 H127      -50.0369  -21.4569   13.2220 H         1 UNK         0.0897 
    128 H128      -47.7510  -22.1491   11.3003 H         1 UNK         0.0792 
    129 H129      -47.7313  -20.7999   12.4321 H         1 UNK         0.0792 
    130 H130      -48.9224  -20.8485   11.1445 H         1 UNK         0.0792 
    131 H131      -49.7940  -23.3886   11.0892 H         1 UNK         0.3086 
    132 H132      -53.1455  -24.5628   11.6576 H         1 UNK         0.0583 
    133 H133      -51.9299  -22.4284   10.1129 H         1 UNK         0.1020 
    134 H134      -51.7642  -23.8408    9.1352 H         1 UNK         0.1020 
    135 H135      -54.9832  -23.4860    7.2744 H         1 UNK         0.0694 
    136 H136      -53.2670  -23.1646    7.2087 H         1 UNK         0.0694 
    137 H137      -50.8854  -25.5926   10.1445 H         1 UNK         0.2989 
    138 H138      -50.2732  -28.3931   12.1344 H         1 UNK         0.1055 
    139 H139      -52.2273  -29.1747   10.7799 H         1 UNK         0.0806 
    140 H140      -50.7050  -29.6496   10.0421 H         1 UNK         0.0806 
    141 H141      -51.6202  -28.2924    9.3885 H         1 UNK         0.0806 
    142 H142      -49.2630  -27.5293    9.5993 H         1 UNK         0.3061 
    143 H143      -46.9106  -25.1482   10.8041 H         1 UNK         0.0734 
    144 H144      -45.2848  -26.6738    9.6795 H         1 UNK         0.0832 
    145 H145      -45.7344  -27.2734   11.2684 H         1 UNK         0.0832 
    146 H146      -46.4234  -28.0116    9.8319 H         1 UNK         0.0832 
    147 H147      -47.3058  -26.2379    8.2097 H         1 UNK         0.3156 
    148 H148      -49.9126  -24.9399    7.0947 H         1 UNK         0.0589 
    149 H149      -48.2839  -22.3502    7.1280 H         1 UNK         0.0808 
    150 H150      -49.4812  -22.7741    5.9045 H         1 UNK         0.0808 
    151 H151      -49.9728  -22.5312    7.5708 H         1 UNK         0.0808 
    152 H152      -48.4571  -25.8140    5.7236 H         1 UNK         0.3098 
    153 H153      -46.1948  -25.2864    4.0382 H         1 UNK         0.0720 
    154 H154      -44.0160  -26.4238    4.5573 H         1 UNK         0.0791 
    155 H155      -44.2753  -26.1288    6.2761 H         1 UNK         0.0791 
    156 H156      -44.0615  -24.7802    5.1702 H         1 UNK         0.0791 
    157 H157      -46.9435  -27.3774    4.0872 H         1 UNK         0.3028 
@<TRIPOS>BOND
     1    1    2 1    
     2    1   82 1    
     3    1   83 1    
     4    1   84 1    
     5    2    3 2    
     6    2    4 am   BACKBONE|DICT|INTERRES
     7    4    5 1    
     8    4   85 1    
     9    5    6 1    
    10    5   80 1    
    11    5   86 1    
    12    6    7 1    
    13    6   87 1    
    14    6   88 1    
    15    7    8 1    
    16    8    9 1    
    17    8   89 1    
    18    8   90 1    
    19    9   10 ar   
    20    9   14 ar   
    21   10   11 ar   
    22   10   91 1    
    23   11   12 ar   
    24   11   58 1    
    25   12   13 ar   
    26   12   92 1    
    27   13   14 ar   
    28   13   15 1    
    29   14   93 1    
    30   15   16 1    
    31   15   94 1    
    32   15   95 1    
    33   16   17 1    
    34   17   18 1    
    35   17   96 1    
    36   17   97 1    
    37   18   19 1    
    38   18   22 1    
    39   18   98 1    
    40   19   20 am   BACKBONE|DICT|INTERRES
    41   19   21 2    
    42   20   99 1    
    43   20  100 1    
    44   22   23 am   BACKBONE|DICT|INTERRES
    45   22  101 1    
    46   23   24 2    
    47   23   25 1    
    48   25   26 1    
    49   25   27 1    
    50   25  102 1    
    51   26  103 1    
    52   26  104 1    
    53   26  105 1    
    54   27   28 am   BACKBONE|DICT|INTERRES
    55   27  106 1    
    56   28   29 2    
    57   28   30 1    
    58   30   31 1    
    59   30   32 1    
    60   30  107 1    
    61   31  108 1    
    62   31  109 1    
    63   31  110 1    
    64   32   33 am   BACKBONE|DICT|INTERRES
    65   32  111 1    
    66   33   34 2    
    67   33   35 1    
    68   35   36 1    
    69   35   37 1    
    70   35  112 1    
    71   36  113 1    
    72   36  114 1    
    73   36  115 1    
    74   37   38 am   BACKBONE|DICT|INTERRES
    75   37  116 1    
    76   38   39 2    
    77   38   40 1    
    78   40   41 1    
    79   40   42 1    
    80   40  117 1    
    81   41  118 1    
    82   41  119 1    
    83   41  120 1    
    84   42   43 am   BACKBONE|DICT|INTERRES
    85   42  121 1    
    86   43   44 2    
    87   43   45 1    
    88   45   46 1    
    89   45   47 1    
    90   45  122 1    
    91   46  123 1    
    92   46  124 1    
    93   46  125 1    
    94   47   48 am   BACKBONE|DICT|INTERRES
    95   47  126 1    
    96   48   49 2    
    97   48   50 1    
    98   50   51 1    
    99   50   52 1    
   100   50  127 1    
   101   51  128 1    
   102   51  129 1    
   103   51  130 1    
   104   52   53 am   BACKBONE|DICT|INTERRES
   105   52  131 1    
   106   53   54 2    
   107   53   55 1    
   108   55   56 1    
   109   55   59 1    
   110   55  132 1    
   111   56   57 1    
   112   56  133 1    
   113   56  134 1    
   114   57   58 1    
   115   58  135 1    
   116   58  136 1    
   117   59   60 am   BACKBONE|DICT|INTERRES
   118   59  137 1    
   119   60   61 2    
   120   60   62 1    
   121   62   63 1    
   122   62   64 1    
   123   62  138 1    
   124   63  139 1    
   125   63  140 1    
   126   63  141 1    
   127   64   65 am   BACKBONE|DICT|INTERRES
   128   64  142 1    
   129   65   66 2    
   130   65   67 1    
   131   67   68 1    
   132   67   69 1    
   133   67  143 1    
   134   68  144 1    
   135   68  145 1    
   136   68  146 1    
   137   69   70 am   BACKBONE|DICT|INTERRES
   138   69  147 1    
   139   70   71 2    
   140   70   72 1    
   141   72   73 1    
   142   72   74 1    
   143   72  148 1    
   144   73  149 1    
   145   73  150 1    
   146   73  151 1    
   147   74   75 am   BACKBONE|DICT|INTERRES
   148   74  152 1    
   149   75   76 2    
   150   75   77 1    
   151   77   78 1    
   152   77   79 1    
   153   77  153 1    
   154   78  154 1    
   155   78  155 1    
   156   78  156 1    
   157   79   80 am   BACKBONE|DICT|INTERRES
   158   79  157 1    
   159   80   81 2    
@<TRIPOS>SUBSTRUCTURE
     1 UNK         1 GROUP             0       ****    0 ROOT    
