@<TRIPOS>MOLECULE
3R207
157   159    1
SMALL
USER_CHARGES


@<TRIPOS>ATOM
      1 CA        -44.8398  -30.4345    7.8158 C.3       0 UNK        -0.1975 
      2 C         -46.0026  -30.2197    6.8584 C.2       0 UNK         0.4852 
      3 O         -45.8603  -30.4608    5.6593 O.2       0 UNK        -0.5216 
      4 N         -47.1506  -29.7693    7.3826 N.am      1 UNK        -0.4461 
      5 CA        -48.3846  -29.5009    6.6315 C.3       1 UNK         0.0864 
      6 C6        -49.5638  -29.1492    7.5687 C.3       14 UNK        -0.0898 
      7 S7        -49.9406  -30.3987    8.8414 S.3       14 UNK        -0.2598 
      8 C8        -50.6135  -29.3534   10.1794 C.3       14 UNK         0.0286 
      9 C9        -51.8677  -28.6004    9.7500 C.ar      14 UNK        -0.0844 
     10 C10       -51.7619  -27.3338    9.1688 C.ar      14 UNK        -0.0881 
     11 C11       -52.8974  -26.6372    8.7374 C.ar      14 UNK        -0.0643 
     12 C12       -54.1559  -27.2113    8.9474 C.ar      14 UNK        -0.0930 
     13 C13       -54.2826  -28.4596    9.5666 C.ar      14 UNK        -0.0827 
     14 C14       -53.1329  -29.1592    9.9442 C.ar      14 UNK        -0.1249 
     15 C15       -55.6613  -29.0302    9.8637 C.3       14 UNK         0.0141 
     16 S16       -56.3147  -28.3063   11.3982 S.3       14 UNK        -0.2313 
     17 C17       -57.8887  -29.2040   11.6033 C.3       14 UNK        -0.0915 
     18 CA        -58.5699  -28.8700   12.9598 C.3       13 UNK         0.0968 
     19 C         -59.9679  -29.5395   13.0822 C.2       13 UNK         0.5732 
     20 N         -60.2356  -30.3437   14.1044 N.am      13 UNK        -0.7310 
     21 O         -60.8341  -29.3130   12.2404 O.2       13 UNK        -0.5035 
     22 N         -57.6674  -29.1602   14.0826 N.am      13 UNK        -0.4233 
     23 C         -57.5395  -28.4504   15.2065 C.2       13 UNK         0.4989 
     24 O         -58.2586  -27.4943   15.4982 O.2       13 UNK        -0.4996 
     25 CA        -56.3861  -28.8414   16.1552 C.3       12 UNK         0.0216 
     26 CB        -56.8535  -29.8649   17.2087 C.3       12 UNK        -0.1964 
     27 N         -55.1545  -29.2813   15.4723 N.am      12 UNK        -0.4276 
     28 C         -54.9573  -30.3790   14.7212 C.2       12 UNK         0.5020 
     29 O         -55.8171  -31.2425   14.5380 O.2       12 UNK        -0.5489 
     30 CA        -53.6168  -30.4727   13.9784 C.3       11 UNK         0.0294 
     31 CB        -53.6210  -31.5268   12.8553 C.3       11 UNK        -0.2019 
     32 N         -53.3020  -29.1582   13.4236 N.am      11 UNK        -0.4493 
     33 C         -52.1153  -28.5540   13.5182 C.2       11 UNK         0.4932 
     34 O         -51.0915  -29.1183   13.9074 O.2       11 UNK        -0.5029 
     35 CA        -52.0603  -27.0542   13.1661 C.3       10 UNK         0.0280 
     36 CB        -53.3962  -26.4448   12.6861 C.3       10 UNK        -0.1976 
     37 N         -51.5388  -26.2737   14.2914 N.am      10 UNK        -0.4242 
     38 C         -52.0328  -26.2335   15.5396 C.2       10 UNK         0.5072 
     39 O         -53.0418  -26.8527   15.8928 O.2       10 UNK        -0.5224 
     40 CA        -51.3173  -25.3326   16.5696 C.3       9 UNK         0.0343 
     41 CB        -51.1392  -26.0434   17.9281 C.3       9 UNK        -0.2003 
     42 N         -50.0501  -24.7362   16.1194 N.am      9 UNK        -0.4272 
     43 C         -48.8937  -25.3465   15.8230 C.2       9 UNK         0.4988 
     44 O         -48.7370  -26.5670   15.8649 O.2       9 UNK        -0.5108 
     45 CA        -47.7199  -24.4315   15.4057 C.3       8 UNK         0.0248 
     46 CB        -46.4691  -25.2307   14.9939 C.3       8 UNK        -0.2001 
     47 N         -48.0631  -23.5106   14.3169 N.am      8 UNK        -0.4140 
     48 C         -48.8384  -22.4216   14.4144 C.2       8 UNK         0.5028 
     49 O         -49.3572  -22.0465   15.4670 O.2       8 UNK        -0.5428 
     50 CA        -49.1239  -21.6500   13.1157 C.3       7 UNK         0.0264 
     51 CB        -47.9944  -20.6539   12.8072 C.3       7 UNK        -0.1988 
     52 N         -49.3296  -22.5420   11.9716 N.am      7 UNK        -0.4454 
     53 C         -50.3990  -23.3387   11.8166 C.2       7 UNK         0.5027 
     54 O         -51.3450  -23.3698   12.6033 O.2       7 UNK        -0.5083 
     55 CA        -50.4125  -24.2603   10.5809 C.3       6 UNK         0.0844 
     56 C56       -51.0532  -23.5281    9.3770 C.3       14 UNK        -0.0967 
     57 S57       -51.1547  -24.5440    7.8642 S.3       14 UNK        -0.2604 
     58 C58       -52.8213  -25.2889    8.0134 C.3       14 UNK         0.0134 
     59 N         -49.0724  -24.7800   10.2910 N.am      6 UNK        -0.4116 
     60 C         -48.4425  -25.6989   11.0400 C.2       5 UNK         0.5034 
     61 O         -48.9464  -26.2505   12.0157 O.2       5 UNK        -0.5045 
     62 CA        -46.9877  -26.0359   10.6686 C.3       5 UNK         0.0224 
     63 CB        -46.9440  -27.1918    9.6609 C.3       5 UNK        -0.1978 
     64 N         -46.2520  -24.8859   10.1362 N.am      5 UNK        -0.4737 
     65 C         -46.0045  -23.7723   10.8417 C.2       4 UNK         0.5027 
     66 O         -46.3122  -23.6429   12.0258 O.2       4 UNK        -0.5211 
     67 CA        -45.3574  -22.5822   10.1139 C.3       4 UNK         0.0297 
     68 CB        -43.8599  -22.5048   10.4487 C.3       4 UNK        -0.1993 
     69 N         -45.5276  -22.5839    8.6585 N.am      4 UNK        -0.4486 
     70 C         -46.6919  -22.5840    7.9934 C.2       3 UNK         0.4961 
     71 O         -47.7951  -22.6259    8.5418 O.2       3 UNK        -0.5105 
     72 CA        -46.6121  -22.5513    6.4532 C.3       3 UNK         0.0299 
     73 CB        -45.2089  -22.2017    5.9055 C.3       3 UNK        -0.1972 
     74 N         -47.0899  -23.7866    5.8206 N.am      3 UNK        -0.4305 
     75 C         -46.7273  -25.0457    6.1061 C.2       2 UNK         0.5006 
     76 O         -45.9857  -25.3718    7.0383 O.2       2 UNK        -0.5106 
     77 CA        -47.2539  -26.1247    5.1539 C.3       2 UNK         0.0296 
     78 CB        -46.2985  -26.3180    3.9622 C.3       2 UNK        -0.2002 
     79 N         -47.3904  -27.3733    5.8936 N.am      2 UNK        -0.4032 
     80 C         -48.2414  -28.3633    5.5957 C.2       1 UNK         0.5000 
     81 O         -48.9343  -28.3858    4.5764 O.2       1 UNK        -0.5238 
     82 H82       -43.9965  -29.8075    7.5272 H         1 UNK         0.0889 
     83 H83       -44.5171  -31.4749    7.7864 H         1 UNK         0.0889 
     84 H84       -45.1063  -30.1914    8.8442 H         1 UNK         0.0889 
     85 H85       -47.2208  -29.6485    8.3821 H         1 UNK         0.3028 
     86 H86       -48.6389  -30.4102    6.0826 H         1 UNK         0.0864 
     87 H87       -49.3436  -28.2082    8.0701 H         1 UNK         0.0720 
     88 H88       -50.4781  -28.9864    6.9934 H         1 UNK         0.0720 
     89 H89       -49.8503  -28.6517   10.5190 H         1 UNK         0.0814 
     90 H90       -50.8387  -29.9877   11.0381 H         1 UNK         0.0814 
     91 H91       -50.7823  -26.9026    9.0408 H         1 UNK         0.1469 
     92 H92       -55.0454  -26.6775    8.6413 H         1 UNK         0.1381 
     93 H93       -53.2214  -30.1308   10.4073 H         1 UNK         0.1206 
     94 H94       -56.3430  -28.8192    9.0385 H         1 UNK         0.0813 
     95 H95       -55.6130  -30.1158    9.9623 H         1 UNK         0.0813 
     96 H96       -58.5387  -28.9404   10.7669 H         1 UNK         0.0638 
     97 H97       -57.6955  -30.2756   11.5261 H         1 UNK         0.0638 
     98 H98       -58.7686  -27.7967   12.9607 H         1 UNK         0.0568 
     99 H99       -61.1476  -30.7665   14.1760 H         1 UNK         0.3450 
    100 H100      -59.5330  -30.5317   14.8011 H         1 UNK         0.3450 
    101 H101      -57.0659  -29.9729   13.9783 H         1 UNK         0.2987 
    102 H102      -56.1075  -27.9306   16.6880 H         1 UNK         0.0766 
    103 H103      -56.0589  -30.0922   17.9192 H         1 UNK         0.0798 
    104 H104      -57.1772  -30.8027   16.7566 H         1 UNK         0.0798 
    105 H105      -57.6969  -29.4750   17.7801 H         1 UNK         0.0798 
    106 H106      -54.3867  -28.6188   15.5330 H         1 UNK         0.3198 
    107 H107      -52.8708  -30.7606   14.7225 H         1 UNK         0.0843 
    108 H108      -53.8096  -32.5232   13.2565 H         1 UNK         0.0831 
    109 H109      -52.6603  -31.5626   12.3417 H         1 UNK         0.0831 
    110 H110      -54.3956  -31.3215   12.1156 H         1 UNK         0.0831 
    111 H111      -54.0872  -28.6258   13.0714 H         1 UNK         0.3133 
    112 H112      -51.3474  -26.9613   12.3494 H         1 UNK         0.0566 
    113 H113      -53.2801  -25.3859   12.4556 H         1 UNK         0.0814 
    114 H114      -53.7361  -26.9234   11.7713 H         1 UNK         0.0814 
    115 H115      -54.1903  -26.5322   13.4284 H         1 UNK         0.0814 
    116 H116      -50.6812  -25.7722   14.1086 H         1 UNK         0.3091 
    117 H117      -51.9903  -24.4895   16.7312 H         1 UNK         0.0702 
    118 H118      -50.6688  -25.3880   18.6610 H         1 UNK         0.0785 
    119 H119      -50.5280  -26.9418   17.8379 H         1 UNK         0.0785 
    120 H120      -52.1018  -26.3485   18.3405 H         1 UNK         0.0785 
    121 H121      -50.0539  -23.7225   16.0227 H         1 UNK         0.2998 
    122 H122      -47.4572  -23.8361   16.2824 H         1 UNK         0.0697 
    123 H123      -46.6652  -25.8580   14.1233 H         1 UNK         0.0825 
    124 H124      -46.1349  -25.8838   15.8011 H         1 UNK         0.0825 
    125 H125      -45.6379  -24.5695   14.7479 H         1 UNK         0.0825 
    126 H126      -47.6298  -23.7041   13.4171 H         1 UNK         0.3029 
    127 H127      -50.0439  -21.0805   13.2666 H         1 UNK         0.0897 
    128 H128      -48.2026  -20.0833   11.9019 H         1 UNK         0.0792 
    129 H129      -47.8786  -19.9371   13.6214 H         1 UNK         0.0792 
    130 H130      -47.0336  -21.1522   12.6779 H         1 UNK         0.0792 
    131 H131      -48.5888  -22.5871   11.2861 H         1 UNK         0.3086 
    132 H132      -51.0532  -25.1086   10.8274 H         1 UNK         0.0583 
    133 H133      -52.0524  -23.1715    9.6346 H         1 UNK         0.1020 
    134 H134      -50.4779  -22.6338    9.1289 H         1 UNK         0.1020 
    135 H135      -53.4996  -24.5801    8.4900 H         1 UNK         0.0694 
    136 H136      -53.2023  -25.4358    7.0020 H         1 UNK         0.0694 
    137 H137      -48.5770  -24.3369    9.5250 H         1 UNK         0.2989 
    138 H138      -46.4832  -26.3584   11.5823 H         1 UNK         0.1055 
    139 H139      -47.4229  -28.0815   10.0717 H         1 UNK         0.0806 
    140 H140      -45.9181  -27.4598    9.4070 H         1 UNK         0.0806 
    141 H141      -47.4638  -26.9297    8.7407 H         1 UNK         0.0806 
    142 H142      -45.9886  -24.9156    9.1564 H         1 UNK         0.3061 
    143 H143      -45.8384  -21.6780   10.4920 H         1 UNK         0.0734 
    144 H144      -43.7028  -22.4726   11.5281 H         1 UNK         0.0832 
    145 H145      -43.3158  -23.3695   10.0667 H         1 UNK         0.0832 
    146 H146      -43.4036  -21.6069   10.0316 H         1 UNK         0.0832 
    147 H147      -44.6802  -22.5854    8.1096 H         1 UNK         0.3156 
    148 H148      -47.2933  -21.7598    6.1373 H         1 UNK         0.0589 
    149 H149      -44.4752  -22.9798    6.1205 H         1 UNK         0.0808 
    150 H150      -45.2365  -22.0738    4.8231 H         1 UNK         0.0808 
    151 H151      -44.8399  -21.2634    6.3225 H         1 UNK         0.0808 
    152 H152      -47.7384  -23.6488    5.0579 H         1 UNK         0.3098 
    153 H153      -48.2365  -25.8163    4.7895 H         1 UNK         0.0720 
    154 H154      -46.1717  -25.3891    3.4047 H         1 UNK         0.0791 
    155 H155      -46.6790  -27.0644    3.2646 H         1 UNK         0.0791 
    156 H156      -45.3096  -26.6413    4.2902 H         1 UNK         0.0791 
    157 H157      -46.8463  -27.4152    6.7453 H         1 UNK         0.3028 
@<TRIPOS>BOND
     1    1    2 1    
     2    1   82 1    
     3    1   83 1    
     4    1   84 1    
     5    2    3 2    
     6    2    4 am   BACKBONE|DICT|INTERRES
     7    4    5 1    
     8    4   85 1    
     9    5    6 1    
    10    5   80 1    
    11    5   86 1    
    12    6    7 1    
    13    6   87 1    
    14    6   88 1    
    15    7    8 1    
    16    8    9 1    
    17    8   89 1    
    18    8   90 1    
    19    9   10 ar   
    20    9   14 ar   
    21   10   11 ar   
    22   10   91 1    
    23   11   12 ar   
    24   11   58 1    
    25   12   13 ar   
    26   12   92 1    
    27   13   14 ar   
    28   13   15 1    
    29   14   93 1    
    30   15   16 1    
    31   15   94 1    
    32   15   95 1    
    33   16   17 1    
    34   17   18 1    
    35   17   96 1    
    36   17   97 1    
    37   18   19 1    
    38   18   22 1    
    39   18   98 1    
    40   19   20 am   BACKBONE|DICT|INTERRES
    41   19   21 2    
    42   20   99 1    
    43   20  100 1    
    44   22   23 am   BACKBONE|DICT|INTERRES
    45   22  101 1    
    46   23   24 2    
    47   23   25 1    
    48   25   26 1    
    49   25   27 1    
    50   25  102 1    
    51   26  103 1    
    52   26  104 1    
    53   26  105 1    
    54   27   28 am   BACKBONE|DICT|INTERRES
    55   27  106 1    
    56   28   29 2    
    57   28   30 1    
    58   30   31 1    
    59   30   32 1    
    60   30  107 1    
    61   31  108 1    
    62   31  109 1    
    63   31  110 1    
    64   32   33 am   BACKBONE|DICT|INTERRES
    65   32  111 1    
    66   33   34 2    
    67   33   35 1    
    68   35   36 1    
    69   35   37 1    
    70   35  112 1    
    71   36  113 1    
    72   36  114 1    
    73   36  115 1    
    74   37   38 am   BACKBONE|DICT|INTERRES
    75   37  116 1    
    76   38   39 2    
    77   38   40 1    
    78   40   41 1    
    79   40   42 1    
    80   40  117 1    
    81   41  118 1    
    82   41  119 1    
    83   41  120 1    
    84   42   43 am   BACKBONE|DICT|INTERRES
    85   42  121 1    
    86   43   44 2    
    87   43   45 1    
    88   45   46 1    
    89   45   47 1    
    90   45  122 1    
    91   46  123 1    
    92   46  124 1    
    93   46  125 1    
    94   47   48 am   BACKBONE|DICT|INTERRES
    95   47  126 1    
    96   48   49 2    
    97   48   50 1    
    98   50   51 1    
    99   50   52 1    
   100   50  127 1    
   101   51  128 1    
   102   51  129 1    
   103   51  130 1    
   104   52   53 am   BACKBONE|DICT|INTERRES
   105   52  131 1    
   106   53   54 2    
   107   53   55 1    
   108   55   56 1    
   109   55   59 1    
   110   55  132 1    
   111   56   57 1    
   112   56  133 1    
   113   56  134 1    
   114   57   58 1    
   115   58  135 1    
   116   58  136 1    
   117   59   60 am   BACKBONE|DICT|INTERRES
   118   59  137 1    
   119   60   61 2    
   120   60   62 1    
   121   62   63 1    
   122   62   64 1    
   123   62  138 1    
   124   63  139 1    
   125   63  140 1    
   126   63  141 1    
   127   64   65 am   BACKBONE|DICT|INTERRES
   128   64  142 1    
   129   65   66 2    
   130   65   67 1    
   131   67   68 1    
   132   67   69 1    
   133   67  143 1    
   134   68  144 1    
   135   68  145 1    
   136   68  146 1    
   137   69   70 am   BACKBONE|DICT|INTERRES
   138   69  147 1    
   139   70   71 2    
   140   70   72 1    
   141   72   73 1    
   142   72   74 1    
   143   72  148 1    
   144   73  149 1    
   145   73  150 1    
   146   73  151 1    
   147   74   75 am   BACKBONE|DICT|INTERRES
   148   74  152 1    
   149   75   76 2    
   150   75   77 1    
   151   77   78 1    
   152   77   79 1    
   153   77  153 1    
   154   78  154 1    
   155   78  155 1    
   156   78  156 1    
   157   79   80 am   BACKBONE|DICT|INTERRES
   158   79  157 1    
   159   80   81 2    
@<TRIPOS>SUBSTRUCTURE
     1 UNK         1 GROUP             0       ****    0 ROOT    
