@<TRIPOS>MOLECULE
3R207
157   159    1
SMALL
USER_CHARGES


@<TRIPOS>ATOM
      1 CA        -51.0494  -30.7660    7.3970 C.3       0 UNK        -0.1975 
      2 C         -50.5049  -30.2262    6.0815 C.2       0 UNK         0.4852 
      3 O         -50.7006  -30.8454    5.0352 O.2       0 UNK        -0.5216 
      4 N         -49.8209  -29.0799    6.1299 N.am      1 UNK        -0.4461 
      5 CA        -49.1719  -28.4129    5.0040 C.3       1 UNK         0.0864 
      6 C6        -50.1765  -27.6763    4.0699 C.3       14 UNK        -0.0898 
      7 S7        -50.9521  -26.1803    4.7837 S.3       14 UNK        -0.2598 
      8 C8        -52.5286  -26.8268    5.4190 C.3       14 UNK         0.0286 
      9 C9        -52.7768  -26.3265    6.8323 C.ar      14 UNK        -0.0844 
     10 C10       -53.3760  -25.0815    7.0488 C.ar      14 UNK        -0.0881 
     11 C11       -53.5940  -24.6138    8.3493 C.ar      14 UNK        -0.0643 
     12 C12       -53.2397  -25.4229    9.4338 C.ar      14 UNK        -0.0930 
     13 C13       -52.5969  -26.6452    9.2296 C.ar      14 UNK        -0.0827 
     14 C14       -52.3801  -27.0979    7.9272 C.ar      14 UNK        -0.1249 
     15 C15       -52.0676  -27.4395   10.4114 C.3       14 UNK         0.0141 
     16 S16       -53.1839  -28.7838   10.8972 S.3       14 UNK        -0.2313 
     17 C17       -52.0733  -29.6940   12.0202 C.3       14 UNK        -0.0915 
     18 CA        -52.8353  -30.5767   13.0409 C.3       13 UNK         0.0968 
     19 C         -51.8749  -31.5513   13.7872 C.2       13 UNK         0.5732 
     20 N         -51.8689  -31.6225   15.1136 N.am      13 UNK        -0.7310 
     21 O         -51.1219  -32.2788   13.1440 O.2       13 UNK        -0.5035 
     22 N         -53.6787  -29.7689   13.9356 N.am      13 UNK        -0.4233 
     23 C         -54.8257  -30.2005   14.4762 C.2       13 UNK         0.4989 
     24 O         -55.3419  -31.2866   14.2043 O.2       13 UNK        -0.4996 
     25 CA        -55.4988  -29.2693   15.5048 C.3       12 UNK         0.0216 
     26 CB        -56.5811  -29.9821   16.3436 C.3       12 UNK        -0.1964 
     27 N         -54.5421  -28.5837   16.3825 N.am      12 UNK        -0.4276 
     28 C         -53.6127  -29.1440   17.1753 C.2       12 UNK         0.5020 
     29 O         -53.4480  -30.3609   17.2706 O.2       12 UNK        -0.5489 
     30 CA        -52.6790  -28.2083   17.9680 C.3       11 UNK         0.0294 
     31 CB        -51.2026  -28.5505   17.6951 C.3       11 UNK        -0.2019 
     32 N         -52.9002  -26.7995   17.6402 N.am      11 UNK        -0.4493 
     33 C         -53.7006  -25.9617   18.3135 C.2       11 UNK         0.4932 
     34 O         -54.2833  -26.2593   19.3559 O.2       11 UNK        -0.5029 
     35 CA        -53.9109  -24.5603   17.7069 C.3       10 UNK         0.0280 
     36 CB        -52.9774  -23.5405   18.3782 C.3       10 UNK        -0.1976 
     37 N         -53.7067  -24.5136   16.2552 N.am      10 UNK        -0.4242 
     38 C         -54.4554  -25.1593   15.3474 C.2       10 UNK         0.5072 
     39 O         -55.4468  -25.8302   15.6315 O.2       10 UNK        -0.5224 
     40 CA        -53.9660  -25.1149   13.8893 C.3       9 UNK         0.0343 
     41 CB        -54.5564  -23.8908   13.1722 C.3       9 UNK        -0.2003 
     42 N         -52.4999  -25.1078   13.7962 N.am      9 UNK        -0.4272 
     43 C         -51.7198  -26.1232   14.2065 C.2       9 UNK         0.4988 
     44 O         -52.1780  -27.1928   14.6133 O.2       9 UNK        -0.5108 
     45 CA        -50.1919  -25.9246   14.2117 C.3       8 UNK         0.0248 
     46 CB        -49.4813  -27.0319   13.4190 C.3       8 UNK        -0.2001 
     47 N         -49.7747  -24.6212   13.6916 N.am      8 UNK        -0.4140 
     48 C         -49.6691  -23.5016   14.4247 C.2       8 UNK         0.5028 
     49 O         -49.9057  -23.4539   15.6320 O.2       8 UNK        -0.5428 
     50 CA        -49.2793  -22.2065   13.6818 C.3       7 UNK         0.0264 
     51 CB        -47.7522  -22.0338   13.6679 C.3       7 UNK        -0.1988 
     52 N         -49.7822  -22.1706   12.3058 N.am      7 UNK        -0.4454 
     53 C         -51.0825  -22.1856   11.9779 C.2       7 UNK         0.5027 
     54 O         -51.9801  -22.0312   12.8049 O.2       7 UNK        -0.5083 
     55 CA        -51.4640  -22.5317   10.5223 C.3       6 UNK         0.0844 
     56 C56       -52.3473  -21.4460    9.8646 C.3       14 UNK        -0.0967 
     57 S57       -52.9691  -21.9125    8.2089 S.3       14 UNK        -0.2604 
     58 C58       -54.1876  -23.2271    8.5692 C.3       14 UNK         0.0134 
     59 N         -50.3339  -22.9616    9.6858 N.am      6 UNK        -0.4116 
     60 C         -49.6748  -24.1173    9.8529 C.2       5 UNK         0.5034 
     61 O         -49.9478  -24.9114   10.7559 O.2       5 UNK        -0.5045 
     62 CA        -48.5220  -24.4008    8.8685 C.3       5 UNK         0.0224 
     63 CB        -47.4638  -23.2767    8.8774 C.3       5 UNK        -0.1978 
     64 N         -47.8795  -25.7056    9.0736 N.am      5 UNK        -0.4737 
     65 C         -47.2168  -26.1551   10.1522 C.2       4 UNK         0.5027 
     66 O         -46.9747  -25.4851   11.1569 O.2       4 UNK        -0.5211 
     67 CA        -46.7170  -27.6052   10.0789 C.3       4 UNK         0.0297 
     68 CB        -47.8892  -28.5997   10.1642 C.3       4 UNK        -0.1993 
     69 N         -45.9882  -27.8251    8.8301 N.am      4 UNK        -0.4486 
     70 C         -44.6548  -27.8944    8.7184 C.2       3 UNK         0.4961 
     71 O         -43.8810  -27.8481    9.6755 O.2       3 UNK        -0.5105 
     72 CA        -44.0728  -28.0495    7.2989 C.3       3 UNK         0.0299 
     73 CB        -43.7740  -29.5281    7.0021 C.3       3 UNK        -0.1972 
     74 N         -44.9445  -27.5157    6.2490 N.am      3 UNK        -0.4305 
     75 C         -45.2164  -26.2150    6.0713 C.2       2 UNK         0.5006 
     76 O         -44.6803  -25.3113    6.7132 O.2       2 UNK        -0.5106 
     77 CA        -46.2775  -25.8514    5.0149 C.3       2 UNK         0.0296 
     78 CB        -45.5997  -25.3923    3.7134 C.3       2 UNK        -0.2002 
     79 N         -47.2571  -26.9024    4.7013 N.am      2 UNK        -0.4032 
     80 C         -48.0814  -27.4906    5.5807 C.2       1 UNK         0.5000 
     81 O         -48.0109  -27.3237    6.8039 O.2       1 UNK        -0.5238 
     82 H82       -50.7490  -31.8049    7.5298 H         1 UNK         0.0889 
     83 H83       -52.1383  -30.7230    7.3983 H         1 UNK         0.0889 
     84 H84       -50.6855  -30.1992    8.2540 H         1 UNK         0.0889 
     85 H85       -49.6336  -28.6178    7.0111 H         1 UNK         0.3028 
     86 H86       -48.6557  -29.1787    4.4209 H         1 UNK         0.0864 
     87 H87       -50.9527  -28.3638    3.7312 H         1 UNK         0.0720 
     88 H88       -49.6638  -27.3664    3.1581 H         1 UNK         0.0720 
     89 H89       -53.3385  -26.5143    4.7583 H         1 UNK         0.0814 
     90 H90       -52.5302  -27.9175    5.4086 H         1 UNK         0.0814 
     91 H91       -53.6518  -24.4642    6.2046 H         1 UNK         0.1469 
     92 H92       -53.4219  -25.0909   10.4439 H         1 UNK         0.1381 
     93 H93       -51.8887  -28.0453    7.7681 H         1 UNK         0.1206 
     94 H94       -51.9145  -26.7807   11.2662 H         1 UNK         0.0813 
     95 H95       -51.0871  -27.8472   10.1607 H         1 UNK         0.0813 
     96 H96       -51.4131  -30.2982   11.3951 H         1 UNK         0.0638 
     97 H97       -51.4344  -28.9866   12.5478 H         1 UNK         0.0638 
     98 H98       -53.4891  -31.2277   12.4577 H         1 UNK         0.0568 
     99 H99       -52.5065  -31.0760   15.6828 H         1 UNK         0.3450 
    100 H100      -51.2394  -32.2693   15.5600 H         1 UNK         0.3450 
    101 H101      -53.2925  -28.8753   14.2224 H         1 UNK         0.2987 
    102 H102      -55.9928  -28.4894   14.9237 H         1 UNK         0.0766 
    103 H103      -57.0590  -29.2935   17.0405 H         1 UNK         0.0798 
    104 H104      -57.3660  -30.3914   15.7063 H         1 UNK         0.0798 
    105 H105      -56.1653  -30.8088   16.9206 H         1 UNK         0.0798 
    106 H106      -54.6008  -27.5716   16.3568 H         1 UNK         0.3198 
    107 H107      -52.8767  -28.3776   19.0285 H         1 UNK         0.0843 
    108 H108      -50.9747  -29.5723   18.0015 H         1 UNK         0.0831 
    109 H109      -50.5329  -27.8927   18.2491 H         1 UNK         0.0831 
    110 H110      -50.9549  -28.4686   16.6362 H         1 UNK         0.0831 
    111 H111      -52.4890  -26.4838   16.7722 H         1 UNK         0.3133 
    112 H112      -54.9432  -24.2666   17.9084 H         1 UNK         0.0566 
    113 H113      -51.9273  -23.7643   18.1840 H         1 UNK         0.0814 
    114 H114      -53.1156  -23.5371   19.4604 H         1 UNK         0.0814 
    115 H115      -53.1754  -22.5280   18.0256 H         1 UNK         0.0814 
    116 H116      -52.9082  -23.9876   15.9282 H         1 UNK         0.3091 
    117 H117      -54.3260  -26.0145   13.3849 H         1 UNK         0.0702 
    118 H118      -55.6450  -23.9523   13.1364 H         1 UNK         0.0785 
    119 H119      -54.2043  -23.8111   12.1456 H         1 UNK         0.0785 
    120 H120      -54.3036  -22.9613   13.6836 H         1 UNK         0.0785 
    121 H121      -52.0656  -24.2476   13.4897 H         1 UNK         0.2998 
    122 H122      -49.8692  -26.0099   15.2514 H         1 UNK         0.0697 
    123 H123      -49.7973  -27.0433   12.3769 H         1 UNK         0.0825 
    124 H124      -49.6900  -28.0149   13.8425 H         1 UNK         0.0825 
    125 H125      -48.3994  -26.8983   13.4351 H         1 UNK         0.0825 
    126 H126      -49.5998  -24.5832   12.6906 H         1 UNK         0.3029 
    127 H127      -49.7188  -21.3672   14.2256 H         1 UNK         0.0897 
    128 H128      -47.4631  -21.0877   13.2099 H         1 UNK         0.0792 
    129 H129      -47.3508  -22.0372   14.6824 H         1 UNK         0.0792 
    130 H130      -47.2593  -22.8384   13.1196 H         1 UNK         0.0792 
    131 H131      -49.1040  -22.3051   11.5705 H         1 UNK         0.3086 
    132 H132      -52.1002  -23.4019   10.6428 H         1 UNK         0.0583 
    133 H133      -53.2072  -21.2127   10.4962 H         1 UNK         0.1020 
    134 H134      -51.7873  -20.5143    9.7670 H         1 UNK         0.1020 
    135 H135      -54.5692  -23.1198    9.5856 H         1 UNK         0.0694 
    136 H136      -55.0456  -23.0989    7.9078 H         1 UNK         0.0694 
    137 H137      -50.0890  -22.3528    8.9187 H         1 UNK         0.2989 
    138 H138      -48.9690  -24.4451    7.8736 H         1 UNK         0.1055 
    139 H139      -46.6386  -23.5104    8.2039 H         1 UNK         0.0806 
    140 H140      -47.0444  -23.1205    9.8719 H         1 UNK         0.0806 
    141 H141      -47.8828  -22.3261    8.5468 H         1 UNK         0.0806 
    142 H142      -48.0064  -26.3562    8.3004 H         1 UNK         0.3061 
    143 H143      -46.0645  -27.7813   10.9369 H         1 UNK         0.0734 
    144 H144      -48.4252  -28.4898   11.1062 H         1 UNK         0.0832 
    145 H145      -48.6101  -28.4558    9.3590 H         1 UNK         0.0832 
    146 H146      -47.5362  -29.6298   10.1150 H         1 UNK         0.0832 
    147 H147      -46.5448  -27.8093    7.9812 H         1 UNK         0.3156 
    148 H148      -43.1305  -27.4984    7.2677 H         1 UNK         0.0589 
    149 H149      -44.6817  -30.1331    7.0057 H         1 UNK         0.0808 
    150 H150      -43.2911  -29.6497    6.0323 H         1 UNK         0.0808 
    151 H151      -43.1009  -29.9474    7.7514 H         1 UNK         0.0808 
    152 H152      -45.4158  -28.1871    5.6609 H         1 UNK         0.3098 
    153 H153      -46.8404  -25.0070    5.4188 H         1 UNK         0.0720 
    154 H154      -45.0529  -26.2057    3.2347 H         1 UNK         0.0791 
    155 H155      -46.3283  -25.0089    2.9987 H         1 UNK         0.0791 
    156 H156      -44.8865  -24.5891    3.9053 H         1 UNK         0.0791 
    157 H157      -47.3779  -27.1115    3.7206 H         1 UNK         0.3028 
@<TRIPOS>BOND
     1    1    2 1    
     2    1   82 1    
     3    1   83 1    
     4    1   84 1    
     5    2    3 2    
     6    2    4 am   BACKBONE|DICT|INTERRES
     7    4    5 1    
     8    4   85 1    
     9    5    6 1    
    10    5   80 1    
    11    5   86 1    
    12    6    7 1    
    13    6   87 1    
    14    6   88 1    
    15    7    8 1    
    16    8    9 1    
    17    8   89 1    
    18    8   90 1    
    19    9   10 ar   
    20    9   14 ar   
    21   10   11 ar   
    22   10   91 1    
    23   11   12 ar   
    24   11   58 1    
    25   12   13 ar   
    26   12   92 1    
    27   13   14 ar   
    28   13   15 1    
    29   14   93 1    
    30   15   16 1    
    31   15   94 1    
    32   15   95 1    
    33   16   17 1    
    34   17   18 1    
    35   17   96 1    
    36   17   97 1    
    37   18   19 1    
    38   18   22 1    
    39   18   98 1    
    40   19   20 am   BACKBONE|DICT|INTERRES
    41   19   21 2    
    42   20   99 1    
    43   20  100 1    
    44   22   23 am   BACKBONE|DICT|INTERRES
    45   22  101 1    
    46   23   24 2    
    47   23   25 1    
    48   25   26 1    
    49   25   27 1    
    50   25  102 1    
    51   26  103 1    
    52   26  104 1    
    53   26  105 1    
    54   27   28 am   BACKBONE|DICT|INTERRES
    55   27  106 1    
    56   28   29 2    
    57   28   30 1    
    58   30   31 1    
    59   30   32 1    
    60   30  107 1    
    61   31  108 1    
    62   31  109 1    
    63   31  110 1    
    64   32   33 am   BACKBONE|DICT|INTERRES
    65   32  111 1    
    66   33   34 2    
    67   33   35 1    
    68   35   36 1    
    69   35   37 1    
    70   35  112 1    
    71   36  113 1    
    72   36  114 1    
    73   36  115 1    
    74   37   38 am   BACKBONE|DICT|INTERRES
    75   37  116 1    
    76   38   39 2    
    77   38   40 1    
    78   40   41 1    
    79   40   42 1    
    80   40  117 1    
    81   41  118 1    
    82   41  119 1    
    83   41  120 1    
    84   42   43 am   BACKBONE|DICT|INTERRES
    85   42  121 1    
    86   43   44 2    
    87   43   45 1    
    88   45   46 1    
    89   45   47 1    
    90   45  122 1    
    91   46  123 1    
    92   46  124 1    
    93   46  125 1    
    94   47   48 am   BACKBONE|DICT|INTERRES
    95   47  126 1    
    96   48   49 2    
    97   48   50 1    
    98   50   51 1    
    99   50   52 1    
   100   50  127 1    
   101   51  128 1    
   102   51  129 1    
   103   51  130 1    
   104   52   53 am   BACKBONE|DICT|INTERRES
   105   52  131 1    
   106   53   54 2    
   107   53   55 1    
   108   55   56 1    
   109   55   59 1    
   110   55  132 1    
   111   56   57 1    
   112   56  133 1    
   113   56  134 1    
   114   57   58 1    
   115   58  135 1    
   116   58  136 1    
   117   59   60 am   BACKBONE|DICT|INTERRES
   118   59  137 1    
   119   60   61 2    
   120   60   62 1    
   121   62   63 1    
   122   62   64 1    
   123   62  138 1    
   124   63  139 1    
   125   63  140 1    
   126   63  141 1    
   127   64   65 am   BACKBONE|DICT|INTERRES
   128   64  142 1    
   129   65   66 2    
   130   65   67 1    
   131   67   68 1    
   132   67   69 1    
   133   67  143 1    
   134   68  144 1    
   135   68  145 1    
   136   68  146 1    
   137   69   70 am   BACKBONE|DICT|INTERRES
   138   69  147 1    
   139   70   71 2    
   140   70   72 1    
   141   72   73 1    
   142   72   74 1    
   143   72  148 1    
   144   73  149 1    
   145   73  150 1    
   146   73  151 1    
   147   74   75 am   BACKBONE|DICT|INTERRES
   148   74  152 1    
   149   75   76 2    
   150   75   77 1    
   151   77   78 1    
   152   77   79 1    
   153   77  153 1    
   154   78  154 1    
   155   78  155 1    
   156   78  156 1    
   157   79   80 am   BACKBONE|DICT|INTERRES
   158   79  157 1    
   159   80   81 2    
@<TRIPOS>SUBSTRUCTURE
     1 UNK         1 GROUP             0       ****    0 ROOT    
