@<TRIPOS>MOLECULE
3R207
157   159    1
SMALL
USER_CHARGES


@<TRIPOS>ATOM
      1 CA        -47.9914  -29.1964    2.0922 C.3       0 UNK        -0.1975 
      2 C         -47.0779  -29.8332    3.1372 C.2       0 UNK         0.4852 
      3 O         -46.0546  -30.4064    2.7674 O.2       0 UNK        -0.5216 
      4 N         -47.3933  -29.7784    4.4402 N.am      1 UNK        -0.4461 
      5 CA        -48.5363  -29.0975    5.0633 C.3       1 UNK         0.0864 
      6 C6        -48.6409  -29.4316    6.5706 C.3       14 UNK        -0.0898 
      7 S7        -49.1247  -31.1579    6.8939 S.3       14 UNK        -0.2598 
      8 C8        -50.9438  -31.0725    6.7884 C.3       14 UNK         0.0286 
      9 C9        -51.5620  -30.1761    7.8544 C.ar      14 UNK        -0.0844 
     10 C10       -51.9598  -28.8739    7.5333 C.ar      14 UNK        -0.0881 
     11 C11       -52.5488  -28.0508    8.4969 C.ar      14 UNK        -0.0643 
     12 C12       -52.7578  -28.5449    9.7854 C.ar      14 UNK        -0.0930 
     13 C13       -52.3763  -29.8479   10.1178 C.ar      14 UNK        -0.0827 
     14 C14       -51.7690  -30.6567    9.1514 C.ar      14 UNK        -0.1249 
     15 C15       -52.6582  -30.3884   11.5100 C.3       14 UNK         0.0141 
     16 S16       -54.2071  -31.3394   11.5067 S.3       14 UNK        -0.2313 
     17 C17       -54.7517  -31.2097   13.2408 C.3       14 UNK        -0.0915 
     18 CA        -55.8469  -30.1172   13.4112 C.3       13 UNK         0.0968 
     19 C         -56.7471  -30.3210   14.6656 C.2       13 UNK         0.5732 
     20 N         -57.3129  -29.2688   15.2471 N.am      13 UNK        -0.7310 
     21 O         -56.9580  -31.4448   15.1158 O.2       13 UNK        -0.5035 
     22 N         -55.2629  -28.7680   13.3805 N.am      13 UNK        -0.4233 
     23 C         -55.4520  -27.8501   12.4268 C.2       13 UNK         0.4989 
     24 O         -56.0718  -28.0554   11.3823 O.2       13 UNK        -0.4996 
     25 CA        -54.8468  -26.4565   12.7069 C.3       12 UNK         0.0216 
     26 CB        -55.4010  -25.3640   11.7695 C.3       12 UNK        -0.1964 
     27 N         -54.9641  -26.0275   14.1101 N.am      12 UNK        -0.4276 
     28 C         -56.0810  -25.9714   14.8565 C.2       12 UNK         0.5020 
     29 O         -57.1874  -26.3346   14.4545 O.2       12 UNK        -0.5489 
     30 CA        -55.9478  -25.4782   16.3095 C.3       11 UNK         0.0294 
     31 CB        -56.6923  -26.4058   17.2870 C.3       11 UNK        -0.2019 
     32 N         -54.5531  -25.3847   16.7388 N.am      11 UNK        -0.4493 
     33 C         -53.8125  -24.2741   16.7697 C.2       11 UNK         0.4932 
     34 O         -54.2234  -23.1648   16.4300 O.2       11 UNK        -0.5029 
     35 CA        -52.3618  -24.4314   17.2520 C.3       10 UNK         0.0280 
     36 CB        -52.2966  -24.6463   18.7767 C.3       10 UNK        -0.1976 
     37 N         -51.5872  -25.4511   16.5290 N.am      10 UNK        -0.4242 
     38 C         -51.7462  -26.7851   16.4980 C.2       10 UNK         0.5072 
     39 O         -52.6571  -27.3757   17.0809 O.2       10 UNK        -0.5224 
     40 CA        -50.7484  -27.6165   15.6652 C.3       9 UNK         0.0343 
     41 CB        -51.4482  -28.2407   14.4462 C.3       9 UNK        -0.2003 
     42 N         -49.5781  -26.8617   15.2105 N.am      9 UNK        -0.4272 
     43 C         -48.5796  -26.4436   16.0016 C.2       9 UNK         0.4988 
     44 O         -48.4841  -26.7326   17.1948 O.2       9 UNK        -0.5108 
     45 CA        -47.5350  -25.5075   15.3682 C.3       8 UNK         0.0248 
     46 CB        -46.3867  -26.3227   14.7538 C.3       8 UNK        -0.2001 
     47 N         -48.0991  -24.5932   14.3653 N.am      8 UNK        -0.4140 
     48 C         -49.0350  -23.6661   14.6254 C.2       8 UNK         0.5028 
     49 O         -49.4989  -23.4664   15.7471 O.2       8 UNK        -0.5428 
     50 CA        -49.5841  -22.8519   13.4429 C.3       7 UNK         0.0264 
     51 CB        -48.6048  -21.7380   13.0404 C.3       7 UNK        -0.1988 
     52 N         -49.8959  -23.6813   12.2794 N.am      7 UNK        -0.4454 
     53 C         -50.8480  -24.6270   12.2346 C.2       7 UNK         0.5027 
     54 O         -51.6277  -24.8673   13.1576 O.2       7 UNK        -0.5083 
     55 CA        -50.8999  -25.4777   10.9477 C.3       6 UNK         0.0844 
     56 C56       -51.6937  -24.7398    9.8379 C.3       14 UNK        -0.0967 
     57 S57       -51.5667  -25.4914    8.1768 S.3       14 UNK        -0.2604 
     58 C58       -52.9768  -26.6385    8.1315 C.3       14 UNK         0.0134 
     59 N         -49.5534  -25.8799   10.5317 N.am      6 UNK        -0.4116 
     60 C         -48.7279  -26.6521   11.2529 C.2       5 UNK         0.5034 
     61 O         -49.0243  -27.1559   12.3359 O.2       5 UNK        -0.5045 
     62 CA        -47.3123  -26.8493   10.6951 C.3       5 UNK         0.0224 
     63 CB        -47.2952  -27.9877    9.6665 C.3       5 UNK        -0.1978 
     64 N         -46.7944  -25.6187   10.0910 N.am      5 UNK        -0.4737 
     65 C         -46.4040  -24.5499   10.8014 C.2       4 UNK         0.5027 
     66 O         -46.4026  -24.5178   12.0305 O.2       4 UNK        -0.5211 
     67 CA        -45.9847  -23.2903   10.0227 C.3       4 UNK         0.0297 
     68 CB        -44.4901  -23.3499    9.6715 C.3       4 UNK        -0.1993 
     69 N         -46.7648  -23.0759    8.8028 N.am      4 UNK        -0.4486 
     70 C         -48.0906  -22.8829    8.7647 C.2       3 UNK         0.4961 
     71 O         -48.7966  -22.7916    9.7691 O.2       3 UNK        -0.5105 
     72 CA        -48.7501  -22.8286    7.3740 C.3       3 UNK         0.0299 
     73 CB        -48.8946  -21.3703    6.9119 C.3       3 UNK        -0.1972 
     74 N         -48.0695  -23.6072    6.3280 N.am      3 UNK        -0.4305 
     75 C         -47.7705  -24.9131    6.3931 C.2       2 UNK         0.5006 
     76 O         -47.9446  -25.6092    7.3961 O.2       2 UNK        -0.5106 
     77 CA        -47.1038  -25.5251    5.1475 C.3       2 UNK         0.0296 
     78 CB        -45.5936  -25.2348    5.1543 C.3       2 UNK        -0.2002 
     79 N         -47.3055  -26.9745    5.0877 N.am      2 UNK        -0.4032 
     80 C         -48.4900  -27.5677    4.8821 C.2       1 UNK         0.5000 
     81 O         -49.5143  -26.9668    4.5543 O.2       1 UNK        -0.5238 
     82 H82       -47.8138  -28.1231    2.0321 H         1 UNK         0.0889 
     83 H83       -49.0443  -29.3677    2.3111 H         1 UNK         0.0889 
     84 H84       -47.7926  -29.6214    1.1085 H         1 UNK         0.0889 
     85 H85       -46.7817  -30.2519    5.0897 H         1 UNK         0.3028 
     86 H86       -49.4476  -29.4499    4.5772 H         1 UNK         0.0864 
     87 H87       -49.3359  -28.7659    7.0826 H         1 UNK         0.0720 
     88 H88       -47.6766  -29.2678    7.0537 H         1 UNK         0.0720 
     89 H89       -51.2320  -30.7357    5.7916 H         1 UNK         0.0814 
     90 H90       -51.3459  -32.0816    6.8896 H         1 UNK         0.0814 
     91 H91       -51.8050  -28.4934    6.5325 H         1 UNK         0.1469 
     92 H92       -53.2341  -27.9185   10.5238 H         1 UNK         0.1381 
     93 H93       -51.4779  -31.6676    9.4026 H         1 UNK         0.1206 
     94 H94       -51.8374  -31.0224   11.8485 H         1 UNK         0.0813 
     95 H95       -52.7299  -29.5651   12.2204 H         1 UNK         0.0813 
     96 H96       -53.9003  -31.0256   13.8982 H         1 UNK         0.0638 
     97 H97       -55.1322  -32.1966   13.5084 H         1 UNK         0.0638 
     98 H98       -56.5498  -30.2261   12.5835 H         1 UNK         0.0568 
     99 H99       -57.9019  -29.4189   16.0503 H         1 UNK         0.3450 
    100 H100      -57.2247  -28.3384   14.8543 H         1 UNK         0.3450 
    101 H101      -54.7802  -28.4917   14.2224 H         1 UNK         0.2987 
    102 H102      -53.7792  -26.5477   12.5049 H         1 UNK         0.0766 
    103 H103      -54.9132  -24.4056   11.9481 H         1 UNK         0.0798 
    104 H104      -56.4742  -25.2253   11.9056 H         1 UNK         0.0798 
    105 H105      -55.2357  -25.6197   10.7224 H         1 UNK         0.0798 
    106 H106      -54.1087  -25.7018   14.5394 H         1 UNK         0.3198 
    107 H107      -56.4173  -24.4931   16.3537 H         1 UNK         0.0843 
    108 H108      -56.2811  -27.4159   17.2772 H         1 UNK         0.0831 
    109 H109      -57.7513  -26.4793   17.0362 H         1 UNK         0.0831 
    110 H110      -56.6319  -26.0314   18.3091 H         1 UNK         0.0831 
    111 H111      -54.0874  -26.2532   17.0016 H         1 UNK         0.3133 
    112 H112      -51.8629  -23.4845   17.0410 H         1 UNK         0.0566 
    113 H113      -51.2646  -24.6670   19.1273 H         1 UNK         0.0814 
    114 H114      -52.8020  -23.8368   19.3050 H         1 UNK         0.0814 
    115 H115      -52.7722  -25.5784   19.0832 H         1 UNK         0.0814 
    116 H116      -50.8144  -25.0651   15.9967 H         1 UNK         0.3091 
    117 H117      -50.3981  -28.4285   16.3055 H         1 UNK         0.0702 
    118 H118      -52.2995  -28.8505   14.7509 H         1 UNK         0.0785 
    119 H119      -51.8156  -27.4798   13.7582 H         1 UNK         0.0785 
    120 H120      -50.7692  -28.8889   13.8917 H         1 UNK         0.0785 
    121 H121      -49.5299  -26.6513   14.2180 H         1 UNK         0.2998 
    122 H122      -47.1205  -24.8925   16.1696 H         1 UNK         0.0697 
    123 H123      -46.7328  -26.9480   13.9310 H         1 UNK         0.0825 
    124 H124      -45.9353  -26.9821   15.4962 H         1 UNK         0.0825 
    125 H125      -45.5964  -25.6744   14.3752 H         1 UNK         0.0825 
    126 H126      -47.7080  -24.6506   13.4280 H         1 UNK         0.3029 
    127 H127      -50.5148  -22.3830   13.7703 H         1 UNK         0.0897 
    128 H128      -49.0167  -21.1170   12.2446 H         1 UNK         0.0792 
    129 H129      -47.6544  -22.1408   12.6902 H         1 UNK         0.0792 
    130 H130      -48.3904  -21.0831   13.8859 H         1 UNK         0.0792 
    131 H131      -49.3483  -23.5084   11.4389 H         1 UNK         0.3086 
    132 H132      -51.4382  -26.3952   11.1898 H         1 UNK         0.0583 
    133 H133      -52.7445  -24.6541   10.1195 H         1 UNK         0.1020 
    134 H134      -51.3379  -23.7127    9.7351 H         1 UNK         0.1020 
    135 H135      -53.7779  -26.2911    8.7848 H         1 UNK         0.0694 
    136 H136      -53.3913  -26.6380    7.1223 H         1 UNK         0.0694 
    137 H137      -49.2328  -25.5245    9.6410 H         1 UNK         0.2989 
    138 H138      -46.6579  -27.1292   11.5231 H         1 UNK         0.1055 
    139 H139      -47.6032  -28.9300   10.1218 H         1 UNK         0.0806 
    140 H140      -46.2999  -28.1359    9.2476 H         1 UNK         0.0806 
    141 H141      -47.9824  -27.7861    8.8463 H         1 UNK         0.0806 
    142 H142      -46.8626  -25.5454    9.0804 H         1 UNK         0.3061 
    143 H143      -46.1490  -22.4301   10.6749 H         1 UNK         0.0734 
    144 H144      -44.1553  -22.4269    9.1979 H         1 UNK         0.0832 
    145 H145      -43.8854  -23.4888   10.5689 H         1 UNK         0.0832 
    146 H146      -44.2651  -24.1768    8.9965 H         1 UNK         0.0832 
    147 H147      -46.2701  -23.1385    7.9255 H         1 UNK         0.3156 
    148 H148      -49.7518  -23.2469    7.4808 H         1 UNK         0.0589 
    149 H149      -47.9243  -20.9015    6.7429 H         1 UNK         0.0808 
    150 H150      -49.4689  -21.3002    5.9879 H         1 UNK         0.0808 
    151 H151      -49.4184  -20.7739    7.6606 H         1 UNK         0.0808 
    152 H152      -47.8655  -23.1138    5.4704 H         1 UNK         0.3098 
    153 H153      -47.5492  -25.0790    4.2558 H         1 UNK         0.0720 
    154 H154      -45.1055  -25.6538    6.0356 H         1 UNK         0.0791 
    155 H155      -45.3977  -24.1618    5.1526 H         1 UNK         0.0791 
    156 H156      -45.1062  -25.6504    4.2720 H         1 UNK         0.0791 
    157 H157      -46.5232  -27.5509    5.3602 H         1 UNK         0.3028 
@<TRIPOS>BOND
     1    1    2 1    
     2    1   82 1    
     3    1   83 1    
     4    1   84 1    
     5    2    3 2    
     6    2    4 am   BACKBONE|DICT|INTERRES
     7    4    5 1    
     8    4   85 1    
     9    5    6 1    
    10    5   80 1    
    11    5   86 1    
    12    6    7 1    
    13    6   87 1    
    14    6   88 1    
    15    7    8 1    
    16    8    9 1    
    17    8   89 1    
    18    8   90 1    
    19    9   10 ar   
    20    9   14 ar   
    21   10   11 ar   
    22   10   91 1    
    23   11   12 ar   
    24   11   58 1    
    25   12   13 ar   
    26   12   92 1    
    27   13   14 ar   
    28   13   15 1    
    29   14   93 1    
    30   15   16 1    
    31   15   94 1    
    32   15   95 1    
    33   16   17 1    
    34   17   18 1    
    35   17   96 1    
    36   17   97 1    
    37   18   19 1    
    38   18   22 1    
    39   18   98 1    
    40   19   20 am   BACKBONE|DICT|INTERRES
    41   19   21 2    
    42   20   99 1    
    43   20  100 1    
    44   22   23 am   BACKBONE|DICT|INTERRES
    45   22  101 1    
    46   23   24 2    
    47   23   25 1    
    48   25   26 1    
    49   25   27 1    
    50   25  102 1    
    51   26  103 1    
    52   26  104 1    
    53   26  105 1    
    54   27   28 am   BACKBONE|DICT|INTERRES
    55   27  106 1    
    56   28   29 2    
    57   28   30 1    
    58   30   31 1    
    59   30   32 1    
    60   30  107 1    
    61   31  108 1    
    62   31  109 1    
    63   31  110 1    
    64   32   33 am   BACKBONE|DICT|INTERRES
    65   32  111 1    
    66   33   34 2    
    67   33   35 1    
    68   35   36 1    
    69   35   37 1    
    70   35  112 1    
    71   36  113 1    
    72   36  114 1    
    73   36  115 1    
    74   37   38 am   BACKBONE|DICT|INTERRES
    75   37  116 1    
    76   38   39 2    
    77   38   40 1    
    78   40   41 1    
    79   40   42 1    
    80   40  117 1    
    81   41  118 1    
    82   41  119 1    
    83   41  120 1    
    84   42   43 am   BACKBONE|DICT|INTERRES
    85   42  121 1    
    86   43   44 2    
    87   43   45 1    
    88   45   46 1    
    89   45   47 1    
    90   45  122 1    
    91   46  123 1    
    92   46  124 1    
    93   46  125 1    
    94   47   48 am   BACKBONE|DICT|INTERRES
    95   47  126 1    
    96   48   49 2    
    97   48   50 1    
    98   50   51 1    
    99   50   52 1    
   100   50  127 1    
   101   51  128 1    
   102   51  129 1    
   103   51  130 1    
   104   52   53 am   BACKBONE|DICT|INTERRES
   105   52  131 1    
   106   53   54 2    
   107   53   55 1    
   108   55   56 1    
   109   55   59 1    
   110   55  132 1    
   111   56   57 1    
   112   56  133 1    
   113   56  134 1    
   114   57   58 1    
   115   58  135 1    
   116   58  136 1    
   117   59   60 am   BACKBONE|DICT|INTERRES
   118   59  137 1    
   119   60   61 2    
   120   60   62 1    
   121   62   63 1    
   122   62   64 1    
   123   62  138 1    
   124   63  139 1    
   125   63  140 1    
   126   63  141 1    
   127   64   65 am   BACKBONE|DICT|INTERRES
   128   64  142 1    
   129   65   66 2    
   130   65   67 1    
   131   67   68 1    
   132   67   69 1    
   133   67  143 1    
   134   68  144 1    
   135   68  145 1    
   136   68  146 1    
   137   69   70 am   BACKBONE|DICT|INTERRES
   138   69  147 1    
   139   70   71 2    
   140   70   72 1    
   141   72   73 1    
   142   72   74 1    
   143   72  148 1    
   144   73  149 1    
   145   73  150 1    
   146   73  151 1    
   147   74   75 am   BACKBONE|DICT|INTERRES
   148   74  152 1    
   149   75   76 2    
   150   75   77 1    
   151   77   78 1    
   152   77   79 1    
   153   77  153 1    
   154   78  154 1    
   155   78  155 1    
   156   78  156 1    
   157   79   80 am   BACKBONE|DICT|INTERRES
   158   79  157 1    
   159   80   81 2    
@<TRIPOS>SUBSTRUCTURE
     1 UNK         1 GROUP             0       ****    0 ROOT    
