@<TRIPOS>MOLECULE
3R207
157   159    1
SMALL
USER_CHARGES


@<TRIPOS>ATOM
      1 CA        -53.8336  -24.6193    6.1669 C.3       0 UNK        -0.1975 
      2 C         -52.6862  -25.4863    5.6679 C.2       0 UNK         0.4852 
      3 O         -52.2673  -25.3285    4.5206 O.2       0 UNK        -0.5216 
      4 N         -52.2061  -26.3959    6.5286 N.am      1 UNK        -0.4461 
      5 CA        -51.0843  -27.3320    6.3504 C.3       1 UNK         0.0864 
      6 C6        -51.1789  -28.2398    5.0905 C.3       14 UNK        -0.0898 
      7 S7        -52.7993  -29.0583    4.8817 S.3       14 UNK        -0.2598 
      8 C8        -52.5448  -30.6477    5.7306 C.3       14 UNK         0.0286 
      9 C9        -52.3791  -30.4704    7.2330 C.ar      14 UNK        -0.0844 
     10 C10       -51.1594  -30.7651    7.8479 C.ar      14 UNK        -0.0881 
     11 C11       -51.0074  -30.6148    9.2293 C.ar      14 UNK        -0.0643 
     12 C12       -52.0857  -30.1649    9.9980 C.ar      14 UNK        -0.0930 
     13 C13       -53.3079  -29.8604    9.3922 C.ar      14 UNK        -0.0827 
     14 C14       -53.4495  -30.0184    8.0106 C.ar      14 UNK        -0.1249 
     15 C15       -54.4852  -29.3892   10.2304 C.3       14 UNK         0.0141 
     16 S16       -54.3435  -27.6271   10.6702 S.3       14 UNK        -0.2313 
     17 C17       -56.0840  -27.2185   11.0476 C.3       14 UNK        -0.0915 
     18 CA        -56.3979  -27.0715   12.5673 C.3       13 UNK         0.0968 
     19 C         -57.8364  -26.5298   12.8305 C.2       13 UNK         0.5732 
     20 N         -58.5063  -26.9231   13.9077 N.am      13 UNK        -0.7310 
     21 O         -58.3469  -25.7129   12.0674 O.2       13 UNK        -0.5035 
     22 N         -56.0450  -28.2540   13.3742 N.am      13 UNK        -0.4233 
     23 C         -56.5037  -29.5056   13.2238 C.2       13 UNK         0.4989 
     24 O         -57.2989  -29.8430   12.3460 O.2       13 UNK        -0.4996 
     25 CA        -56.0168  -30.5596   14.2435 C.3       12 UNK         0.0216 
     26 CB        -55.8176  -31.9536   13.6092 C.3       12 UNK        -0.1964 
     27 N         -54.8358  -30.1325   15.0097 N.am      12 UNK        -0.4276 
     28 C         -53.5850  -29.9538   14.5590 C.2       12 UNK         0.5020 
     29 O         -53.1926  -30.2597   13.4333 O.2       12 UNK        -0.5489 
     30 CA        -52.6312  -29.2260   15.5188 C.3       11 UNK         0.0294 
     31 CB        -51.2064  -29.8034   15.4712 C.3       11 UNK        -0.2019 
     32 N         -52.5815  -27.8025   15.1865 N.am      11 UNK        -0.4493 
     33 C         -53.5716  -26.9211   15.3805 C.2       11 UNK         0.4932 
     34 O         -54.6658  -27.2240   15.8599 O.2       11 UNK        -0.5029 
     35 CA        -53.2998  -25.4710   14.9379 C.3       10 UNK         0.0280 
     36 CB        -54.2870  -24.4543   15.5472 C.3       10 UNK        -0.1976 
     37 N         -51.9089  -25.0683   15.1668 N.am      10 UNK        -0.4242 
     38 C         -51.2472  -24.9815   16.3313 C.2       10 UNK         0.5072 
     39 O         -51.7631  -25.1485   17.4371 O.2       10 UNK        -0.5224 
     40 CA        -49.7365  -24.6816   16.2481 C.3       9 UNK         0.0343 
     41 CB        -48.9283  -25.9760   16.4357 C.3       9 UNK        -0.2003 
     42 N         -49.3372  -24.0536   14.9851 N.am      9 UNK        -0.4272 
     43 C         -49.6568  -22.8031   14.6212 C.2       9 UNK         0.4988 
     44 O         -50.2318  -21.9987   15.3547 O.2       9 UNK        -0.5108 
     45 CA        -49.3156  -22.4010   13.1790 C.3       8 UNK         0.0248 
     46 CB        -47.8635  -21.9128   13.0743 C.3       8 UNK        -0.2001 
     47 N         -49.5549  -23.5028   12.2403 N.am      8 UNK        -0.4140 
     48 C         -50.7762  -23.8816   11.8330 C.2       8 UNK         0.5028 
     49 O         -51.8086  -23.2795   12.1264 O.2       8 UNK        -0.5428 
     50 CA        -50.8833  -25.1647   10.9939 C.3       7 UNK         0.0264 
     51 CB        -50.9146  -24.8446    9.4956 C.3       7 UNK        -0.1988 
     52 N         -49.8168  -26.1285   11.2855 N.am      7 UNK        -0.4454 
     53 C         -49.8404  -26.9201   12.3673 C.2       7 UNK         0.5027 
     54 O         -50.7408  -26.8904   13.2059 O.2       7 UNK        -0.5083 
     55 CA        -48.6659  -27.8878   12.6030 C.3       6 UNK         0.0844 
     56 C56       -48.9608  -29.2979   12.0363 C.3       14 UNK        -0.0967 
     57 S57       -48.7210  -29.4477   10.2337 S.3       14 UNK        -0.2604 
     58 C58       -49.6790  -30.9515    9.8846 C.3       14 UNK         0.0134 
     59 N         -47.3433  -27.3905   12.2155 N.am      6 UNK        -0.4116 
     60 C         -46.7674  -26.2528   12.6247 C.2       5 UNK         0.5034 
     61 O         -47.3548  -25.3731   13.2567 O.2       5 UNK        -0.5045 
     62 CA        -45.2741  -26.0828   12.3120 C.3       5 UNK         0.0224 
     63 CB        -44.5448  -27.4009   11.9655 C.3       5 UNK        -0.1978 
     64 N         -45.0840  -25.1196   11.2306 N.am      5 UNK        -0.4737 
     65 C         -44.0099  -24.3241   11.1139 C.2       4 UNK         0.5027 
     66 O         -43.1184  -24.2645   11.9618 O.2       4 UNK        -0.5211 
     67 CA        -43.8599  -23.4782    9.8338 C.3       4 UNK         0.0297 
     68 CB        -42.6995  -24.0100    8.9752 C.3       4 UNK        -0.1993 
     69 N         -45.0717  -23.4534    9.0166 N.am      4 UNK        -0.4486 
     70 C         -46.1289  -22.6656    9.2449 C.2       3 UNK         0.4961 
     71 O         -46.1451  -21.7819   10.0995 O.2       3 UNK        -0.5105 
     72 CA        -47.3851  -22.9066    8.3873 C.3       3 UNK         0.0299 
     73 CB        -47.5617  -21.7785    7.3585 C.3       3 UNK        -0.1972 
     74 N         -47.3981  -24.1987    7.6889 N.am      3 UNK        -0.4305 
     75 C         -47.4682  -25.4001    8.2769 C.2       2 UNK         0.5006 
     76 O         -47.5528  -25.5643    9.4967 O.2       2 UNK        -0.5106 
     77 CA        -47.4248  -26.6197    7.3441 C.3       2 UNK         0.0296 
     78 CB        -46.4549  -27.6918    7.8704 C.3       2 UNK        -0.2002 
     79 N         -48.7647  -27.1862    7.1707 N.am      2 UNK        -0.4032 
     80 C         -49.7163  -26.6161    6.4146 C.2       1 UNK         0.5000 
     81 O         -49.5237  -25.5814    5.7716 O.2       1 UNK        -0.5238 
     82 H82       -54.1191  -24.8652    7.1898 H         1 UNK         0.0889 
     83 H83       -54.7082  -24.7525    5.5306 H         1 UNK         0.0889 
     84 H84       -53.5482  -23.5680    6.1388 H         1 UNK         0.0889 
     85 H85       -52.6446  -26.4567    7.4362 H         1 UNK         0.3028 
     86 H86       -51.1377  -27.9804    7.2251 H         1 UNK         0.0864 
     87 H87       -50.9915  -27.6564    4.1874 H         1 UNK         0.0720 
     88 H88       -50.3999  -29.0040    5.1151 H         1 UNK         0.0720 
     89 H89       -51.6853  -31.1591    5.2943 H         1 UNK         0.0814 
     90 H90       -53.4077  -31.2882    5.5429 H         1 UNK         0.0814 
     91 H91       -50.3275  -31.1153    7.2520 H         1 UNK         0.1469 
     92 H92       -51.9783  -30.0483   11.0677 H         1 UNK         0.1381 
     93 H93       -54.3934  -29.7880    7.5353 H         1 UNK         0.1206 
     94 H94       -55.4157  -29.5651    9.6892 H         1 UNK         0.0813 
     95 H95       -54.5448  -29.9852   11.1405 H         1 UNK         0.0813 
     96 H96       -56.7510  -27.9469   10.5857 H         1 UNK         0.0638 
     97 H97       -56.2878  -26.2768   10.5352 H         1 UNK         0.0638 
     98 H98       -55.7485  -26.2801   12.9416 H         1 UNK         0.0568 
     99 H99       -58.0972  -27.5737   14.5580 H         1 UNK         0.3450 
    100 H100      -59.4305  -26.5569   14.0727 H         1 UNK         0.3450 
    101 H101      -55.4457  -28.0658   14.1688 H         1 UNK         0.2987 
    102 H102      -56.8220  -30.6515   14.9738 H         1 UNK         0.0766 
    103 H103      -55.4664  -32.6782   14.3438 H         1 UNK         0.0798 
    104 H104      -55.0992  -31.9304   12.7896 H         1 UNK         0.0798 
    105 H105      -56.7551  -32.3350   13.2028 H         1 UNK         0.0798 
    106 H106      -55.0362  -29.8001   15.9446 H         1 UNK         0.3198 
    107 H107      -53.0022  -29.3326   16.5406 H         1 UNK         0.0843 
    108 H108      -50.7556  -29.6841   14.4871 H         1 UNK         0.0831 
    109 H109      -51.2103  -30.8695   15.7014 H         1 UNK         0.0831 
    110 H110      -50.5564  -29.3151   16.1975 H         1 UNK         0.0831 
    111 H111      -51.7767  -27.4882   14.6485 H         1 UNK         0.3133 
    112 H112      -53.4383  -25.4561   13.8558 H         1 UNK         0.0566 
    113 H113      -54.0723  -23.4417   15.2055 H         1 UNK         0.0814 
    114 H114      -55.3132  -24.6831   15.2569 H         1 UNK         0.0814 
    115 H115      -54.2505  -24.4566   16.6369 H         1 UNK         0.0814 
    116 H116      -51.3558  -24.9709   14.3262 H         1 UNK         0.3091 
    117 H117      -49.4886  -23.9978   17.0626 H         1 UNK         0.0702 
    118 H118      -47.8556  -25.7827   16.4123 H         1 UNK         0.0785 
    119 H119      -49.1549  -26.7071   15.6596 H         1 UNK         0.0785 
    120 H120      -49.1540  -26.4411   17.3963 H         1 UNK         0.0785 
    121 H121      -48.7861  -24.6171   14.3432 H         1 UNK         0.2998 
    122 H122      -49.9660  -21.5661   12.9089 H         1 UNK         0.0697 
    123 H123      -47.1433  -22.7207   13.2057 H         1 UNK         0.0825 
    124 H124      -47.6482  -21.1567   13.8306 H         1 UNK         0.0825 
    125 H125      -47.6818  -21.4516   12.1055 H         1 UNK         0.0825 
    126 H126      -48.7602  -24.0831   12.0040 H         1 UNK         0.3029 
    127 H127      -51.8404  -25.6316   11.2409 H         1 UNK         0.0897 
    128 H128      -50.9868  -25.7596    8.9133 H         1 UNK         0.0792 
    129 H129      -50.0272  -24.3050    9.1731 H         1 UNK         0.0792 
    130 H130      -51.7787  -24.2273    9.2465 H         1 UNK         0.0792 
    131 H131      -49.0176  -26.1567   10.6570 H         1 UNK         0.3086 
    132 H132      -48.6114  -28.0045   13.6871 H         1 UNK         0.0583 
    133 H133      -48.3042  -30.0248   12.5173 H         1 UNK         0.1020 
    134 H134      -49.9748  -29.6099   12.2926 H         1 UNK         0.1020 
    135 H135      -49.0867  -31.5946    9.2318 H         1 UNK         0.0694 
    136 H136      -49.8462  -31.5252   10.7975 H         1 UNK         0.0694 
    137 H137      -46.7938  -28.0232   11.6538 H         1 UNK         0.2989 
    138 H138      -44.8325  -25.6861   13.2293 H         1 UNK         0.1055 
    139 H139      -44.7092  -28.1606   12.7312 H         1 UNK         0.0806 
    140 H140      -43.4674  -27.2449   11.9053 H         1 UNK         0.0806 
    141 H141      -44.8674  -27.8103   11.0073 H         1 UNK         0.0806 
    142 H142      -45.8185  -25.0876   10.5307 H         1 UNK         0.3061 
    143 H143      -43.6165  -22.4588   10.1417 H         1 UNK         0.0734 
    144 H144      -42.5458  -23.3945    8.0887 H         1 UNK         0.0832 
    145 H145      -41.7638  -24.0038    9.5362 H         1 UNK         0.0832 
    146 H146      -42.8748  -25.0357    8.6482 H         1 UNK         0.0832 
    147 H147      -45.1369  -24.1357    8.2760 H         1 UNK         0.3156 
    148 H148      -48.2374  -22.8803    9.0680 H         1 UNK         0.0589 
    149 H149      -46.7426  -21.7560    6.6386 H         1 UNK         0.0808 
    150 H150      -48.4945  -21.8888    6.8049 H         1 UNK         0.0808 
    151 H151      -47.5920  -20.8039    7.8480 H         1 UNK         0.0808 
    152 H152      -47.3877  -24.1627    6.6785 H         1 UNK         0.3098 
    153 H153      -47.0550  -26.3048    6.3656 H         1 UNK         0.0720 
    154 H154      -46.4564  -28.5784    7.2362 H         1 UNK         0.0791 
    155 H155      -46.6961  -28.0039    8.8850 H         1 UNK         0.0791 
    156 H156      -45.4332  -27.3107    7.8911 H         1 UNK         0.0791 
    157 H157      -48.9760  -28.0176    7.7051 H         1 UNK         0.3028 
@<TRIPOS>BOND
     1    1    2 1    
     2    1   82 1    
     3    1   83 1    
     4    1   84 1    
     5    2    3 2    
     6    2    4 am   BACKBONE|DICT|INTERRES
     7    4    5 1    
     8    4   85 1    
     9    5    6 1    
    10    5   80 1    
    11    5   86 1    
    12    6    7 1    
    13    6   87 1    
    14    6   88 1    
    15    7    8 1    
    16    8    9 1    
    17    8   89 1    
    18    8   90 1    
    19    9   10 ar   
    20    9   14 ar   
    21   10   11 ar   
    22   10   91 1    
    23   11   12 ar   
    24   11   58 1    
    25   12   13 ar   
    26   12   92 1    
    27   13   14 ar   
    28   13   15 1    
    29   14   93 1    
    30   15   16 1    
    31   15   94 1    
    32   15   95 1    
    33   16   17 1    
    34   17   18 1    
    35   17   96 1    
    36   17   97 1    
    37   18   19 1    
    38   18   22 1    
    39   18   98 1    
    40   19   20 am   BACKBONE|DICT|INTERRES
    41   19   21 2    
    42   20   99 1    
    43   20  100 1    
    44   22   23 am   BACKBONE|DICT|INTERRES
    45   22  101 1    
    46   23   24 2    
    47   23   25 1    
    48   25   26 1    
    49   25   27 1    
    50   25  102 1    
    51   26  103 1    
    52   26  104 1    
    53   26  105 1    
    54   27   28 am   BACKBONE|DICT|INTERRES
    55   27  106 1    
    56   28   29 2    
    57   28   30 1    
    58   30   31 1    
    59   30   32 1    
    60   30  107 1    
    61   31  108 1    
    62   31  109 1    
    63   31  110 1    
    64   32   33 am   BACKBONE|DICT|INTERRES
    65   32  111 1    
    66   33   34 2    
    67   33   35 1    
    68   35   36 1    
    69   35   37 1    
    70   35  112 1    
    71   36  113 1    
    72   36  114 1    
    73   36  115 1    
    74   37   38 am   BACKBONE|DICT|INTERRES
    75   37  116 1    
    76   38   39 2    
    77   38   40 1    
    78   40   41 1    
    79   40   42 1    
    80   40  117 1    
    81   41  118 1    
    82   41  119 1    
    83   41  120 1    
    84   42   43 am   BACKBONE|DICT|INTERRES
    85   42  121 1    
    86   43   44 2    
    87   43   45 1    
    88   45   46 1    
    89   45   47 1    
    90   45  122 1    
    91   46  123 1    
    92   46  124 1    
    93   46  125 1    
    94   47   48 am   BACKBONE|DICT|INTERRES
    95   47  126 1    
    96   48   49 2    
    97   48   50 1    
    98   50   51 1    
    99   50   52 1    
   100   50  127 1    
   101   51  128 1    
   102   51  129 1    
   103   51  130 1    
   104   52   53 am   BACKBONE|DICT|INTERRES
   105   52  131 1    
   106   53   54 2    
   107   53   55 1    
   108   55   56 1    
   109   55   59 1    
   110   55  132 1    
   111   56   57 1    
   112   56  133 1    
   113   56  134 1    
   114   57   58 1    
   115   58  135 1    
   116   58  136 1    
   117   59   60 am   BACKBONE|DICT|INTERRES
   118   59  137 1    
   119   60   61 2    
   120   60   62 1    
   121   62   63 1    
   122   62   64 1    
   123   62  138 1    
   124   63  139 1    
   125   63  140 1    
   126   63  141 1    
   127   64   65 am   BACKBONE|DICT|INTERRES
   128   64  142 1    
   129   65   66 2    
   130   65   67 1    
   131   67   68 1    
   132   67   69 1    
   133   67  143 1    
   134   68  144 1    
   135   68  145 1    
   136   68  146 1    
   137   69   70 am   BACKBONE|DICT|INTERRES
   138   69  147 1    
   139   70   71 2    
   140   70   72 1    
   141   72   73 1    
   142   72   74 1    
   143   72  148 1    
   144   73  149 1    
   145   73  150 1    
   146   73  151 1    
   147   74   75 am   BACKBONE|DICT|INTERRES
   148   74  152 1    
   149   75   76 2    
   150   75   77 1    
   151   77   78 1    
   152   77   79 1    
   153   77  153 1    
   154   78  154 1    
   155   78  155 1    
   156   78  156 1    
   157   79   80 am   BACKBONE|DICT|INTERRES
   158   79  157 1    
   159   80   81 2    
@<TRIPOS>SUBSTRUCTURE
     1 UNK         1 GROUP             0       ****    0 ROOT    
