@<TRIPOS>MOLECULE
3R207
157   159    1
SMALL
USER_CHARGES


@<TRIPOS>ATOM
      1 CA        -47.5741  -27.9610   11.1536 C.3       0 UNK        -0.1975 
      2 C         -47.3484  -28.1550    9.6645 C.2       0 UNK         0.4852 
      3 O         -46.2069  -28.1119    9.2009 O.2       0 UNK        -0.5216 
      4 N         -48.4425  -28.3653    8.9225 N.am      1 UNK        -0.4461 
      5 CA        -48.5025  -28.5843    7.4727 C.3       1 UNK         0.0864 
      6 C6        -49.9678  -28.7422    6.9894 C.3       14 UNK        -0.0898 
      7 S7        -51.0608  -27.3698    7.5029 S.3       14 UNK        -0.2598 
      8 C8        -52.6697  -28.2279    7.6314 C.3       14 UNK         0.0286 
      9 C9        -53.8129  -27.3264    8.0953 C.ar      14 UNK        -0.0844 
     10 C10       -53.8729  -25.9742    7.7376 C.ar      14 UNK        -0.0881 
     11 C11       -54.9298  -25.1623    8.1619 C.ar      14 UNK        -0.0643 
     12 C12       -55.9575  -25.7262    8.9246 C.ar      14 UNK        -0.0930 
     13 C13       -55.9325  -27.0833    9.2619 C.ar      14 UNK        -0.0827 
     14 C14       -54.8531  -27.8732    8.8532 C.ar      14 UNK        -0.1249 
     15 C15       -57.0998  -27.7057   10.0180 C.3       14 UNK         0.0141 
     16 S16       -57.0625  -27.3268   11.7975 S.3       14 UNK        -0.2313 
     17 C17       -55.7001  -28.3901   12.3724 C.3       14 UNK        -0.0915 
     18 CA        -56.1752  -29.6055   13.2124 C.3       13 UNK         0.0968 
     19 C         -56.6912  -30.7512   12.2965 C.2       13 UNK         0.5732 
     20 N         -57.9971  -30.8408   12.0839 N.am      13 UNK        -0.7310 
     21 O         -55.9135  -31.5310   11.7487 O.2       13 UNK        -0.5035 
     22 N         -55.1073  -30.0383   14.1256 N.am      13 UNK        -0.4233 
     23 C         -55.1942  -31.0243   15.0293 C.2       13 UNK         0.4989 
     24 O         -56.2312  -31.6404   15.2781 O.2       13 UNK        -0.4996 
     25 CA        -53.9126  -31.3791   15.7994 C.3       12 UNK         0.0216 
     26 CB        -52.9620  -32.2030   14.9142 C.3       12 UNK        -0.1964 
     27 N         -53.2211  -30.1754   16.2646 N.am      12 UNK        -0.4276 
     28 C         -53.0065  -29.8505   17.5473 C.2       12 UNK         0.5020 
     29 O         -53.3198  -30.5679   18.4987 O.2       12 UNK        -0.5489 
     30 CA        -52.3286  -28.4936   17.8327 C.3       11 UNK         0.0294 
     31 CB        -50.8184  -28.6835   18.0464 C.3       11 UNK        -0.2019 
     32 N         -52.5389  -27.4975   16.7791 N.am      11 UNK        -0.4493 
     33 C         -53.7299  -26.9818   16.4412 C.2       11 UNK         0.4932 
     34 O         -54.7653  -27.1930   17.0728 O.2       11 UNK        -0.5029 
     35 CA        -53.7997  -26.1088   15.1734 C.3       10 UNK         0.0280 
     36 CB        -53.8372  -24.6228   15.5651 C.3       10 UNK        -0.1976 
     37 N         -52.7270  -26.3144   14.1891 N.am      10 UNK        -0.4242 
     38 C         -52.2828  -27.4743   13.6775 C.2       10 UNK         0.5072 
     39 O         -52.7479  -28.5783   13.9620 O.2       10 UNK        -0.5224 
     40 CA        -51.0781  -27.4059   12.7250 C.3       9 UNK         0.0343 
     41 CB        -51.5598  -27.3289   11.2688 C.3       9 UNK        -0.2003 
     42 N         -50.1633  -26.2954   13.0166 N.am      9 UNK        -0.4272 
     43 C         -49.5015  -26.1385   14.1762 C.2       9 UNK         0.4988 
     44 O         -49.5802  -26.9262   15.1200 O.2       9 UNK        -0.5108 
     45 CA        -48.6338  -24.8811   14.3272 C.3       8 UNK         0.0248 
     46 CB        -47.2387  -25.0969   13.7305 C.3       8 UNK        -0.2001 
     47 N         -49.2604  -23.7198   13.6975 N.am      8 UNK        -0.4140 
     48 C         -50.1416  -22.9220   14.3154 C.2       8 UNK         0.5028 
     49 O         -50.4442  -23.0219   15.5047 O.2       8 UNK        -0.5428 
     50 CA        -50.8176  -21.8357   13.4616 C.3       7 UNK         0.0264 
     51 CB        -49.9752  -20.5499   13.4592 C.3       7 UNK        -0.1988 
     52 N         -51.0790  -22.2472   12.0795 N.am      7 UNK        -0.4454 
     53 C         -51.8851  -23.2569   11.7165 C.2       7 UNK         0.5027 
     54 O         -52.4847  -23.9746   12.5151 O.2       7 UNK        -0.5083 
     55 CA        -52.0325  -23.5193   10.2050 C.3       6 UNK         0.0844 
     56 C56       -53.1735  -22.6351    9.6389 C.3       14 UNK        -0.0967 
     57 S57       -53.4111  -22.8125    7.8381 S.3       14 UNK        -0.2604 
     58 C58       -55.0068  -23.6961    7.7441 C.3       14 UNK         0.0134 
     59 N         -50.7771  -23.3617    9.4598 N.am      6 UNK        -0.4116 
     60 C         -49.5993  -23.9537    9.7125 C.2       5 UNK         0.5034 
     61 O         -49.3900  -24.6882   10.6834 O.2       5 UNK        -0.5045 
     62 CA        -48.4942  -23.6659    8.6765 C.3       5 UNK         0.0224 
     63 CB        -48.3329  -22.1539    8.3927 C.3       5 UNK        -0.1978 
     64 N         -47.1911  -24.2776    8.9799 N.am      5 UNK        -0.4737 
     65 C         -46.3562  -23.9627    9.9809 C.2       4 UNK         0.5027 
     66 O         -46.6191  -23.1283   10.8483 O.2       4 UNK        -0.5211 
     67 CA        -44.9696  -24.6333   10.0119 C.3       4 UNK         0.0297 
     68 CB        -44.6900  -25.3329   11.3525 C.3       4 UNK        -0.1993 
     69 N         -44.7182  -25.5845    8.9202 N.am      4 UNK        -0.4486 
     70 C         -43.6322  -25.5373    8.1335 C.2       3 UNK         0.4961 
     71 O         -42.8172  -24.6133    8.1371 O.2       3 UNK        -0.5105 
     72 CA        -43.3802  -26.7344    7.2035 C.3       3 UNK         0.0299 
     73 CB        -42.8361  -27.9359    7.9944 C.3       3 UNK        -0.1972 
     74 N         -44.5701  -27.1328    6.4555 N.am      3 UNK        -0.4305 
     75 C         -45.0406  -26.4844    5.3795 C.2       2 UNK         0.5006 
     76 O         -44.5095  -25.4814    4.9006 O.2       2 UNK        -0.5106 
     77 CA        -46.3043  -27.0515    4.6999 C.3       2 UNK         0.0296 
     78 CB        -45.9279  -27.8164    3.4199 C.3       2 UNK        -0.2002 
     79 N         -47.1107  -27.9242    5.5601 N.am      2 UNK        -0.4032 
     80 C         -47.7518  -27.5071    6.6595 C.2       1 UNK         0.5000 
     81 O         -47.7445  -26.3350    7.0390 O.2       1 UNK        -0.5238 
     82 H82       -48.3771  -28.6008   11.5179 H         1 UNK         0.0889 
     83 H83       -47.8448  -26.9255   11.3470 H         1 UNK         0.0889 
     84 H84       -46.6730  -28.2004   11.7173 H         1 UNK         0.0889 
     85 H85       -49.3460  -28.3260    9.3696 H         1 UNK         0.3028 
     86 H86       -47.9907  -29.5323    7.2948 H         1 UNK         0.0864 
     87 H87       -50.3708  -29.6744    7.3884 H         1 UNK         0.0720 
     88 H88       -50.0170  -28.8442    5.9034 H         1 UNK         0.0720 
     89 H89       -52.9299  -28.6503    6.6568 H         1 UNK         0.0814 
     90 H90       -52.5594  -29.0689    8.3224 H         1 UNK         0.0814 
     91 H91       -53.0956  -25.5466    7.1205 H         1 UNK         0.1469 
     92 H92       -56.7946  -25.1163    9.2364 H         1 UNK         0.1381 
     93 H93       -54.8341  -28.9242    9.1080 H         1 UNK         0.1206 
     94 H94       -57.1219  -28.7873    9.8756 H         1 UNK         0.0813 
     95 H95       -58.0362  -27.3303    9.6026 H         1 UNK         0.0813 
     96 H96       -55.0644  -28.7023   11.5427 H         1 UNK         0.0638 
     97 H97       -55.0760  -27.7396   12.9789 H         1 UNK         0.0638 
     98 H98       -56.9981  -29.2830   13.8535 H         1 UNK         0.0568 
     99 H99       -58.3473  -31.5708   11.4839 H         1 UNK         0.3450 
    100 H100      -58.6391  -30.1929   12.5134 H         1 UNK         0.3450 
    101 H101      -54.2076  -29.5852   13.9841 H         1 UNK         0.2987 
    102 H102      -54.2063  -32.0012   16.6475 H         1 UNK         0.0766 
    103 H103      -53.4566  -33.0996   14.5378 H         1 UNK         0.0798 
    104 H104      -52.0849  -32.5275   15.4744 H         1 UNK         0.0798 
    105 H105      -52.6147  -31.6336   14.0509 H         1 UNK         0.0798 
    106 H106      -52.9443  -29.5100   15.5455 H         1 UNK         0.3198 
    107 H107      -52.7605  -28.1004   18.7555 H         1 UNK         0.0843 
    108 H108      -50.3270  -29.0521   17.1448 H         1 UNK         0.0831 
    109 H109      -50.6235  -29.4032   18.8428 H         1 UNK         0.0831 
    110 H110      -50.3364  -27.7479   18.3309 H         1 UNK         0.0831 
    111 H111      -51.7356  -27.2629   16.2092 H         1 UNK         0.3133 
    112 H112      -54.7433  -26.3432   14.6809 H         1 UNK         0.0566 
    113 H113      -54.0423  -23.9886   14.7027 H         1 UNK         0.0814 
    114 H114      -52.8921  -24.2989   16.0029 H         1 UNK         0.0814 
    115 H115      -54.6212  -24.4273   16.2982 H         1 UNK         0.0814 
    116 H116      -52.3327  -25.4642   13.7966 H         1 UNK         0.3091 
    117 H117      -50.5099  -28.3299   12.8480 H         1 UNK         0.0702 
    118 H118      -50.7350  -27.1649   10.5766 H         1 UNK         0.0785 
    119 H119      -52.2819  -26.5260   11.1277 H         1 UNK         0.0785 
    120 H120      -52.0561  -28.2547   10.9752 H         1 UNK         0.0785 
    121 H121      -50.0111  -25.6227   12.2701 H         1 UNK         0.2998 
    122 H122      -48.5092  -24.6951   15.3964 H         1 UNK         0.0697 
    123 H123      -47.2813  -25.1641   12.6453 H         1 UNK         0.0825 
    124 H124      -46.7807  -26.0132   14.1060 H         1 UNK         0.0825 
    125 H125      -46.5733  -24.2713   13.9833 H         1 UNK         0.0825 
    126 H126      -49.0833  -23.5838   12.7099 H         1 UNK         0.3029 
    127 H127      -51.7813  -21.6133   13.9255 H         1 UNK         0.0897 
    128 H128      -49.0083  -20.7005   12.9768 H         1 UNK         0.0792 
    129 H129      -49.7815  -20.2090   14.4774 H         1 UNK         0.0792 
    130 H130      -50.4878  -19.7391   12.9411 H         1 UNK         0.0792 
    131 H131      -50.6182  -21.7186   11.3531 H         1 UNK         0.3086 
    132 H132      -52.3318  -24.5597   10.0792 H         1 UNK         0.0583 
    133 H133      -54.1125  -22.8626   10.1483 H         1 UNK         0.1020 
    134 H134      -52.9762  -21.5794    9.8370 H         1 UNK         0.1020 
    135 H135      -55.7447  -23.1589    8.3422 H         1 UNK         0.0694 
    136 H136      -55.3610  -23.6554    6.7134 H         1 UNK         0.0694 
    137 H137      -50.8547  -22.7986    8.6255 H         1 UNK         0.2989 
    138 H138      -48.8310  -24.1357    7.7517 H         1 UNK         0.1055 
    139 H139      -48.1371  -21.5869    9.3035 H         1 UNK         0.0806 
    140 H140      -49.2264  -21.7313    7.9326 H         1 UNK         0.0806 
    141 H141      -47.5092  -21.9686    7.7032 H         1 UNK         0.0806 
    142 H142      -46.9322  -25.0208    8.3385 H         1 UNK         0.3061 
    143 H143      -44.2698  -23.7983    9.9417 H         1 UNK         0.0734 
    144 H144      -45.3542  -26.1802   11.5118 H         1 UNK         0.0832 
    145 H145      -43.6653  -25.7017   11.3979 H         1 UNK         0.0832 
    146 H146      -44.8172  -24.6454   12.1891 H         1 UNK         0.0832 
    147 H147      -45.3163  -26.4071    8.8794 H         1 UNK         0.3156 
    148 H148      -42.6100  -26.4401    6.4867 H         1 UNK         0.0589 
    149 H149      -43.5581  -28.3079    8.7221 H         1 UNK         0.0808 
    150 H150      -41.9336  -27.6633    8.5434 H         1 UNK         0.0808 
    151 H151      -42.5735  -28.7606    7.3315 H         1 UNK         0.0808 
    152 H152      -45.0836  -27.9281    6.8076 H         1 UNK         0.3098 
    153 H153      -46.9254  -26.1989    4.4163 H         1 UNK         0.0720 
    154 H154      -45.3550  -27.1833    2.7406 H         1 UNK         0.0791 
    155 H155      -46.8146  -28.1473    2.8787 H         1 UNK         0.0791 
    156 H156      -45.3183  -28.6942    3.6382 H         1 UNK         0.0791 
    157 H157      -47.1582  -28.8991    5.2995 H         1 UNK         0.3028 
@<TRIPOS>BOND
     1    1    2 1    
     2    1   82 1    
     3    1   83 1    
     4    1   84 1    
     5    2    3 2    
     6    2    4 am   BACKBONE|DICT|INTERRES
     7    4    5 1    
     8    4   85 1    
     9    5    6 1    
    10    5   80 1    
    11    5   86 1    
    12    6    7 1    
    13    6   87 1    
    14    6   88 1    
    15    7    8 1    
    16    8    9 1    
    17    8   89 1    
    18    8   90 1    
    19    9   10 ar   
    20    9   14 ar   
    21   10   11 ar   
    22   10   91 1    
    23   11   12 ar   
    24   11   58 1    
    25   12   13 ar   
    26   12   92 1    
    27   13   14 ar   
    28   13   15 1    
    29   14   93 1    
    30   15   16 1    
    31   15   94 1    
    32   15   95 1    
    33   16   17 1    
    34   17   18 1    
    35   17   96 1    
    36   17   97 1    
    37   18   19 1    
    38   18   22 1    
    39   18   98 1    
    40   19   20 am   BACKBONE|DICT|INTERRES
    41   19   21 2    
    42   20   99 1    
    43   20  100 1    
    44   22   23 am   BACKBONE|DICT|INTERRES
    45   22  101 1    
    46   23   24 2    
    47   23   25 1    
    48   25   26 1    
    49   25   27 1    
    50   25  102 1    
    51   26  103 1    
    52   26  104 1    
    53   26  105 1    
    54   27   28 am   BACKBONE|DICT|INTERRES
    55   27  106 1    
    56   28   29 2    
    57   28   30 1    
    58   30   31 1    
    59   30   32 1    
    60   30  107 1    
    61   31  108 1    
    62   31  109 1    
    63   31  110 1    
    64   32   33 am   BACKBONE|DICT|INTERRES
    65   32  111 1    
    66   33   34 2    
    67   33   35 1    
    68   35   36 1    
    69   35   37 1    
    70   35  112 1    
    71   36  113 1    
    72   36  114 1    
    73   36  115 1    
    74   37   38 am   BACKBONE|DICT|INTERRES
    75   37  116 1    
    76   38   39 2    
    77   38   40 1    
    78   40   41 1    
    79   40   42 1    
    80   40  117 1    
    81   41  118 1    
    82   41  119 1    
    83   41  120 1    
    84   42   43 am   BACKBONE|DICT|INTERRES
    85   42  121 1    
    86   43   44 2    
    87   43   45 1    
    88   45   46 1    
    89   45   47 1    
    90   45  122 1    
    91   46  123 1    
    92   46  124 1    
    93   46  125 1    
    94   47   48 am   BACKBONE|DICT|INTERRES
    95   47  126 1    
    96   48   49 2    
    97   48   50 1    
    98   50   51 1    
    99   50   52 1    
   100   50  127 1    
   101   51  128 1    
   102   51  129 1    
   103   51  130 1    
   104   52   53 am   BACKBONE|DICT|INTERRES
   105   52  131 1    
   106   53   54 2    
   107   53   55 1    
   108   55   56 1    
   109   55   59 1    
   110   55  132 1    
   111   56   57 1    
   112   56  133 1    
   113   56  134 1    
   114   57   58 1    
   115   58  135 1    
   116   58  136 1    
   117   59   60 am   BACKBONE|DICT|INTERRES
   118   59  137 1    
   119   60   61 2    
   120   60   62 1    
   121   62   63 1    
   122   62   64 1    
   123   62  138 1    
   124   63  139 1    
   125   63  140 1    
   126   63  141 1    
   127   64   65 am   BACKBONE|DICT|INTERRES
   128   64  142 1    
   129   65   66 2    
   130   65   67 1    
   131   67   68 1    
   132   67   69 1    
   133   67  143 1    
   134   68  144 1    
   135   68  145 1    
   136   68  146 1    
   137   69   70 am   BACKBONE|DICT|INTERRES
   138   69  147 1    
   139   70   71 2    
   140   70   72 1    
   141   72   73 1    
   142   72   74 1    
   143   72  148 1    
   144   73  149 1    
   145   73  150 1    
   146   73  151 1    
   147   74   75 am   BACKBONE|DICT|INTERRES
   148   74  152 1    
   149   75   76 2    
   150   75   77 1    
   151   77   78 1    
   152   77   79 1    
   153   77  153 1    
   154   78  154 1    
   155   78  155 1    
   156   78  156 1    
   157   79   80 am   BACKBONE|DICT|INTERRES
   158   79  157 1    
   159   80   81 2    
@<TRIPOS>SUBSTRUCTURE
     1 UNK         1 GROUP             0       ****    0 ROOT    
