@<TRIPOS>MOLECULE
3R207
157   159    1
SMALL
USER_CHARGES


@<TRIPOS>ATOM
      1 CA        -51.0612  -23.1125    6.0348 C.3       0 UNK        -0.1975 
      2 C         -51.0719  -24.5988    5.7091 C.2       0 UNK         0.4852 
      3 O         -51.6143  -24.9868    4.6740 O.2       0 UNK        -0.5216 
      4 N         -50.4797  -25.4127    6.5921 N.am      1 UNK        -0.4461 
      5 CA        -50.2509  -26.8568    6.4954 C.3       1 UNK         0.0864 
      6 C6        -51.4896  -27.6815    6.0532 C.3       14 UNK        -0.0898 
      7 S7        -51.5163  -29.3327    6.8269 S.3       14 UNK        -0.2598 
      8 C8        -52.7877  -29.1124    8.1122 C.3       14 UNK         0.0286 
      9 C9        -52.3129  -28.2208    9.2515 C.ar      14 UNK        -0.0844 
     10 C10       -52.6233  -26.8566    9.2619 C.ar      14 UNK        -0.0881 
     11 C11       -52.2416  -26.0488   10.3368 C.ar      14 UNK        -0.0643 
     12 C12       -51.5593  -26.6208   11.4128 C.ar      14 UNK        -0.0930 
     13 C13       -51.2215  -27.9779   11.4066 C.ar      14 UNK        -0.0827 
     14 C14       -51.5954  -28.7710   10.3178 C.ar      14 UNK        -0.1249 
     15 C15       -50.4464  -28.5813   12.5711 C.3       14 UNK         0.0141 
     16 S16       -51.3091  -28.3645   14.1604 S.3       14 UNK        -0.2313 
     17 C17       -52.4489  -29.7885   14.1974 C.3       14 UNK        -0.0915 
     18 CA        -53.6466  -29.7257   13.2076 C.3       13 UNK         0.0968 
     19 C         -54.6289  -30.9101   13.4500 C.2       13 UNK         0.5732 
     20 N         -55.9004  -30.6836   13.7643 N.am      13 UNK        -0.7310 
     21 O         -54.2263  -32.0665   13.3484 O.2       13 UNK        -0.5035 
     22 N         -54.2861  -28.4029   13.1665 N.am      13 UNK        -0.4233 
     23 C         -55.0501  -27.9677   12.1543 C.2       13 UNK         0.4989 
     24 O         -55.2646  -28.6193   11.1301 O.2       13 UNK        -0.4996 
     25 CA        -55.7084  -26.5825   12.3318 C.3       12 UNK         0.0216 
     26 CB        -56.8797  -26.3471   11.3549 C.3       12 UNK        -0.1964 
     27 N         -56.1309  -26.3125   13.7134 N.am      12 UNK        -0.4276 
     28 C         -56.9264  -27.0739   14.4796 C.2       12 UNK         0.5020 
     29 O         -57.4660  -28.1185   14.1070 O.2       12 UNK        -0.5489 
     30 CA        -57.0751  -26.6311   15.9452 C.3       11 UNK         0.0294 
     31 CB        -58.5550  -26.5680   16.3600 C.3       11 UNK        -0.2019 
     32 N         -56.3542  -27.5321   16.8502 N.am      11 UNK        -0.4493 
     33 C         -55.0405  -27.7894   16.7989 C.2       11 UNK         0.4932 
     34 O         -54.2661  -27.2703   15.9888 O.2       11 UNK        -0.5029 
     35 CA        -54.5016  -28.8019   17.8156 C.3       10 UNK         0.0280 
     36 CB        -54.9439  -30.2382   17.4686 C.3       10 UNK        -0.1976 
     37 N         -53.0473  -28.6836   17.8210 N.am      10 UNK        -0.4242 
     38 C         -52.2022  -29.1772   18.7310 C.2       10 UNK         0.5072 
     39 O         -52.5433  -29.8899   19.6761 O.2       10 UNK        -0.5224 
     40 CA        -50.7201  -28.7890   18.5743 C.3       9 UNK         0.0343 
     41 CB        -49.9905  -29.7887   17.6621 C.3       9 UNK        -0.2003 
     42 N         -50.5164  -27.4259   18.0681 N.am      9 UNK        -0.4272 
     43 C         -50.8588  -26.3048   18.7229 C.2       9 UNK         0.4988 
     44 O         -51.4099  -26.3092   19.8248 O.2       9 UNK        -0.5108 
     45 CA        -50.5134  -24.9538   18.0633 C.3       8 UNK         0.0248 
     46 CB        -50.0811  -23.9061   19.1071 C.3       8 UNK        -0.2001 
     47 N         -49.4543  -25.0747   17.0558 N.am      8 UNK        -0.4140 
     48 C         -49.6559  -25.1398   15.7353 C.2       8 UNK         0.5028 
     49 O         -50.7693  -25.1073   15.2052 O.2       8 UNK        -0.5428 
     50 CA        -48.3994  -25.2820   14.8648 C.3       7 UNK         0.0264 
     51 CB        -47.7336  -26.6566   15.0634 C.3       7 UNK        -0.1988 
     52 N         -48.7900  -25.1391   13.4655 N.am      7 UNK        -0.4454 
     53 C         -48.1938  -24.3580   12.5607 C.2       7 UNK         0.5027 
     54 O         -47.1673  -23.7074   12.7807 O.2       7 UNK        -0.5083 
     55 CA        -48.8797  -24.2745   11.1856 C.3       6 UNK         0.0844 
     56 C56       -50.1594  -23.3978   11.2534 C.3       14 UNK        -0.0967 
     57 S57       -51.2049  -23.5350    9.7618 S.3       14 UNK        -0.2604 
     58 C58       -52.5899  -24.5669   10.3461 C.3       14 UNK         0.0134 
     59 N         -47.8957  -23.7585   10.2356 N.am      6 UNK        -0.4116 
     60 C         -47.6840  -24.2287    9.0049 C.2       5 UNK         0.5034 
     61 O         -48.3574  -25.1191    8.4829 O.2       5 UNK        -0.5045 
     62 CA        -46.4915  -23.6259    8.2480 C.3       5 UNK         0.0224 
     63 CB        -45.1764  -24.2757    8.7098 C.3       5 UNK        -0.1978 
     64 N         -46.6418  -23.8355    6.8081 N.am      5 UNK        -0.4737 
     65 C         -47.2710  -22.9891    5.9818 C.2       4 UNK         0.5027 
     66 O         -47.7263  -21.9056    6.3506 O.2       4 UNK        -0.5211 
     67 CA        -47.4540  -23.4146    4.5093 C.3       4 UNK         0.0297 
     68 CB        -47.3014  -22.2331    3.5278 C.3       4 UNK        -0.1993 
     69 N         -46.6296  -24.5601    4.1068 N.am      4 UNK        -0.4486 
     70 C         -45.2915  -24.6192    4.0049 C.2       3 UNK         0.4961 
     71 O         -44.5493  -23.6485    4.1606 O.2       3 UNK        -0.5105 
     72 CA        -44.6775  -26.0033    3.6909 C.3       3 UNK         0.0299 
     73 CB        -43.2475  -26.1545    4.2532 C.3       3 UNK        -0.1972 
     74 N         -45.5190  -27.1353    4.1091 N.am      3 UNK        -0.4305 
     75 C         -45.9513  -27.3974    5.3514 C.2       2 UNK         0.5006 
     76 O         -45.6517  -26.7336    6.3452 O.2       2 UNK        -0.5106 
     77 CA        -46.9406  -28.5655    5.4958 C.3       2 UNK         0.0296 
     78 CB        -46.3250  -29.7036    6.3258 C.3       2 UNK        -0.2002 
     79 N         -48.1961  -28.1335    6.1167 N.am      2 UNK        -0.4032 
     80 C         -49.0014  -27.1683    5.6479 C.2       1 UNK         0.5000 
     81 O         -48.7901  -26.5593    4.5939 O.2       1 UNK        -0.5238 
     82 H82       -52.0652  -22.7776    6.2938 H         1 UNK         0.0889 
     83 H83       -50.7194  -22.5385    5.1740 H         1 UNK         0.0889 
     84 H84       -50.4004  -22.8854    6.8716 H         1 UNK         0.0889 
     85 H85       -50.0075  -25.0041    7.3945 H         1 UNK         0.3028 
     86 H86       -50.0154  -27.1318    7.5255 H         1 UNK         0.0864 
     87 H87       -51.5263  -27.7947    4.9679 H         1 UNK         0.0720 
     88 H88       -52.4107  -27.1618    6.3171 H         1 UNK         0.0720 
     89 H89       -53.0571  -30.0925    8.5088 H         1 UNK         0.0814 
     90 H90       -53.6996  -28.7123    7.6662 H         1 UNK         0.0814 
     91 H91       -53.1731  -26.4235    8.4382 H         1 UNK         0.1469 
     92 H92       -51.2972  -26.0096   12.2628 H         1 UNK         0.1381 
     93 H93       -51.3485  -29.8237   10.3075 H         1 UNK         0.1206 
     94 H94       -50.2444  -29.6409   12.4075 H         1 UNK         0.0813 
     95 H95       -49.4740  -28.0914   12.6299 H         1 UNK         0.0813 
     96 H96       -52.8144  -29.8587   15.2210 H         1 UNK         0.0638 
     97 H97       -51.8660  -30.6956   14.0284 H         1 UNK         0.0638 
     98 H98       -53.2384  -29.9056   12.2133 H         1 UNK         0.0568 
     99 H99       -56.5136  -31.4689   13.9100 H         1 UNK         0.3450 
    100 H100      -56.2710  -29.7414   13.8258 H         1 UNK         0.3450 
    101 H101      -54.1751  -27.8313   13.9967 H         1 UNK         0.2987 
    102 H102      -54.9317  -25.8529   12.0985 H         1 UNK         0.0766 
    103 H103      -56.5484  -26.4292   10.3188 H         1 UNK         0.0798 
    104 H104      -57.3065  -25.3519   11.4787 H         1 UNK         0.0798 
    105 H105      -57.6779  -27.0757   11.5012 H         1 UNK         0.0798 
    106 H106      -55.6917  -25.5126   14.1490 H         1 UNK         0.3198 
    107 H107      -56.6497  -25.6317   16.0603 H         1 UNK         0.0843 
    108 H108      -59.0318  -27.5480   16.3111 H         1 UNK         0.0831 
    109 H109      -59.1150  -25.9018   15.7023 H         1 UNK         0.0831 
    110 H110      -58.6686  -26.1889   17.3758 H         1 UNK         0.0831 
    111 H111      -56.9150  -28.0241   17.5309 H         1 UNK         0.3133 
    112 H112      -54.8764  -28.5297   18.8042 H         1 UNK         0.0566 
    113 H113      -54.5901  -30.5487   16.4870 H         1 UNK         0.0814 
    114 H114      -56.0309  -30.3247   17.4602 H         1 UNK         0.0814 
    115 H115      -54.5748  -30.9594   18.1974 H         1 UNK         0.0814 
    116 H116      -52.6922  -28.0825   17.0852 H         1 UNK         0.3091 
    117 H117      -50.2639  -28.8419   19.5651 H         1 UNK         0.0702 
    118 H118      -48.9244  -29.5690   17.6027 H         1 UNK         0.0785 
    119 H119      -50.3923  -29.7820   16.6489 H         1 UNK         0.0785 
    120 H120      -50.0897  -30.8061   18.0431 H         1 UNK         0.0785 
    121 H121      -50.0875  -27.3358   17.1592 H         1 UNK         0.2998 
    122 H122      -51.4319  -24.5934   17.5951 H         1 UNK         0.0697 
    123 H123      -49.2006  -24.2295   19.6636 H         1 UNK         0.0825 
    124 H124      -50.8749  -23.7196   19.8318 H         1 UNK         0.0825 
    125 H125      -49.8490  -22.9504   18.6368 H         1 UNK         0.0825 
    126 H126      -48.5084  -25.1291   17.4082 H         1 UNK         0.3029 
    127 H127      -47.7010  -24.4916   15.1496 H         1 UNK         0.0897 
    128 H128      -48.4239  -27.4758   14.8604 H         1 UNK         0.0792 
    129 H129      -47.3719  -26.7802   16.0847 H         1 UNK         0.0792 
    130 H130      -46.8738  -26.7760   14.4039 H         1 UNK         0.0792 
    131 H131      -49.6849  -25.5574   13.2527 H         1 UNK         0.3086 
    132 H132      -49.1514  -25.2947   10.9070 H         1 UNK         0.0583 
    133 H133      -50.7654  -23.6459   12.1265 H         1 UNK         0.1020 
    134 H134      -49.8890  -22.3479   11.3809 H         1 UNK         0.1020 
    135 H135      -52.8991  -24.2545   11.3445 H         1 UNK         0.0694 
    136 H136      -53.4491  -24.3862    9.6984 H         1 UNK         0.0694 
    137 H137      -47.2494  -23.0911   10.6359 H         1 UNK         0.2989 
    138 H138      -46.4455  -22.5551    8.4599 H         1 UNK         0.1055 
    139 H139      -45.1957  -25.3592    8.5860 H         1 UNK         0.0806 
    140 H140      -44.9870  -24.0736    9.7648 H         1 UNK         0.0806 
    141 H141      -44.3249  -23.8907    8.1484 H         1 UNK         0.0806 
    142 H142      -46.3443  -24.7405    6.4583 H         1 UNK         0.3061 
    143 H143      -48.4838  -23.7635    4.4314 H         1 UNK         0.0734 
    144 H144      -46.3206  -21.7636    3.6055 H         1 UNK         0.0832 
    145 H145      -47.4417  -22.5528    2.4954 H         1 UNK         0.0832 
    146 H146      -48.0443  -21.4604    3.7291 H         1 UNK         0.0832 
    147 H147      -47.1520  -25.4256    4.0044 H         1 UNK         0.3156 
    148 H148      -44.6112  -26.0608    2.6035 H         1 UNK         0.0589 
    149 H149      -42.8278  -27.1317    4.0150 H         1 UNK         0.0808 
    150 H150      -42.5776  -25.4051    3.8297 H         1 UNK         0.0808 
    151 H151      -43.2243  -26.0342    5.3369 H         1 UNK         0.0808 
    152 H152      -45.8462  -27.7293    3.3588 H         1 UNK         0.3098 
    153 H153      -47.1823  -28.9555    4.5050 H         1 UNK         0.0720 
    154 H154      -46.0913  -29.3809    7.3415 H         1 UNK         0.0791 
    155 H155      -45.3966  -30.0568    5.8748 H         1 UNK         0.0791 
    156 H156      -46.9985  -30.5585    6.3908 H         1 UNK         0.0791 
    157 H157      -48.4385  -28.5775    6.9904 H         1 UNK         0.3028 
@<TRIPOS>BOND
     1    1    2 1    
     2    1   82 1    
     3    1   83 1    
     4    1   84 1    
     5    2    3 2    
     6    2    4 am   BACKBONE|DICT|INTERRES
     7    4    5 1    
     8    4   85 1    
     9    5    6 1    
    10    5   80 1    
    11    5   86 1    
    12    6    7 1    
    13    6   87 1    
    14    6   88 1    
    15    7    8 1    
    16    8    9 1    
    17    8   89 1    
    18    8   90 1    
    19    9   10 ar   
    20    9   14 ar   
    21   10   11 ar   
    22   10   91 1    
    23   11   12 ar   
    24   11   58 1    
    25   12   13 ar   
    26   12   92 1    
    27   13   14 ar   
    28   13   15 1    
    29   14   93 1    
    30   15   16 1    
    31   15   94 1    
    32   15   95 1    
    33   16   17 1    
    34   17   18 1    
    35   17   96 1    
    36   17   97 1    
    37   18   19 1    
    38   18   22 1    
    39   18   98 1    
    40   19   20 am   BACKBONE|DICT|INTERRES
    41   19   21 2    
    42   20   99 1    
    43   20  100 1    
    44   22   23 am   BACKBONE|DICT|INTERRES
    45   22  101 1    
    46   23   24 2    
    47   23   25 1    
    48   25   26 1    
    49   25   27 1    
    50   25  102 1    
    51   26  103 1    
    52   26  104 1    
    53   26  105 1    
    54   27   28 am   BACKBONE|DICT|INTERRES
    55   27  106 1    
    56   28   29 2    
    57   28   30 1    
    58   30   31 1    
    59   30   32 1    
    60   30  107 1    
    61   31  108 1    
    62   31  109 1    
    63   31  110 1    
    64   32   33 am   BACKBONE|DICT|INTERRES
    65   32  111 1    
    66   33   34 2    
    67   33   35 1    
    68   35   36 1    
    69   35   37 1    
    70   35  112 1    
    71   36  113 1    
    72   36  114 1    
    73   36  115 1    
    74   37   38 am   BACKBONE|DICT|INTERRES
    75   37  116 1    
    76   38   39 2    
    77   38   40 1    
    78   40   41 1    
    79   40   42 1    
    80   40  117 1    
    81   41  118 1    
    82   41  119 1    
    83   41  120 1    
    84   42   43 am   BACKBONE|DICT|INTERRES
    85   42  121 1    
    86   43   44 2    
    87   43   45 1    
    88   45   46 1    
    89   45   47 1    
    90   45  122 1    
    91   46  123 1    
    92   46  124 1    
    93   46  125 1    
    94   47   48 am   BACKBONE|DICT|INTERRES
    95   47  126 1    
    96   48   49 2    
    97   48   50 1    
    98   50   51 1    
    99   50   52 1    
   100   50  127 1    
   101   51  128 1    
   102   51  129 1    
   103   51  130 1    
   104   52   53 am   BACKBONE|DICT|INTERRES
   105   52  131 1    
   106   53   54 2    
   107   53   55 1    
   108   55   56 1    
   109   55   59 1    
   110   55  132 1    
   111   56   57 1    
   112   56  133 1    
   113   56  134 1    
   114   57   58 1    
   115   58  135 1    
   116   58  136 1    
   117   59   60 am   BACKBONE|DICT|INTERRES
   118   59  137 1    
   119   60   61 2    
   120   60   62 1    
   121   62   63 1    
   122   62   64 1    
   123   62  138 1    
   124   63  139 1    
   125   63  140 1    
   126   63  141 1    
   127   64   65 am   BACKBONE|DICT|INTERRES
   128   64  142 1    
   129   65   66 2    
   130   65   67 1    
   131   67   68 1    
   132   67   69 1    
   133   67  143 1    
   134   68  144 1    
   135   68  145 1    
   136   68  146 1    
   137   69   70 am   BACKBONE|DICT|INTERRES
   138   69  147 1    
   139   70   71 2    
   140   70   72 1    
   141   72   73 1    
   142   72   74 1    
   143   72  148 1    
   144   73  149 1    
   145   73  150 1    
   146   73  151 1    
   147   74   75 am   BACKBONE|DICT|INTERRES
   148   74  152 1    
   149   75   76 2    
   150   75   77 1    
   151   77   78 1    
   152   77   79 1    
   153   77  153 1    
   154   78  154 1    
   155   78  155 1    
   156   78  156 1    
   157   79   80 am   BACKBONE|DICT|INTERRES
   158   79  157 1    
   159   80   81 2    
@<TRIPOS>SUBSTRUCTURE
     1 UNK         1 GROUP             0       ****    0 ROOT    
