@<TRIPOS>MOLECULE
3R207
157   159    1
SMALL
USER_CHARGES


@<TRIPOS>ATOM
      1 CA        -48.4315  -31.0069    8.7720 C.3       0 UNK        -0.1975 
      2 C         -49.1961  -29.8791    8.0961 C.2       0 UNK         0.4852 
      3 O         -49.5685  -28.9177    8.7634 O.2       0 UNK        -0.5216 
      4 N         -49.4178  -29.9907    6.7780 N.am      1 UNK        -0.4461 
      5 CA        -50.1542  -29.0517    5.9108 C.3       1 UNK         0.0864 
      6 C6        -51.6304  -28.8156    6.3347 C.3       14 UNK        -0.0898 
      7 S7        -52.6233  -30.3443    6.4898 S.3       14 UNK        -0.2598 
      8 C8        -52.9509  -30.4490    8.2832 C.3       14 UNK         0.0286 
      9 C9        -53.6816  -29.2224    8.8132 C.ar      14 UNK        -0.0844 
     10 C10       -52.9760  -28.2412    9.5140 C.ar      14 UNK        -0.0881 
     11 C11       -53.6083  -27.0676    9.9265 C.ar      14 UNK        -0.0643 
     12 C12       -54.9771  -26.9066    9.6914 C.ar      14 UNK        -0.0930 
     13 C13       -55.7059  -27.8999    9.0297 C.ar      14 UNK        -0.0827 
     14 C14       -55.0501  -29.0530    8.5844 C.ar      14 UNK        -0.1249 
     15 C15       -57.1893  -27.6948    8.7560 C.3       14 UNK         0.0141 
     16 S16       -58.2339  -28.3325   10.1054 S.3       14 UNK        -0.2313 
     17 C17       -58.2875  -30.1160    9.7163 C.3       14 UNK        -0.0915 
     18 CA        -57.8625  -31.0275   10.8968 C.3       13 UNK         0.0968 
     19 C         -57.9067  -32.5175   10.4563 C.2       13 UNK         0.5732 
     20 N         -59.0301  -33.1926   10.6586 N.am      13 UNK        -0.7310 
     21 O         -56.9512  -33.0478    9.8918 O.2       13 UNK        -0.5035 
     22 N         -56.5676  -30.6220   11.4634 N.am      13 UNK        -0.4233 
     23 C         -55.9700  -31.1845   12.5230 C.2       13 UNK         0.4989 
     24 O         -56.4376  -32.1246   13.1671 O.2       13 UNK        -0.4996 
     25 CA        -54.6314  -30.5712   12.9631 C.3       12 UNK         0.0216 
     26 CB        -53.4677  -31.1555   12.1467 C.3       12 UNK        -0.1964 
     27 N         -54.6198  -29.1098   12.8650 N.am      12 UNK        -0.4276 
     28 C         -55.2916  -28.2937   13.6883 C.2       12 UNK         0.5020 
     29 O         -55.9943  -28.6803   14.6247 O.2       12 UNK        -0.5489 
     30 CA        -55.1261  -26.7840   13.4452 C.3       11 UNK         0.0294 
     31 CB        -56.4885  -26.0756   13.3592 C.3       11 UNK        -0.2019 
     32 N         -54.3045  -26.1519   14.4805 N.am      11 UNK        -0.4493 
     33 C         -53.0163  -26.4357   14.7177 C.2       11 UNK         0.4932 
     34 O         -52.3514  -27.2259   14.0412 O.2       11 UNK        -0.5029 
     35 CA        -52.3621  -25.7237   15.9111 C.3       10 UNK         0.0280 
     36 CB        -53.0968  -26.0312   17.2329 C.3       10 UNK        -0.1976 
     37 N         -50.9750  -26.1692   15.9956 N.am      10 UNK        -0.4242 
     38 C         -49.9736  -25.5712   16.6483 C.2       10 UNK         0.5072 
     39 O         -50.1026  -24.5269   17.2899 O.2       10 UNK        -0.5224 
     40 CA        -48.6022  -26.2687   16.6154 C.3       9 UNK         0.0343 
     41 CB        -48.6192  -27.6759   15.9797 C.3       9 UNK        -0.2003 
     42 N         -47.6459  -25.4335   15.8934 N.am      9 UNK        -0.4272 
     43 C         -46.7060  -24.6684   16.4626 C.2       9 UNK         0.4988 
     44 O         -46.5220  -24.5871   17.6783 O.2       9 UNK        -0.5108 
     45 CA        -45.7930  -23.8729   15.5148 C.3       8 UNK         0.0248 
     46 CB        -44.7114  -24.7867   14.9155 C.3       8 UNK        -0.2001 
     47 N         -46.5233  -23.1986   14.4389 N.am      8 UNK        -0.4140 
     48 C         -47.3389  -22.1493   14.6191 C.2       8 UNK         0.5028 
     49 O         -47.5432  -21.6182   15.7116 O.2       8 UNK        -0.5428 
     50 CA        -48.0398  -21.5835   13.3716 C.3       7 UNK         0.0264 
     51 CB        -47.1012  -20.6442   12.5970 C.3       7 UNK        -0.1988 
     52 N         -48.5425  -22.6258   12.4749 N.am      7 UNK        -0.4454 
     53 C         -49.5507  -23.4591   12.7722 C.2       7 UNK         0.5027 
     54 O         -50.2074  -23.3948   13.8113 O.2       7 UNK        -0.5083 
     55 CA        -49.8807  -24.5595   11.7429 C.3       6 UNK         0.0844 
     56 C56       -50.8449  -24.0067   10.6648 C.3       14 UNK        -0.0967 
     57 S57       -51.4981  -25.2987    9.5616 S.3       14 UNK        -0.2604 
     58 C58       -52.8072  -25.9802   10.6255 C.3       14 UNK         0.0134 
     59 N         -48.6739  -25.1764   11.1784 N.am      6 UNK        -0.4116 
     60 C         -47.7451  -25.8208   11.9018 C.2       5 UNK         0.5034 
     61 O         -47.8342  -26.0229   13.1121 O.2       5 UNK        -0.5045 
     62 CA        -46.4612  -26.2446   11.1751 C.3       5 UNK         0.0224 
     63 CB        -46.6504  -27.5726   10.4248 C.3       5 UNK        -0.1978 
     64 N         -45.9913  -25.1998   10.2629 N.am      5 UNK        -0.4737 
     65 C         -45.4618  -24.0375   10.6729 C.2       4 UNK         0.5027 
     66 O         -45.2727  -23.7563   11.8551 O.2       4 UNK        -0.5211 
     67 CA        -45.1245  -22.9967    9.5920 C.3       4 UNK         0.0297 
     68 CB        -43.7188  -23.2472    9.0245 C.3       4 UNK        -0.1993 
     69 N         -46.0986  -22.9752    8.4994 N.am      4 UNK        -0.4486 
     70 C         -47.3878  -22.6315    8.6337 C.2       3 UNK         0.4961 
     71 O         -47.8834  -22.2292    9.6857 O.2       3 UNK        -0.5105 
     72 CA        -48.2862  -22.8250    7.3987 C.3       3 UNK         0.0299 
     73 CB        -48.2868  -21.5588    6.5284 C.3       3 UNK        -0.1972 
     74 N         -47.9108  -23.9874    6.5830 N.am      3 UNK        -0.4305 
     75 C         -47.9127  -25.2521    7.0267 C.2       2 UNK         0.5006 
     76 O         -48.2180  -25.5698    8.1772 O.2       2 UNK        -0.5106 
     77 CA        -47.3992  -26.3264    6.0562 C.3       2 UNK         0.0296 
     78 CB        -45.9265  -26.6518    6.3581 C.3       2 UNK        -0.2002 
     79 N         -48.1898  -27.5529    6.1584 N.am      2 UNK        -0.4032 
     80 C         -49.4259  -27.7057    5.6634 C.2       1 UNK         0.5000 
     81 O         -49.9845  -26.8374    4.9883 O.2       1 UNK        -0.5238 
     82 H82       -49.0454  -31.4590    9.5506 H         1 UNK         0.0889 
     83 H83       -47.5247  -30.6193    9.2358 H         1 UNK         0.0889 
     84 H84       -48.1464  -31.7884    8.0679 H         1 UNK         0.0889 
     85 H85       -49.0716  -30.8117    6.3005 H         1 UNK         0.3028 
     86 H86       -50.1807  -29.5346    4.9328 H         1 UNK         0.0864 
     87 H87       -52.1407  -28.1970    5.5943 H         1 UNK         0.0720 
     88 H88       -51.6598  -28.2387    7.2563 H         1 UNK         0.0720 
     89 H89       -52.0093  -30.5946    8.8138 H         1 UNK         0.0814 
     90 H90       -53.5500  -31.3393    8.4796 H         1 UNK         0.0814 
     91 H91       -51.9159  -28.3619    9.6930 H         1 UNK         0.1469 
     92 H92       -55.4764  -26.0031   10.0143 H         1 UNK         0.1381 
     93 H93       -55.5932  -29.8098    8.0360 H         1 UNK         0.1206 
     94 H94       -57.3951  -26.6302    8.6343 H         1 UNK         0.0813 
     95 H95       -57.4731  -28.1607    7.8110 H         1 UNK         0.0813 
     96 H96       -57.6708  -30.3188    8.8404 H         1 UNK         0.0638 
     97 H97       -59.3104  -30.3501    9.4157 H         1 UNK         0.0638 
     98 H98       -58.5937  -30.8965   11.6967 H         1 UNK         0.0568 
     99 H99       -59.8243  -32.7632   11.1071 H         1 UNK         0.3450 
    100 H100      -59.0819  -34.1550   10.3634 H         1 UNK         0.3450 
    101 H101      -56.1101  -29.8534   10.9963 H         1 UNK         0.2987 
    102 H102      -54.4731  -30.8381   14.0105 H         1 UNK         0.0766 
    103 H103      -53.4211  -32.2396   12.2586 H         1 UNK         0.0798 
    104 H104      -52.5088  -30.7542   12.4756 H         1 UNK         0.0798 
    105 H105      -53.5746  -30.9448   11.0836 H         1 UNK         0.0798 
    106 H106      -54.0328  -28.7051   12.1492 H         1 UNK         0.3198 
    107 H107      -54.6246  -26.6413   12.4924 H         1 UNK         0.0843 
    108 H108      -57.0378  -26.1365   14.2996 H         1 UNK         0.0831 
    109 H109      -57.1131  -26.5295   12.5882 H         1 UNK         0.0831 
    110 H110      -56.3743  -25.0223   13.1028 H         1 UNK         0.0831 
    111 H111      -54.7792  -25.5101   15.0987 H         1 UNK         0.3133 
    112 H112      -52.3778  -24.6494   15.7163 H         1 UNK         0.0566 
    113 H113      -53.1278  -27.1030   17.4336 H         1 UNK         0.0814 
    114 H114      -54.1260  -25.6722   17.2129 H         1 UNK         0.0814 
    115 H115      -52.6120  -25.5484   18.0815 H         1 UNK         0.0814 
    116 H116      -50.7823  -26.9870   15.4290 H         1 UNK         0.3091 
    117 H117      -48.2897  -26.3881   17.6548 H         1 UNK         0.0702 
    118 H118      -47.6310  -28.1338   16.0262 H         1 UNK         0.0785 
    119 H119      -48.9180  -27.6547   14.9310 H         1 UNK         0.0785 
    120 H120      -49.3019  -28.3414   16.5100 H         1 UNK         0.0785 
    121 H121      -47.7204  -25.4511   14.8782 H         1 UNK         0.2998 
    122 H122      -45.2905  -23.1054   16.1075 H         1 UNK         0.0697 
    123 H123      -43.9984  -24.2175   14.3188 H         1 UNK         0.0825 
    124 H124      -45.1429  -25.5567   14.2751 H         1 UNK         0.0825 
    125 H125      -44.1467  -25.2919   15.7002 H         1 UNK         0.0825 
    126 H126      -46.3448  -23.5242   13.4929 H         1 UNK         0.3029 
    127 H127      -48.8963  -20.9979   13.7131 H         1 UNK         0.0897 
    128 H128      -46.2271  -21.1712   12.2139 H         1 UNK         0.0792 
    129 H129      -46.7416  -19.8375   13.2371 H         1 UNK         0.0792 
    130 H130      -47.6111  -20.1842   11.7502 H         1 UNK         0.0792 
    131 H131      -48.1148  -22.6843   11.5540 H         1 UNK         0.3086 
    132 H132      -50.4017  -25.3454   12.2934 H         1 UNK         0.0583 
    133 H133      -51.6902  -23.4917   11.1262 H         1 UNK         0.1020 
    134 H134      -50.3428  -23.2581   10.0504 H         1 UNK         0.1020 
    135 H135      -52.3531  -26.4011   11.5219 H         1 UNK         0.0694 
    136 H136      -53.4602  -25.1690   10.9512 H         1 UNK         0.0694 
    137 H137      -48.5488  -25.1083   10.1733 H         1 UNK         0.2989 
    138 H138      -45.6913  -26.3997   11.9344 H         1 UNK         0.1055 
    139 H139      -45.7268  -27.8928    9.9428 H         1 UNK         0.0806 
    140 H140      -47.4234  -27.5048    9.6604 H         1 UNK         0.0806 
    141 H141      -46.9495  -28.3654   11.1117 H         1 UNK         0.0806 
    142 H142      -46.2003  -25.3241    9.2822 H         1 UNK         0.3061 
    143 H143      -45.1320  -22.0129   10.0659 H         1 UNK         0.0734 
    144 H144      -43.6512  -24.2098    8.5158 H         1 UNK         0.0832 
    145 H145      -43.4318  -22.4702    8.3157 H         1 UNK         0.0832 
    146 H146      -42.9731  -23.2473    9.8209 H         1 UNK         0.0832 
    147 H147      -45.7792  -23.2840    7.5932 H         1 UNK         0.3156 
    148 H148      -49.3040  -22.9922    7.7574 H         1 UNK         0.0589 
    149 H149      -48.9908  -21.6460    5.7005 H         1 UNK         0.0808 
    150 H150      -47.3003  -21.3516    6.1118 H         1 UNK         0.0808 
    151 H151      -48.5837  -20.6860    7.1120 H         1 UNK         0.0808 
    152 H152      -47.6374  -23.8043    5.6278 H         1 UNK         0.3098 
    153 H153      -47.4702  -25.9501    5.0333 H         1 UNK         0.0720 
    154 H154      -45.3010  -25.7626    6.2693 H         1 UNK         0.0791 
    155 H155      -45.5338  -27.3915    5.6601 H         1 UNK         0.0791 
    156 H156      -45.7964  -27.0434    7.3679 H         1 UNK         0.0791 
    157 H157      -47.8257  -28.2847    6.7493 H         1 UNK         0.3028 
@<TRIPOS>BOND
     1    1    2 1    
     2    1   82 1    
     3    1   83 1    
     4    1   84 1    
     5    2    3 2    
     6    2    4 am   BACKBONE|DICT|INTERRES
     7    4    5 1    
     8    4   85 1    
     9    5    6 1    
    10    5   80 1    
    11    5   86 1    
    12    6    7 1    
    13    6   87 1    
    14    6   88 1    
    15    7    8 1    
    16    8    9 1    
    17    8   89 1    
    18    8   90 1    
    19    9   10 ar   
    20    9   14 ar   
    21   10   11 ar   
    22   10   91 1    
    23   11   12 ar   
    24   11   58 1    
    25   12   13 ar   
    26   12   92 1    
    27   13   14 ar   
    28   13   15 1    
    29   14   93 1    
    30   15   16 1    
    31   15   94 1    
    32   15   95 1    
    33   16   17 1    
    34   17   18 1    
    35   17   96 1    
    36   17   97 1    
    37   18   19 1    
    38   18   22 1    
    39   18   98 1    
    40   19   20 am   BACKBONE|DICT|INTERRES
    41   19   21 2    
    42   20   99 1    
    43   20  100 1    
    44   22   23 am   BACKBONE|DICT|INTERRES
    45   22  101 1    
    46   23   24 2    
    47   23   25 1    
    48   25   26 1    
    49   25   27 1    
    50   25  102 1    
    51   26  103 1    
    52   26  104 1    
    53   26  105 1    
    54   27   28 am   BACKBONE|DICT|INTERRES
    55   27  106 1    
    56   28   29 2    
    57   28   30 1    
    58   30   31 1    
    59   30   32 1    
    60   30  107 1    
    61   31  108 1    
    62   31  109 1    
    63   31  110 1    
    64   32   33 am   BACKBONE|DICT|INTERRES
    65   32  111 1    
    66   33   34 2    
    67   33   35 1    
    68   35   36 1    
    69   35   37 1    
    70   35  112 1    
    71   36  113 1    
    72   36  114 1    
    73   36  115 1    
    74   37   38 am   BACKBONE|DICT|INTERRES
    75   37  116 1    
    76   38   39 2    
    77   38   40 1    
    78   40   41 1    
    79   40   42 1    
    80   40  117 1    
    81   41  118 1    
    82   41  119 1    
    83   41  120 1    
    84   42   43 am   BACKBONE|DICT|INTERRES
    85   42  121 1    
    86   43   44 2    
    87   43   45 1    
    88   45   46 1    
    89   45   47 1    
    90   45  122 1    
    91   46  123 1    
    92   46  124 1    
    93   46  125 1    
    94   47   48 am   BACKBONE|DICT|INTERRES
    95   47  126 1    
    96   48   49 2    
    97   48   50 1    
    98   50   51 1    
    99   50   52 1    
   100   50  127 1    
   101   51  128 1    
   102   51  129 1    
   103   51  130 1    
   104   52   53 am   BACKBONE|DICT|INTERRES
   105   52  131 1    
   106   53   54 2    
   107   53   55 1    
   108   55   56 1    
   109   55   59 1    
   110   55  132 1    
   111   56   57 1    
   112   56  133 1    
   113   56  134 1    
   114   57   58 1    
   115   58  135 1    
   116   58  136 1    
   117   59   60 am   BACKBONE|DICT|INTERRES
   118   59  137 1    
   119   60   61 2    
   120   60   62 1    
   121   62   63 1    
   122   62   64 1    
   123   62  138 1    
   124   63  139 1    
   125   63  140 1    
   126   63  141 1    
   127   64   65 am   BACKBONE|DICT|INTERRES
   128   64  142 1    
   129   65   66 2    
   130   65   67 1    
   131   67   68 1    
   132   67   69 1    
   133   67  143 1    
   134   68  144 1    
   135   68  145 1    
   136   68  146 1    
   137   69   70 am   BACKBONE|DICT|INTERRES
   138   69  147 1    
   139   70   71 2    
   140   70   72 1    
   141   72   73 1    
   142   72   74 1    
   143   72  148 1    
   144   73  149 1    
   145   73  150 1    
   146   73  151 1    
   147   74   75 am   BACKBONE|DICT|INTERRES
   148   74  152 1    
   149   75   76 2    
   150   75   77 1    
   151   77   78 1    
   152   77   79 1    
   153   77  153 1    
   154   78  154 1    
   155   78  155 1    
   156   78  156 1    
   157   79   80 am   BACKBONE|DICT|INTERRES
   158   79  157 1    
   159   80   81 2    
@<TRIPOS>SUBSTRUCTURE
     1 UNK         1 GROUP             0       ****    0 ROOT    
