@<TRIPOS>MOLECULE
3R207
157   159    1
SMALL
USER_CHARGES


@<TRIPOS>ATOM
      1 CA        -44.9513  -31.6870    6.4363 C.3       0 UNK        -0.1975 
      2 C         -46.1540  -30.8931    5.9483 C.2       0 UNK         0.4852 
      3 O         -46.3612  -30.7784    4.7398 O.2       0 UNK        -0.5216 
      4 N         -46.9468  -30.3452    6.8796 N.am      1 UNK        -0.4461 
      5 CA        -48.1493  -29.5486    6.6010 C.3       1 UNK         0.0864 
      6 C6        -48.9933  -29.3279    7.8846 C.3       14 UNK        -0.0898 
      7 S7        -50.0610  -30.7586    8.2408 S.3       14 UNK        -0.2598 
      8 C8        -51.4878  -30.4030    7.1607 C.3       14 UNK         0.0286 
      9 C9        -52.5006  -29.4695    7.8116 C.ar      14 UNK        -0.0844 
     10 C10       -52.3676  -28.0805    7.7041 C.ar      14 UNK        -0.0881 
     11 C11       -53.3142  -27.2284    8.2801 C.ar      14 UNK        -0.0643 
     12 C12       -54.4195  -27.7751    8.9414 C.ar      14 UNK        -0.0930 
     13 C13       -54.5797  -29.1615    9.0294 C.ar      14 UNK        -0.0827 
     14 C14       -53.6081  -30.0019    8.4785 C.ar      14 UNK        -0.1249 
     15 C15       -55.8252  -29.7572    9.6685 C.3       14 UNK         0.0141 
     16 S16       -55.5902  -30.0822   11.4399 S.3       14 UNK        -0.2313 
     17 C17       -57.1444  -30.9646   11.8249 C.3       14 UNK        -0.0915 
     18 CA        -58.2992  -30.0232   12.2592 C.3       13 UNK         0.0968 
     19 C         -59.5873  -30.8351   12.5633 C.2       13 UNK         0.5732 
     20 N         -60.4287  -31.0612   11.5637 N.am      13 UNK        -0.7310 
     21 O         -59.8074  -31.2969   13.6820 O.2       13 UNK        -0.5035 
     22 N         -57.8841  -29.1670   13.3742 N.am      13 UNK        -0.4233 
     23 C         -58.5612  -28.1272   13.8763 C.2       13 UNK         0.4989 
     24 O         -59.6724  -27.7682   13.4845 O.2       13 UNK        -0.4996 
     25 CA        -57.8554  -27.3276   14.9887 C.3       12 UNK         0.0216 
     26 CB        -58.3398  -27.7836   16.3745 C.3       12 UNK        -0.1964 
     27 N         -56.3942  -27.4439   14.9247 N.am      12 UNK        -0.4276 
     28 C         -55.6216  -26.9222   13.9633 C.2       12 UNK         0.5020 
     29 O         -56.0426  -26.1584   13.0926 O.2       12 UNK        -0.5489 
     30 CA        -54.1403  -27.3451   13.9812 C.3       11 UNK         0.0294 
     31 CB        -53.3542  -26.8049   12.7735 C.3       11 UNK        -0.2019 
     32 N         -53.4550  -26.9493   15.2131 N.am      11 UNK        -0.4493 
     33 C         -53.5785  -27.5379   16.4096 C.2       11 UNK         0.4932 
     34 O         -54.3532  -28.4724   16.6267 O.2       11 UNK        -0.5029 
     35 CA        -52.6542  -27.0158   17.5287 C.3       10 UNK         0.0280 
     36 CB        -52.8982  -27.7201   18.8766 C.3       10 UNK        -0.1976 
     37 N         -51.2467  -27.1764   17.1516 N.am      10 UNK        -0.4242 
     38 C         -50.5830  -26.3682   16.3154 C.2       10 UNK         0.5072 
     39 O         -51.0666  -25.3338   15.8504 O.2       10 UNK        -0.5224 
     40 CA        -49.1965  -26.8560   15.8653 C.3       9 UNK         0.0343 
     41 CB        -49.3468  -27.9597   14.8038 C.3       9 UNK        -0.2003 
     42 N         -48.3808  -25.7769   15.3072 N.am      9 UNK        -0.4272 
     43 C         -47.7941  -24.8146   16.0302 C.2       9 UNK         0.4988 
     44 O         -47.8456  -24.7525   17.2600 O.2       9 UNK        -0.5108 
     45 CA        -46.9861  -23.7578   15.2593 C.3       8 UNK         0.0248 
     46 CB        -45.5957  -24.3046   14.8964 C.3       8 UNK        -0.2001 
     47 N         -47.6610  -23.2796   14.0497 N.am      8 UNK        -0.4140 
     48 C         -48.7392  -22.4823   14.0494 C.2       8 UNK         0.5028 
     49 O         -49.2676  -22.0453   15.0730 O.2       8 UNK        -0.5428 
     50 CA        -49.3157  -22.0736   12.6808 C.3       7 UNK         0.0264 
     51 CB        -48.5489  -20.8709   12.1073 C.3       7 UNK        -0.1988 
     52 N         -49.3290  -23.1623   11.7002 N.am      7 UNK        -0.4454 
     53 C         -50.1026  -24.2548   11.7986 C.2       7 UNK         0.5027 
     54 O         -50.9095  -24.4310   12.7099 O.2       7 UNK        -0.5083 
     55 CA        -49.9231  -25.3543   10.7239 C.3       6 UNK         0.0844 
     56 C56       -50.7087  -25.0531    9.4201 C.3       14 UNK        -0.0967 
     57 S57       -52.5191  -24.9453    9.6548 S.3       14 UNK        -0.2604 
     58 C58       -53.1756  -25.7184    8.1433 C.3       14 UNK         0.0134 
     59 N         -48.5068  -25.6072   10.4415 N.am      6 UNK        -0.4116 
     60 C         -47.5911  -25.9994   11.3395 C.2       5 UNK         0.5034 
     61 O         -47.8413  -26.2665   12.5133 O.2       5 UNK        -0.5045 
     62 CA        -46.1324  -26.0359   10.8613 C.3       5 UNK         0.0224 
     63 CB        -45.8438  -27.3091   10.0486 C.3       5 UNK        -0.1978 
     64 N         -45.7872  -24.8439   10.0813 N.am      5 UNK        -0.4737 
     65 C         -45.6862  -23.6112   10.5997 C.2       4 UNK         0.5027 
     66 O         -45.8363  -23.3611   11.7937 O.2       4 UNK        -0.5211 
     67 CA        -45.4061  -22.4586    9.6213 C.3       4 UNK         0.0297 
     68 CB        -43.8975  -22.3295    9.3590 C.3       4 UNK        -0.1993 
     69 N         -46.1157  -22.6077    8.3493 N.am      4 UNK        -0.4486 
     70 C         -47.4491  -22.5674    8.2130 C.2       3 UNK         0.4961 
     71 O         -48.2292  -22.3535    9.1399 O.2       3 UNK        -0.5105 
     72 CA        -48.0052  -22.8901    6.8145 C.3       3 UNK         0.0299 
     73 CB        -47.9851  -21.6408    5.9200 C.3       3 UNK        -0.1972 
     74 N         -47.2922  -23.9901    6.1521 N.am      3 UNK        -0.4305 
     75 C         -47.1931  -25.2292    6.6522 C.2       2 UNK         0.5006 
     76 O         -47.6964  -25.5712    7.7256 O.2       2 UNK        -0.5106 
     77 CA        -46.3361  -26.2321    5.8593 C.3       2 UNK         0.0296 
     78 CB        -44.8429  -26.0047    6.1505 C.3       2 UNK        -0.2002 
     79 N         -46.6776  -27.6123    6.2086 N.am      2 UNK        -0.4032 
     80 C         -47.8521  -28.1934    5.9277 C.2       1 UNK         0.5000 
     81 O         -48.7043  -27.6917    5.1909 O.2       1 UNK        -0.5238 
     82 H82       -45.0132  -32.7160    6.0831 H         1 UNK         0.0889 
     83 H83       -44.8879  -31.7057    7.5243 H         1 UNK         0.0889 
     84 H84       -44.0310  -31.2490    6.0506 H         1 UNK         0.0889 
     85 H85       -46.7423  -30.5027    7.8562 H         1 UNK         0.3028 
     86 H86       -48.7449  -30.1080    5.8763 H         1 UNK         0.0864 
     87 H87       -48.3488  -29.1495    8.7470 H         1 UNK         0.0720 
     88 H88       -49.6199  -28.4398    7.8195 H         1 UNK         0.0720 
     89 H89       -51.9700  -31.3486    6.9078 H         1 UNK         0.0814 
     90 H90       -51.1477  -29.9832    6.2129 H         1 UNK         0.0814 
     91 H91       -51.5385  -27.6565    7.1562 H         1 UNK         0.1469 
     92 H92       -55.1646  -27.1192    9.3712 H         1 UNK         0.1381 
     93 H93       -53.7285  -31.0747    8.5472 H         1 UNK         0.1206 
     94 H94       -56.0881  -30.6859    9.1597 H         1 UNK         0.0813 
     95 H95       -56.6739  -29.0844    9.5362 H         1 UNK         0.0813 
     96 H96       -57.4392  -31.5594   10.9584 H         1 UNK         0.0638 
     97 H97       -56.9255  -31.6820   12.6183 H         1 UNK         0.0638 
     98 H98       -58.5205  -29.3562   11.4238 H         1 UNK         0.0568 
     99 H99       -60.2528  -30.6989   10.6395 H         1 UNK         0.3450 
    100 H100      -61.2623  -31.6002   11.7391 H         1 UNK         0.3450 
    101 H101      -56.9851  -29.3851   13.7739 H         1 UNK         0.2987 
    102 H102      -58.1198  -26.2760   14.8587 H         1 UNK         0.0766 
    103 H103      -57.8954  -27.1823   17.1680 H         1 UNK         0.0798 
    104 H104      -58.0923  -28.8286   16.5659 H         1 UNK         0.0798 
    105 H105      -59.4227  -27.6837   16.4613 H         1 UNK         0.0798 
    106 H106      -55.9336  -28.0105   15.6333 H         1 UNK         0.3198 
    107 H107      -54.1212  -28.4353   13.9160 H         1 UNK         0.0843 
    108 H108      -53.3397  -25.7145   12.7566 H         1 UNK         0.0831 
    109 H109      -53.8005  -27.1385   11.8355 H         1 UNK         0.0831 
    110 H110      -52.3210  -27.1520   12.7790 H         1 UNK         0.0831 
    111 H111      -52.7891  -26.1852   15.1389 H         1 UNK         0.3133 
    112 H112      -52.8716  -25.9543   17.6652 H         1 UNK         0.0566 
    113 H113      -52.2641  -27.3062   19.6608 H         1 UNK         0.0814 
    114 H114      -53.9326  -27.5958   19.1999 H         1 UNK         0.0814 
    115 H115      -52.7021  -28.7915   18.8164 H         1 UNK         0.0814 
    116 H116      -50.7968  -28.0276   17.4580 H         1 UNK         0.3091 
    117 H117      -48.6756  -27.2696   16.7315 H         1 UNK         0.0702 
    118 H118      -49.9051  -28.8129   15.1908 H         1 UNK         0.0785 
    119 H119      -48.3750  -28.3310   14.4778 H         1 UNK         0.0785 
    120 H120      -49.8768  -27.5959   13.9219 H         1 UNK         0.0785 
    121 H121      -48.2807  -25.7650   14.2953 H         1 UNK         0.2998 
    122 H122      -46.8449  -22.9026   15.9237 H         1 UNK         0.0697 
    123 H123      -45.6603  -25.1361   14.1937 H         1 UNK         0.0825 
    124 H124      -45.0722  -24.6643   15.7832 H         1 UNK         0.0825 
    125 H125      -44.9729  -23.5328   14.4437 H         1 UNK         0.0825 
    126 H126      -47.2320  -23.5236   13.1614 H         1 UNK         0.3029 
    127 H127      -50.3508  -21.7650   12.8434 H         1 UNK         0.0897 
    128 H128      -49.0029  -20.5160   11.1819 H         1 UNK         0.0792 
    129 H129      -47.5087  -21.1193   11.8954 H         1 UNK         0.0792 
    130 H130      -48.5491  -20.0365   12.8099 H         1 UNK         0.0792 
    131 H131      -48.7415  -23.0456   10.8786 H         1 UNK         0.3086 
    132 H132      -50.3226  -26.2801   11.1436 H         1 UNK         0.0583 
    133 H133      -50.3629  -24.1212    8.9698 H         1 UNK         0.1020 
    134 H134      -50.4985  -25.8334    8.6870 H         1 UNK         0.1020 
    135 H135      -54.1565  -25.2887    7.9347 H         1 UNK         0.0694 
    136 H136      -52.5469  -25.4573    7.2905 H         1 UNK         0.0694 
    137 H137      -48.1985  -25.4470    9.4845 H         1 UNK         0.2989 
    138 H138      -45.4961  -26.0520   11.7492 H         1 UNK         0.1055 
    139 H139      -46.0427  -28.2005   10.6451 H         1 UNK         0.0806 
    140 H140      -44.7997  -27.3544    9.7390 H         1 UNK         0.0806 
    141 H141      -46.4637  -27.3747    9.1556 H         1 UNK         0.0806 
    142 H142      -45.7132  -24.9552    9.0814 H         1 UNK         0.3061 
    143 H143      -45.7509  -21.5348   10.0909 H         1 UNK         0.0734 
    144 H144      -43.6755  -21.4651    8.7331 H         1 UNK         0.0832 
    145 H145      -43.3508  -22.1984   10.2941 H         1 UNK         0.0832 
    146 H146      -43.4926  -23.2149    8.8672 H         1 UNK         0.0832 
    147 H147      -45.5558  -22.7863    7.5287 H         1 UNK         0.3156 
    148 H148      -49.0445  -23.2012    6.9388 H         1 UNK         0.0589 
    149 H149      -46.9689  -21.2956    5.7252 H         1 UNK         0.0808 
    150 H150      -48.4652  -21.8321    4.9601 H         1 UNK         0.0808 
    151 H151      -48.5242  -20.8170    6.3903 H         1 UNK         0.0808 
    152 H152      -46.8502  -23.7815    5.2679 H         1 UNK         0.3098 
    153 H153      -46.5213  -26.0874    4.7929 H         1 UNK         0.0720 
    154 H154      -44.2205  -26.6964    5.5822 H         1 UNK         0.0791 
    155 H155      -44.6096  -26.1381    7.2077 H         1 UNK         0.0791 
    156 H156      -44.5343  -24.9962    5.8724 H         1 UNK         0.0791 
    157 H157      -46.0424  -28.0985    6.8226 H         1 UNK         0.3028 
@<TRIPOS>BOND
     1    1    2 1    
     2    1   82 1    
     3    1   83 1    
     4    1   84 1    
     5    2    3 2    
     6    2    4 am   BACKBONE|DICT|INTERRES
     7    4    5 1    
     8    4   85 1    
     9    5    6 1    
    10    5   80 1    
    11    5   86 1    
    12    6    7 1    
    13    6   87 1    
    14    6   88 1    
    15    7    8 1    
    16    8    9 1    
    17    8   89 1    
    18    8   90 1    
    19    9   10 ar   
    20    9   14 ar   
    21   10   11 ar   
    22   10   91 1    
    23   11   12 ar   
    24   11   58 1    
    25   12   13 ar   
    26   12   92 1    
    27   13   14 ar   
    28   13   15 1    
    29   14   93 1    
    30   15   16 1    
    31   15   94 1    
    32   15   95 1    
    33   16   17 1    
    34   17   18 1    
    35   17   96 1    
    36   17   97 1    
    37   18   19 1    
    38   18   22 1    
    39   18   98 1    
    40   19   20 am   BACKBONE|DICT|INTERRES
    41   19   21 2    
    42   20   99 1    
    43   20  100 1    
    44   22   23 am   BACKBONE|DICT|INTERRES
    45   22  101 1    
    46   23   24 2    
    47   23   25 1    
    48   25   26 1    
    49   25   27 1    
    50   25  102 1    
    51   26  103 1    
    52   26  104 1    
    53   26  105 1    
    54   27   28 am   BACKBONE|DICT|INTERRES
    55   27  106 1    
    56   28   29 2    
    57   28   30 1    
    58   30   31 1    
    59   30   32 1    
    60   30  107 1    
    61   31  108 1    
    62   31  109 1    
    63   31  110 1    
    64   32   33 am   BACKBONE|DICT|INTERRES
    65   32  111 1    
    66   33   34 2    
    67   33   35 1    
    68   35   36 1    
    69   35   37 1    
    70   35  112 1    
    71   36  113 1    
    72   36  114 1    
    73   36  115 1    
    74   37   38 am   BACKBONE|DICT|INTERRES
    75   37  116 1    
    76   38   39 2    
    77   38   40 1    
    78   40   41 1    
    79   40   42 1    
    80   40  117 1    
    81   41  118 1    
    82   41  119 1    
    83   41  120 1    
    84   42   43 am   BACKBONE|DICT|INTERRES
    85   42  121 1    
    86   43   44 2    
    87   43   45 1    
    88   45   46 1    
    89   45   47 1    
    90   45  122 1    
    91   46  123 1    
    92   46  124 1    
    93   46  125 1    
    94   47   48 am   BACKBONE|DICT|INTERRES
    95   47  126 1    
    96   48   49 2    
    97   48   50 1    
    98   50   51 1    
    99   50   52 1    
   100   50  127 1    
   101   51  128 1    
   102   51  129 1    
   103   51  130 1    
   104   52   53 am   BACKBONE|DICT|INTERRES
   105   52  131 1    
   106   53   54 2    
   107   53   55 1    
   108   55   56 1    
   109   55   59 1    
   110   55  132 1    
   111   56   57 1    
   112   56  133 1    
   113   56  134 1    
   114   57   58 1    
   115   58  135 1    
   116   58  136 1    
   117   59   60 am   BACKBONE|DICT|INTERRES
   118   59  137 1    
   119   60   61 2    
   120   60   62 1    
   121   62   63 1    
   122   62   64 1    
   123   62  138 1    
   124   63  139 1    
   125   63  140 1    
   126   63  141 1    
   127   64   65 am   BACKBONE|DICT|INTERRES
   128   64  142 1    
   129   65   66 2    
   130   65   67 1    
   131   67   68 1    
   132   67   69 1    
   133   67  143 1    
   134   68  144 1    
   135   68  145 1    
   136   68  146 1    
   137   69   70 am   BACKBONE|DICT|INTERRES
   138   69  147 1    
   139   70   71 2    
   140   70   72 1    
   141   72   73 1    
   142   72   74 1    
   143   72  148 1    
   144   73  149 1    
   145   73  150 1    
   146   73  151 1    
   147   74   75 am   BACKBONE|DICT|INTERRES
   148   74  152 1    
   149   75   76 2    
   150   75   77 1    
   151   77   78 1    
   152   77   79 1    
   153   77  153 1    
   154   78  154 1    
   155   78  155 1    
   156   78  156 1    
   157   79   80 am   BACKBONE|DICT|INTERRES
   158   79  157 1    
   159   80   81 2    
@<TRIPOS>SUBSTRUCTURE
     1 UNK         1 GROUP             0       ****    0 ROOT    
