@<TRIPOS>MOLECULE
3R207
157   159    1
SMALL
USER_CHARGES


@<TRIPOS>ATOM
      1 CA        -52.3452  -25.1095    6.3206 C.3       0 UNK        -0.1975 
      2 C         -51.3381  -26.2462    6.4078 C.2       0 UNK         0.4852 
      3 O         -50.5449  -26.2886    7.3465 O.2       0 UNK        -0.5216 
      4 N         -51.3681  -27.1731    5.4425 N.am      1 UNK        -0.4461 
      5 CA        -50.4257  -28.2892    5.3548 C.3       1 UNK         0.0864 
      6 C6        -51.0124  -29.4590    4.5227 C.3       14 UNK        -0.0898 
      7 S7        -50.1866  -31.0520    4.8631 S.3       14 UNK        -0.2598 
      8 C8        -51.2644  -31.7681    6.1485 C.3       14 UNK         0.0286 
      9 C9        -51.2189  -30.9450    7.4267 C.ar      14 UNK        -0.0844 
     10 C10       -50.1186  -31.0433    8.2843 C.ar      14 UNK        -0.0881 
     11 C11       -50.0344  -30.2372    9.4226 C.ar      14 UNK        -0.0643 
     12 C12       -51.0653  -29.3370    9.7020 C.ar      14 UNK        -0.0930 
     13 C13       -52.1736  -29.2319    8.8576 C.ar      14 UNK        -0.0827 
     14 C14       -52.2512  -30.0494    7.7267 C.ar      14 UNK        -0.1249 
     15 C15       -53.2524  -28.1936    9.1343 C.3       14 UNK         0.0141 
     16 S16       -53.9539  -28.3479   10.8062 S.3       14 UNK        -0.2313 
     17 C17       -55.0067  -26.8554   10.8593 C.3       14 UNK        -0.0915 
     18 CA        -56.2261  -26.9812   11.8098 C.3       13 UNK         0.0968 
     19 C         -57.2641  -28.0185   11.2850 C.2       13 UNK         0.5732 
     20 N         -58.0872  -27.6309   10.3195 N.am      13 UNK        -0.7310 
     21 O         -57.3104  -29.1702   11.7149 O.2       13 UNK        -0.5035 
     22 N         -55.7884  -27.1924   13.1983 N.am      13 UNK        -0.4233 
     23 C         -56.5936  -27.2883   14.2633 C.2       13 UNK         0.4989 
     24 O         -57.8152  -27.1297   14.2287 O.2       13 UNK        -0.4996 
     25 CA        -55.9129  -27.6078   15.6029 C.3       12 UNK         0.0216 
     26 CB        -55.2950  -29.0168   15.5949 C.3       12 UNK        -0.1964 
     27 N         -54.8985  -26.6251   15.9927 N.am      12 UNK        -0.4276 
     28 C         -55.1581  -25.3477   16.3189 C.2       12 UNK         0.5020 
     29 O         -56.2706  -24.8292   16.2043 O.2       12 UNK        -0.5489 
     30 CA        -53.9965  -24.5216   16.9203 C.3       11 UNK         0.0294 
     31 CB        -54.4839  -23.3029   17.7309 C.3       11 UNK        -0.2019 
     32 N         -53.0640  -25.3235   17.7225 N.am      11 UNK        -0.4493 
     33 C         -53.3518  -26.1572   18.7369 C.2       11 UNK         0.4932 
     34 O         -54.4569  -26.2208   19.2772 O.2       11 UNK        -0.5029 
     35 CA        -52.2282  -27.1131   19.2022 C.3       10 UNK         0.0280 
     36 CB        -52.7772  -28.5075   19.5717 C.3       10 UNK        -0.1976 
     37 N         -51.1121  -27.2419   18.2512 N.am      10 UNK        -0.4242 
     38 C         -51.1685  -27.6319   16.9673 C.2       10 UNK         0.5072 
     39 O         -52.1968  -28.0049   16.3971 O.2       10 UNK        -0.5224 
     40 CA        -49.8666  -27.4698   16.1628 C.3       9 UNK         0.0343 
     41 CB        -49.5593  -28.7373   15.3490 C.3       9 UNK        -0.2003 
     42 N         -49.9177  -26.3040   15.2687 N.am      9 UNK        -0.4272 
     43 C         -50.1414  -25.0360   15.6587 C.2       9 UNK         0.4988 
     44 O         -50.3160  -24.7127   16.8344 O.2       9 UNK        -0.5108 
     45 CA        -50.1806  -23.9172   14.5998 C.3       8 UNK         0.0248 
     46 CB        -48.9265  -23.0350   14.7154 C.3       8 UNK        -0.2001 
     47 N         -50.3119  -24.3748   13.2182 N.am      8 UNK        -0.4140 
     48 C         -51.3724  -25.0072   12.7006 C.2       8 UNK         0.5028 
     49 O         -52.4100  -25.2362   13.3238 O.2       8 UNK        -0.5428 
     50 CA        -51.2352  -25.4919   11.2460 C.3       7 UNK         0.0264 
     51 CB        -51.7548  -24.4224   10.2733 C.3       7 UNK        -0.1988 
     52 N         -49.8709  -25.8832   10.8642 N.am      7 UNK        -0.4454 
     53 C         -49.1477  -26.8381   11.4724 C.2       7 UNK         0.5027 
     54 O         -49.5457  -27.4798   12.4430 O.2       7 UNK        -0.5083 
     55 CA        -47.7296  -27.0868   10.9288 C.3       6 UNK         0.0844 
     56 C56       -47.7578  -27.8185    9.5547 C.3       14 UNK        -0.0967 
     57 S57       -47.3303  -29.5887    9.6627 S.3       14 UNK        -0.2604 
     58 C58       -48.8375  -30.3448   10.3558 C.3       14 UNK         0.0134 
     59 N         -47.0057  -25.8158   10.8796 N.am      6 UNK        -0.4116 
     60 C         -46.5216  -25.1697   11.9519 C.2       5 UNK         0.5034 
     61 O         -46.5166  -25.6391   13.0897 O.2       5 UNK        -0.5045 
     62 CA        -45.9654  -23.7488   11.7328 C.3       5 UNK         0.0224 
     63 CB        -44.4378  -23.7908   11.5671 C.3       5 UNK        -0.1978 
     64 N         -46.5543  -23.0570   10.5826 N.am      5 UNK        -0.4737 
     65 C         -47.8441  -22.7069   10.4743 C.2       4 UNK         0.5027 
     66 O         -48.6652  -22.8514   11.3776 O.2       4 UNK        -0.5211 
     67 CA        -48.3090  -22.1737    9.1049 C.3       4 UNK         0.0297 
     68 CB        -48.2515  -20.6387    9.0803 C.3       4 UNK        -0.1993 
     69 N         -47.5494  -22.7144    7.9679 N.am      4 UNK        -0.4486 
     70 C         -47.4345  -24.0184    7.6811 C.2       3 UNK         0.4961 
     71 O         -47.9698  -24.9116    8.3417 O.2       3 UNK        -0.5105 
     72 CA        -46.4936  -24.3923    6.5321 C.3       3 UNK         0.0299 
     73 CB        -45.0268  -24.2081    6.9798 C.3       3 UNK        -0.1972 
     74 N         -46.7539  -25.7844    6.1724 N.am      3 UNK        -0.4305 
     75 C         -46.2169  -26.4619    5.1508 C.2       2 UNK         0.5006 
     76 O         -45.4372  -25.9710    4.3332 O.2       2 UNK        -0.5106 
     77 CA        -46.6034  -27.9460    5.0139 C.3       2 UNK         0.0296 
     78 CB        -45.6345  -28.8273    5.8196 C.3       2 UNK        -0.2002 
     79 N         -47.9776  -28.2498    5.4204 N.am      2 UNK        -0.4032 
     80 C         -49.0762  -27.7986    4.7994 C.2       1 UNK         0.5000 
     81 O         -49.0579  -27.0513    3.8169 O.2       1 UNK        -0.5238 
     82 H82       -51.8365  -24.1511    6.4218 H         1 UNK         0.0889 
     83 H83       -53.0765  -25.1945    7.1237 H         1 UNK         0.0889 
     84 H84       -52.8796  -25.1109    5.3709 H         1 UNK         0.0889 
     85 H85       -52.0103  -27.0739    4.6697 H         1 UNK         0.3028 
     86 H86       -50.2549  -28.6420    6.3731 H         1 UNK         0.0864 
     87 H87       -50.9524  -29.2506    3.4526 H         1 UNK         0.0720 
     88 H88       -52.0754  -29.5785    4.7371 H         1 UNK         0.0720 
     89 H89       -50.9379  -32.7875    6.3592 H         1 UNK         0.0814 
     90 H90       -52.2851  -31.8466    5.7709 H         1 UNK         0.0814 
     91 H91       -49.3157  -31.7304    8.0538 H         1 UNK         0.1469 
     92 H92       -51.0114  -28.7126   10.5808 H         1 UNK         0.1381 
     93 H93       -53.0956  -29.9609    7.0569 H         1 UNK         0.1206 
     94 H94       -54.0596  -28.2693    8.4042 H         1 UNK         0.0813 
     95 H95       -52.8165  -27.2010    9.0157 H         1 UNK         0.0813 
     96 H96       -55.3411  -26.6119    9.8492 H         1 UNK         0.0638 
     97 H97       -54.3848  -26.0162   11.1733 H         1 UNK         0.0638 
     98 H98       -56.7334  -26.0147   11.8123 H         1 UNK         0.0568 
     99 H99       -58.7580  -28.2898    9.9567 H         1 UNK         0.3450 
    100 H100      -58.0563  -26.6936    9.9498 H         1 UNK         0.3450 
    101 H101      -54.7982  -27.3402   13.3258 H         1 UNK         0.2987 
    102 H102      -56.6888  -27.5940   16.3715 H         1 UNK         0.0766 
    103 H103      -54.9314  -29.2930   16.5850 H         1 UNK         0.0798 
    104 H104      -54.4553  -29.0908   14.9025 H         1 UNK         0.0798 
    105 H105      -56.0308  -29.7659   15.2989 H         1 UNK         0.0798 
    106 H106      -53.9526  -26.9761   16.1167 H         1 UNK         0.3198 
    107 H107      -53.4239  -24.1491   16.0691 H         1 UNK         0.0843 
    108 H108      -53.6461  -22.7249   18.1206 H         1 UNK         0.0831 
    109 H109      -55.1060  -23.6039   18.5745 H         1 UNK         0.0831 
    110 H110      -55.0783  -22.6307   17.1108 H         1 UNK         0.0831 
    111 H111      -52.0989  -25.3037   17.4039 H         1 UNK         0.3133 
    112 H112      -51.8087  -26.6691   20.1060 H         1 UNK         0.0566 
    113 H113      -51.9816  -29.1707   19.9109 H         1 UNK         0.0814 
    114 H114      -53.5072  -28.4424   20.3794 H         1 UNK         0.0814 
    115 H115      -53.2724  -28.9836   18.7246 H         1 UNK         0.0814 
    116 H116      -50.2250  -26.8926   18.5886 H         1 UNK         0.3091 
    117 H117      -49.0396  -27.3132   16.8583 H         1 UNK         0.0702 
    118 H118      -48.6082  -28.6508   14.8232 H         1 UNK         0.0785 
    119 H119      -50.3344  -28.9374   14.6077 H         1 UNK         0.0785 
    120 H120      -49.4947  -29.6121   15.9971 H         1 UNK         0.0785 
    121 H121      -49.8164  -26.5005   14.2785 H         1 UNK         0.2998 
    122 H122      -51.0526  -23.2993   14.8227 H         1 UNK         0.0697 
    123 H123      -48.9791  -22.1786   14.0429 H         1 UNK         0.0825 
    124 H124      -48.8130  -22.6424   15.7269 H         1 UNK         0.0825 
    125 H125      -48.0203  -23.5935   14.4784 H         1 UNK         0.0825 
    126 H126      -49.5523  -24.1345   12.5877 H         1 UNK         0.3029 
    127 H127      -51.8579  -26.3803   11.1491 H         1 UNK         0.0897 
    128 H128      -51.7249  -24.7741    9.2435 H         1 UNK         0.0792 
    129 H129      -52.7896  -24.1603   10.4969 H         1 UNK         0.0792 
    130 H130      -51.1674  -23.5059   10.3320 H         1 UNK         0.0792 
    131 H131      -49.4737  -25.4208   10.0543 H         1 UNK         0.3086 
    132 H132      -47.2102  -27.7208   11.6512 H         1 UNK         0.0583 
    133 H133      -48.7052  -27.6967    9.0241 H         1 UNK         0.1020 
    134 H134      -47.0118  -27.3827    8.8891 H         1 UNK         0.1020 
    135 H135      -48.6362  -31.3986   10.5532 H         1 UNK         0.0694 
    136 H136      -49.0574  -29.8974   11.3257 H         1 UNK         0.0694 
    137 H137      -47.0384  -25.3295    9.9901 H         1 UNK         0.2989 
    138 H138      -46.2003  -23.1680   12.6277 H         1 UNK         0.1055 
    139 H139      -43.9660  -24.2776   12.4221 H         1 UNK         0.0806 
    140 H140      -44.0178  -22.7871   11.4972 H         1 UNK         0.0806 
    141 H141      -44.1422  -24.3430   10.6740 H         1 UNK         0.0806 
    142 H142      -45.9503  -22.8905    9.7913 H         1 UNK         0.3061 
    143 H143      -49.3491  -22.4794    8.9752 H         1 UNK         0.0734 
    144 H144      -48.6698  -20.2392    8.1562 H         1 UNK         0.0832 
    145 H145      -48.8286  -20.2147    9.9036 H         1 UNK         0.0832 
    146 H146      -47.2295  -20.2698    9.1757 H         1 UNK         0.0832 
    147 H147      -47.0686  -22.0443    7.3841 H         1 UNK         0.3156 
    148 H148      -46.7115  -23.7556    5.6727 H         1 UNK         0.0589 
    149 H149      -44.7780  -24.8604    7.8182 H         1 UNK         0.0808 
    150 H150      -44.3264  -24.4239    6.1734 H         1 UNK         0.0808 
    151 H151      -44.8314  -23.1824    7.2944 H         1 UNK         0.0808 
    152 H152      -47.4295  -26.2353    6.7784 H         1 UNK         0.3098 
    153 H153      -46.5065  -28.2116    3.9590 H         1 UNK         0.0720 
    154 H154      -45.7045  -28.6327    6.8907 H         1 UNK         0.0791 
    155 H155      -44.6010  -28.6439    5.5222 H         1 UNK         0.0791 
    156 H156      -45.8327  -29.8871    5.6576 H         1 UNK         0.0791 
    157 H157      -48.0884  -28.8773    6.2041 H         1 UNK         0.3028 
@<TRIPOS>BOND
     1    1    2 1    
     2    1   82 1    
     3    1   83 1    
     4    1   84 1    
     5    2    3 2    
     6    2    4 am   BACKBONE|DICT|INTERRES
     7    4    5 1    
     8    4   85 1    
     9    5    6 1    
    10    5   80 1    
    11    5   86 1    
    12    6    7 1    
    13    6   87 1    
    14    6   88 1    
    15    7    8 1    
    16    8    9 1    
    17    8   89 1    
    18    8   90 1    
    19    9   10 ar   
    20    9   14 ar   
    21   10   11 ar   
    22   10   91 1    
    23   11   12 ar   
    24   11   58 1    
    25   12   13 ar   
    26   12   92 1    
    27   13   14 ar   
    28   13   15 1    
    29   14   93 1    
    30   15   16 1    
    31   15   94 1    
    32   15   95 1    
    33   16   17 1    
    34   17   18 1    
    35   17   96 1    
    36   17   97 1    
    37   18   19 1    
    38   18   22 1    
    39   18   98 1    
    40   19   20 am   BACKBONE|DICT|INTERRES
    41   19   21 2    
    42   20   99 1    
    43   20  100 1    
    44   22   23 am   BACKBONE|DICT|INTERRES
    45   22  101 1    
    46   23   24 2    
    47   23   25 1    
    48   25   26 1    
    49   25   27 1    
    50   25  102 1    
    51   26  103 1    
    52   26  104 1    
    53   26  105 1    
    54   27   28 am   BACKBONE|DICT|INTERRES
    55   27  106 1    
    56   28   29 2    
    57   28   30 1    
    58   30   31 1    
    59   30   32 1    
    60   30  107 1    
    61   31  108 1    
    62   31  109 1    
    63   31  110 1    
    64   32   33 am   BACKBONE|DICT|INTERRES
    65   32  111 1    
    66   33   34 2    
    67   33   35 1    
    68   35   36 1    
    69   35   37 1    
    70   35  112 1    
    71   36  113 1    
    72   36  114 1    
    73   36  115 1    
    74   37   38 am   BACKBONE|DICT|INTERRES
    75   37  116 1    
    76   38   39 2    
    77   38   40 1    
    78   40   41 1    
    79   40   42 1    
    80   40  117 1    
    81   41  118 1    
    82   41  119 1    
    83   41  120 1    
    84   42   43 am   BACKBONE|DICT|INTERRES
    85   42  121 1    
    86   43   44 2    
    87   43   45 1    
    88   45   46 1    
    89   45   47 1    
    90   45  122 1    
    91   46  123 1    
    92   46  124 1    
    93   46  125 1    
    94   47   48 am   BACKBONE|DICT|INTERRES
    95   47  126 1    
    96   48   49 2    
    97   48   50 1    
    98   50   51 1    
    99   50   52 1    
   100   50  127 1    
   101   51  128 1    
   102   51  129 1    
   103   51  130 1    
   104   52   53 am   BACKBONE|DICT|INTERRES
   105   52  131 1    
   106   53   54 2    
   107   53   55 1    
   108   55   56 1    
   109   55   59 1    
   110   55  132 1    
   111   56   57 1    
   112   56  133 1    
   113   56  134 1    
   114   57   58 1    
   115   58  135 1    
   116   58  136 1    
   117   59   60 am   BACKBONE|DICT|INTERRES
   118   59  137 1    
   119   60   61 2    
   120   60   62 1    
   121   62   63 1    
   122   62   64 1    
   123   62  138 1    
   124   63  139 1    
   125   63  140 1    
   126   63  141 1    
   127   64   65 am   BACKBONE|DICT|INTERRES
   128   64  142 1    
   129   65   66 2    
   130   65   67 1    
   131   67   68 1    
   132   67   69 1    
   133   67  143 1    
   134   68  144 1    
   135   68  145 1    
   136   68  146 1    
   137   69   70 am   BACKBONE|DICT|INTERRES
   138   69  147 1    
   139   70   71 2    
   140   70   72 1    
   141   72   73 1    
   142   72   74 1    
   143   72  148 1    
   144   73  149 1    
   145   73  150 1    
   146   73  151 1    
   147   74   75 am   BACKBONE|DICT|INTERRES
   148   74  152 1    
   149   75   76 2    
   150   75   77 1    
   151   77   78 1    
   152   77   79 1    
   153   77  153 1    
   154   78  154 1    
   155   78  155 1    
   156   78  156 1    
   157   79   80 am   BACKBONE|DICT|INTERRES
   158   79  157 1    
   159   80   81 2    
@<TRIPOS>SUBSTRUCTURE
     1 UNK         1 GROUP             0       ****    0 ROOT    
