@<TRIPOS>MOLECULE
3R207
157   159    1
SMALL
USER_CHARGES


@<TRIPOS>ATOM
      1 CA        -48.4691  -30.2873    1.2398 C.3       0 UNK        -0.1975 
      2 C         -48.9360  -30.1794    2.6842 C.2       0 UNK         0.4852 
      3 O         -48.6207  -31.0557    3.4897 O.2       0 UNK        -0.5216 
      4 N         -49.6802  -29.1107    3.0062 N.am      1 UNK        -0.4461 
      5 CA        -50.2513  -28.8003    4.3258 C.3       1 UNK         0.0864 
      6 C6        -51.3796  -29.7725    4.7638 C.3       14 UNK        -0.0898 
      7 S7        -52.8401  -29.6723    3.6785 S.3       14 UNK        -0.2598 
      8 C8        -53.6772  -28.1787    4.3177 C.3       14 UNK         0.0286 
      9 C9        -54.0336  -28.2675    5.7982 C.ar      14 UNK        -0.0844 
     10 C10       -53.5548  -27.3126    6.7036 C.ar      14 UNK        -0.0881 
     11 C11       -53.9236  -27.3662    8.0520 C.ar      14 UNK        -0.0643 
     12 C12       -54.7738  -28.3866    8.4870 C.ar      14 UNK        -0.0930 
     13 C13       -55.2141  -29.3833    7.6083 C.ar      14 UNK        -0.0827 
     14 C14       -54.8557  -29.2991    6.2605 C.ar      14 UNK        -0.1249 
     15 C15       -56.0818  -30.5593    8.0631 C.3       14 UNK         0.0141 
     16 S16       -55.9432  -31.0270    9.8269 S.3       14 UNK        -0.2313 
     17 C17       -54.1584  -31.3833   10.0228 C.3       14 UNK        -0.0915 
     18 CA        -53.6082  -30.9153   11.4002 C.3       13 UNK         0.0968 
     19 C         -52.0982  -31.2518   11.5555 C.2       13 UNK         0.5732 
     20 N         -51.2196  -30.2847   11.7941 N.am      13 UNK        -0.7310 
     21 O         -51.7181  -32.4175   11.4754 O.2       13 UNK        -0.5035 
     22 N         -53.9317  -29.5038   11.6628 N.am      13 UNK        -0.4233 
     23 C         -54.3626  -29.0222   12.8319 C.2       13 UNK         0.4989 
     24 O         -54.4475  -29.6806   13.8722 O.2       13 UNK        -0.4996 
     25 CA        -54.8221  -27.5611   12.8245 C.3       12 UNK         0.0216 
     26 CB        -56.2593  -27.4330   12.2837 C.3       12 UNK        -0.1964 
     27 N         -54.7689  -27.0474   14.1862 N.am      12 UNK        -0.4276 
     28 C         -54.6289  -25.7659   14.5361 C.2       12 UNK         0.5020 
     29 O         -54.5159  -24.8455   13.7243 O.2       12 UNK        -0.5489 
     30 CA        -54.6262  -25.4458   16.0377 C.3       11 UNK         0.0294 
     31 CB        -54.6253  -26.6887   16.9597 C.3       11 UNK        -0.2019 
     32 N         -53.4726  -24.6046   16.3347 N.am      11 UNK        -0.4493 
     33 C         -53.3620  -23.7933   17.3929 C.2       11 UNK         0.4932 
     34 O         -54.2778  -23.5743   18.1886 O.2       11 UNK        -0.5029 
     35 CA        -51.9751  -23.1589   17.6119 C.3       10 UNK         0.0280 
     36 CB        -51.8205  -22.4860   18.9919 C.3       10 UNK        -0.1976 
     37 N         -50.8953  -24.1237   17.3747 N.am      10 UNK        -0.4242 
     38 C         -50.6911  -25.3008   17.9897 C.2       10 UNK         0.5072 
     39 O         -51.3389  -25.6967   18.9598 O.2       10 UNK        -0.5224 
     40 CA        -49.5997  -26.2190   17.4065 C.3       9 UNK         0.0343 
     41 CB        -50.2477  -27.3637   16.6090 C.3       9 UNK        -0.2003 
     42 N         -48.6467  -25.5177   16.5429 N.am      9 UNK        -0.4272 
     43 C         -47.7176  -24.6567   16.9810 C.2       9 UNK         0.4988 
     44 O         -47.4959  -24.4340   18.1718 O.2       9 UNK        -0.5108 
     45 CA        -46.9257  -23.8868   15.9117 C.3       8 UNK         0.0248 
     46 CB        -45.7282  -24.7201   15.4286 C.3       8 UNK        -0.2001 
     47 N         -47.7464  -23.4718   14.7668 N.am      8 UNK        -0.4140 
     48 C         -48.7817  -22.6204   14.8392 C.2       8 UNK         0.5028 
     49 O         -49.1478  -22.0795   15.8820 O.2       8 UNK        -0.5428 
     50 CA        -49.5711  -22.3467   13.5481 C.3       7 UNK         0.0264 
     51 CB        -48.8112  -21.3717   12.6353 C.3       7 UNK        -0.1988 
     52 N         -49.9008  -23.5639   12.8060 N.am      7 UNK        -0.4454 
     53 C         -50.6926  -24.5511   13.2537 C.2       7 UNK         0.5027 
     54 O         -51.2650  -24.5372   14.3456 O.2       7 UNK        -0.5083 
     55 CA        -50.8180  -25.7884   12.3397 C.3       6 UNK         0.0844 
     56 C56       -51.8157  -25.5146   11.1829 C.3       14 UNK        -0.0967 
     57 S57       -52.0838  -26.9554   10.0935 S.3       14 UNK        -0.2604 
     58 C58       -53.4269  -26.3164    9.0390 C.3       14 UNK         0.0134 
     59 N         -49.4988  -26.2243   11.8650 N.am      6 UNK        -0.4116 
     60 C         -48.4832  -26.6152   12.6510 C.2       5 UNK         0.5034 
     61 O         -48.5575  -26.7174   13.8750 O.2       5 UNK        -0.5045 
     62 CA        -47.1386  -26.8867   11.9593 C.3       5 UNK         0.0224 
     63 CB        -47.1225  -28.2907   11.3346 C.3       5 UNK        -0.1978 
     64 N         -46.8301  -25.8803   10.9397 N.am      5 UNK        -0.4737 
     65 C         -46.5309  -24.5999   11.2123 C.2       4 UNK         0.5027 
     66 O         -46.4231  -24.1587   12.3538 O.2       4 UNK        -0.5211 
     67 CA        -46.3790  -23.6298   10.0247 C.3       4 UNK         0.0297 
     68 CB        -44.9237  -23.6078    9.5328 C.3       4 UNK        -0.1993 
     69 N         -47.2679  -23.9513    8.9074 N.am      4 UNK        -0.4486 
     70 C         -48.6030  -24.0237    8.9913 C.2       3 UNK         0.4961 
     71 O         -49.2386  -23.6495    9.9770 O.2       3 UNK        -0.5105 
     72 CA        -49.3586  -24.6805    7.8194 C.3       3 UNK         0.0299 
     73 CB        -50.1528  -23.6267    7.0323 C.3       3 UNK        -0.1972 
     74 N         -48.5383  -25.4682    6.8857 N.am      3 UNK        -0.4305 
     75 C         -47.7563  -26.5153    7.1966 C.2       2 UNK         0.5006 
     76 O         -47.5415  -26.8927    8.3490 O.2       2 UNK        -0.5106 
     77 CA        -47.1314  -27.2624    6.0026 C.3       2 UNK         0.0296 
     78 CB        -46.1649  -28.3883    6.4304 C.3       2 UNK        -0.2002 
     79 N         -48.1710  -27.7682    5.0963 N.am      2 UNK        -0.4032 
     80 C         -49.1697  -28.6111    5.4106 C.2       1 UNK         0.5000 
     81 O         -49.2687  -29.1938    6.4925 O.2       1 UNK        -0.5238 
     82 H82       -47.3804  -30.3060    1.1979 H         1 UNK         0.0889 
     83 H83       -48.8175  -29.4515    0.6333 H         1 UNK         0.0889 
     84 H84       -48.8432  -31.2082    0.7933 H         1 UNK         0.0889 
     85 H85       -49.9021  -28.4434    2.2801 H         1 UNK         0.3028 
     86 H86       -50.7026  -27.8125    4.2250 H         1 UNK         0.0864 
     87 H87       -51.0201  -30.8025    4.7668 H         1 UNK         0.0720 
     88 H88       -51.7014  -29.5730    5.7870 H         1 UNK         0.0720 
     89 H89       -54.5946  -28.0251    3.7479 H         1 UNK         0.0814 
     90 H90       -53.0524  -27.3069    4.1202 H         1 UNK         0.0814 
     91 H91       -52.9078  -26.5178    6.3584 H         1 UNK         0.1469 
     92 H92       -55.0820  -28.4086    9.5180 H         1 UNK         0.1381 
     93 H93       -55.2112  -30.0460    5.5633 H         1 UNK         0.1206 
     94 H94       -57.1245  -30.3192    7.8522 H         1 UNK         0.0813 
     95 H95       -55.8431  -31.4415    7.4668 H         1 UNK         0.0813 
     96 H96       -54.0204  -32.4592    9.9026 H         1 UNK         0.0638 
     97 H97       -53.5962  -30.9149    9.2137 H         1 UNK         0.0638 
     98 H98       -54.1104  -31.5244   12.1541 H         1 UNK         0.0568 
     99 H99       -50.2468  -30.5228   11.8985 H         1 UNK         0.3450 
    100 H100      -51.5161  -29.3245   11.8488 H         1 UNK         0.3450 
    101 H101      -53.8328  -28.8830   10.8738 H         1 UNK         0.2987 
    102 H102      -54.1426  -26.9880   12.1955 H         1 UNK         0.0766 
    103 H103      -56.5652  -26.3888   12.2166 H         1 UNK         0.0798 
    104 H104      -56.9749  -27.9494   12.9248 H         1 UNK         0.0798 
    105 H105      -56.3562  -27.8603   11.2865 H         1 UNK         0.0798 
    106 H106      -54.8003  -27.7653   14.9004 H         1 UNK         0.3198 
    107 H107      -55.5362  -24.8733   16.2293 H         1 UNK         0.0843 
    108 H108      -53.7369  -27.3042   16.8109 H         1 UNK         0.0831 
    109 H109      -55.5044  -27.3126   16.7932 H         1 UNK         0.0831 
    110 H110      -54.6461  -26.3997   18.0107 H         1 UNK         0.0831 
    111 H111      -52.7029  -24.6557   15.6687 H         1 UNK         0.3133 
    112 H112      -51.8664  -22.3855   16.8503 H         1 UNK         0.0566 
    113 H113      -50.8321  -22.0405   19.1048 H         1 UNK         0.0814 
    114 H114      -52.5525  -21.6880   19.1209 H         1 UNK         0.0814 
    115 H115      -51.9650  -23.1948   19.8079 H         1 UNK         0.0814 
    116 H116      -50.2964  -23.9002   16.5895 H         1 UNK         0.3091 
    117 H117      -49.0500  -26.6518   18.2448 H         1 UNK         0.0702 
    118 H118      -50.9436  -27.9301   17.2294 H         1 UNK         0.0785 
    119 H119      -50.8062  -26.9894   15.7498 H         1 UNK         0.0785 
    120 H120      -49.4982  -28.0641   16.2402 H         1 UNK         0.0785 
    121 H121      -48.7145  -25.7047   15.5457 H         1 UNK         0.2998 
    122 H122      -46.5386  -22.9799   16.3809 H         1 UNK         0.0697 
    123 H123      -46.0498  -25.6208   14.9048 H         1 UNK         0.0825 
    124 H124      -45.1049  -25.0337   16.2671 H         1 UNK         0.0825 
    125 H125      -45.0940  -24.1472   14.7519 H         1 UNK         0.0825 
    126 H126      -47.4608  -23.8258   13.8555 H         1 UNK         0.3029 
    127 H127      -50.5143  -21.8759   13.8340 H         1 UNK         0.0897 
    128 H128      -49.3883  -21.1326   11.7417 H         1 UNK         0.0792 
    129 H129      -47.8533  -21.7806   12.3144 H         1 UNK         0.0792 
    130 H130      -48.6079  -20.4328   13.1521 H         1 UNK         0.0792 
    131 H131      -49.5086  -23.6480   11.8705 H         1 UNK         0.3086 
    132 H132      -51.2241  -26.5987   12.9491 H         1 UNK         0.0583 
    133 H133      -52.7800  -25.2057   11.5908 H         1 UNK         0.1020 
    134 H134      -51.4824  -24.6802   10.5654 H         1 UNK         0.1020 
    135 H135      -54.2571  -25.9882    9.6667 H         1 UNK         0.0694 
    136 H136      -53.0728  -25.4310    8.5083 H         1 UNK         0.0694 
    137 H137      -49.3390  -26.1609   10.8707 H         1 UNK         0.2989 
    138 H138      -46.3583  -26.8452   12.7224 H         1 UNK         0.1055 
    139 H139      -47.2941  -29.0559   12.0929 H         1 UNK         0.0806 
    140 H140      -46.1612  -28.5059   10.8678 H         1 UNK         0.0806 
    141 H141      -47.8957  -28.4069   10.5739 H         1 UNK         0.0806 
    142 H142      -46.9450  -26.1684    9.9694 H         1 UNK         0.3061 
    143 H143      -46.6384  -22.6295   10.3765 H         1 UNK         0.0734 
    144 H144      -44.7808  -22.8683    8.7447 H         1 UNK         0.0832 
    145 H145      -44.2433  -23.3482   10.3453 H         1 UNK         0.0832 
    146 H146      -44.6125  -24.5790    9.1456 H         1 UNK         0.0832 
    147 H147      -46.8322  -24.2828    8.0599 H         1 UNK         0.3156 
    148 H148      -50.0746  -25.3733    8.2657 H         1 UNK         0.0589 
    149 H149      -49.4938  -22.9219    6.5237 H         1 UNK         0.0808 
    150 H150      -50.7961  -24.0894    6.2836 H         1 UNK         0.0808 
    151 H151      -50.7988  -23.0483    7.6949 H         1 UNK         0.0808 
    152 H152      -48.6346  -25.2285    5.9094 H         1 UNK         0.3098 
    153 H153      -46.5514  -26.5286    5.4409 H         1 UNK         0.0720 
    154 H154      -45.7269  -28.8846    5.5646 H         1 UNK         0.0791 
    155 H155      -46.6624  -29.1476    7.0348 H         1 UNK         0.0791 
    156 H156      -45.3439  -27.9891    7.0271 H         1 UNK         0.0791 
    157 H157      -48.1738  -27.3680    4.1681 H         1 UNK         0.3028 
@<TRIPOS>BOND
     1    1    2 1    
     2    1   82 1    
     3    1   83 1    
     4    1   84 1    
     5    2    3 2    
     6    2    4 am   BACKBONE|DICT|INTERRES
     7    4    5 1    
     8    4   85 1    
     9    5    6 1    
    10    5   80 1    
    11    5   86 1    
    12    6    7 1    
    13    6   87 1    
    14    6   88 1    
    15    7    8 1    
    16    8    9 1    
    17    8   89 1    
    18    8   90 1    
    19    9   10 ar   
    20    9   14 ar   
    21   10   11 ar   
    22   10   91 1    
    23   11   12 ar   
    24   11   58 1    
    25   12   13 ar   
    26   12   92 1    
    27   13   14 ar   
    28   13   15 1    
    29   14   93 1    
    30   15   16 1    
    31   15   94 1    
    32   15   95 1    
    33   16   17 1    
    34   17   18 1    
    35   17   96 1    
    36   17   97 1    
    37   18   19 1    
    38   18   22 1    
    39   18   98 1    
    40   19   20 am   BACKBONE|DICT|INTERRES
    41   19   21 2    
    42   20   99 1    
    43   20  100 1    
    44   22   23 am   BACKBONE|DICT|INTERRES
    45   22  101 1    
    46   23   24 2    
    47   23   25 1    
    48   25   26 1    
    49   25   27 1    
    50   25  102 1    
    51   26  103 1    
    52   26  104 1    
    53   26  105 1    
    54   27   28 am   BACKBONE|DICT|INTERRES
    55   27  106 1    
    56   28   29 2    
    57   28   30 1    
    58   30   31 1    
    59   30   32 1    
    60   30  107 1    
    61   31  108 1    
    62   31  109 1    
    63   31  110 1    
    64   32   33 am   BACKBONE|DICT|INTERRES
    65   32  111 1    
    66   33   34 2    
    67   33   35 1    
    68   35   36 1    
    69   35   37 1    
    70   35  112 1    
    71   36  113 1    
    72   36  114 1    
    73   36  115 1    
    74   37   38 am   BACKBONE|DICT|INTERRES
    75   37  116 1    
    76   38   39 2    
    77   38   40 1    
    78   40   41 1    
    79   40   42 1    
    80   40  117 1    
    81   41  118 1    
    82   41  119 1    
    83   41  120 1    
    84   42   43 am   BACKBONE|DICT|INTERRES
    85   42  121 1    
    86   43   44 2    
    87   43   45 1    
    88   45   46 1    
    89   45   47 1    
    90   45  122 1    
    91   46  123 1    
    92   46  124 1    
    93   46  125 1    
    94   47   48 am   BACKBONE|DICT|INTERRES
    95   47  126 1    
    96   48   49 2    
    97   48   50 1    
    98   50   51 1    
    99   50   52 1    
   100   50  127 1    
   101   51  128 1    
   102   51  129 1    
   103   51  130 1    
   104   52   53 am   BACKBONE|DICT|INTERRES
   105   52  131 1    
   106   53   54 2    
   107   53   55 1    
   108   55   56 1    
   109   55   59 1    
   110   55  132 1    
   111   56   57 1    
   112   56  133 1    
   113   56  134 1    
   114   57   58 1    
   115   58  135 1    
   116   58  136 1    
   117   59   60 am   BACKBONE|DICT|INTERRES
   118   59  137 1    
   119   60   61 2    
   120   60   62 1    
   121   62   63 1    
   122   62   64 1    
   123   62  138 1    
   124   63  139 1    
   125   63  140 1    
   126   63  141 1    
   127   64   65 am   BACKBONE|DICT|INTERRES
   128   64  142 1    
   129   65   66 2    
   130   65   67 1    
   131   67   68 1    
   132   67   69 1    
   133   67  143 1    
   134   68  144 1    
   135   68  145 1    
   136   68  146 1    
   137   69   70 am   BACKBONE|DICT|INTERRES
   138   69  147 1    
   139   70   71 2    
   140   70   72 1    
   141   72   73 1    
   142   72   74 1    
   143   72  148 1    
   144   73  149 1    
   145   73  150 1    
   146   73  151 1    
   147   74   75 am   BACKBONE|DICT|INTERRES
   148   74  152 1    
   149   75   76 2    
   150   75   77 1    
   151   77   78 1    
   152   77   79 1    
   153   77  153 1    
   154   78  154 1    
   155   78  155 1    
   156   78  156 1    
   157   79   80 am   BACKBONE|DICT|INTERRES
   158   79  157 1    
   159   80   81 2    
@<TRIPOS>SUBSTRUCTURE
     1 UNK         1 GROUP             0       ****    0 ROOT    
