@<TRIPOS>MOLECULE
3R207
157   159    1
SMALL
USER_CHARGES


@<TRIPOS>ATOM
      1 CA        -48.0598  -31.4670    8.0930 C.3       0 UNK        -0.1975 
      2 C         -48.6140  -30.2867    7.3096 C.2       0 UNK         0.4852 
      3 O         -48.9167  -29.2536    7.9053 O.2       0 UNK        -0.5216 
      4 N         -48.7332  -30.4327    5.9816 N.am      1 UNK        -0.4461 
      5 CA        -49.2393  -29.4593    4.9992 C.3       1 UNK         0.0864 
      6 C6        -50.6971  -28.9924    5.2508 C.3       14 UNK        -0.0898 
      7 S7        -51.9140  -30.3432    5.0976 S.3       14 UNK        -0.2598 
      8 C8        -53.4534  -29.4051    4.8125 C.3       14 UNK         0.0286 
      9 C9        -53.9787  -28.7800    6.0979 C.ar      14 UNK        -0.0844 
     10 C10       -53.4331  -27.5829    6.5727 C.ar      14 UNK        -0.0881 
     11 C11       -53.8586  -27.0388    7.7868 C.ar      14 UNK        -0.0643 
     12 C12       -54.8814  -27.6700    8.4994 C.ar      14 UNK        -0.0930 
     13 C13       -55.4627  -28.8464    8.0186 C.ar      14 UNK        -0.0827 
     14 C14       -55.0021  -29.4028    6.8211 C.ar      14 UNK        -0.1249 
     15 C15       -56.5907  -29.5038    8.7978 C.3       14 UNK         0.0141 
     16 S16       -55.9786  -30.8640    9.8423 S.3       14 UNK        -0.2313 
     17 C17       -57.1686  -30.8274   11.2283 C.3       14 UNK        -0.0915 
     18 CA        -56.5612  -30.6245   12.6521 C.3       13 UNK         0.0968 
     19 C         -55.9504  -31.9035   13.3079 C.2       13 UNK         0.5732 
     20 N         -55.1535  -31.7763   14.3640 N.am      13 UNK        -0.7310 
     21 O         -56.2310  -33.0255   12.8916 O.2       13 UNK        -0.5035 
     22 N         -55.7812  -29.3819   12.8157 N.am      13 UNK        -0.4233 
     23 C         -54.4724  -29.2024   12.5727 C.2       13 UNK         0.4989 
     24 O         -53.7360  -30.0275   12.0327 O.2       13 UNK        -0.4996 
     25 CA        -53.8494  -27.8910   13.0833 C.3       12 UNK         0.0216 
     26 CB        -53.8360  -26.8203   11.9836 C.3       12 UNK        -0.1964 
     27 N         -54.4686  -27.3330   14.2907 N.am      12 UNK        -0.4276 
     28 C         -54.6126  -27.9554   15.4695 C.2       12 UNK         0.5020 
     29 O         -54.3503  -29.1458   15.6564 O.2       12 UNK        -0.5489 
     30 CA        -55.0804  -27.0680   16.6381 C.3       11 UNK         0.0294 
     31 CB        -55.3666  -27.8736   17.9185 C.3       11 UNK        -0.2019 
     32 N         -54.0497  -26.0703   16.9244 N.am      11 UNK        -0.4493 
     33 C         -53.8648  -24.9264   16.2550 C.2       11 UNK         0.4932 
     34 O         -54.6515  -24.5026   15.4078 O.2       11 UNK        -0.5029 
     35 CA        -52.5433  -24.1813   16.5063 C.3       10 UNK         0.0280 
     36 CB        -52.4691  -23.5830   17.9248 C.3       10 UNK        -0.1976 
     37 N         -51.3709  -25.0065   16.1837 N.am      10 UNK        -0.4242 
     38 C         -50.9275  -26.1127   16.8018 C.2       10 UNK         0.5072 
     39 O         -51.4241  -26.5770   17.8299 O.2       10 UNK        -0.5224 
     40 CA        -49.7537  -26.8527   16.1421 C.3       9 UNK         0.0343 
     41 CB        -50.2724  -27.7852   15.0354 C.3       9 UNK        -0.2003 
     42 N         -48.7416  -25.9509   15.5898 N.am      9 UNK        -0.4272 
     43 C         -47.9321  -25.1764   16.3267 C.2       9 UNK         0.4988 
     44 O         -47.9196  -25.1717   17.5584 O.2       9 UNK        -0.5108 
     45 CA        -46.9738  -24.2462   15.5642 C.3       8 UNK         0.0248 
     46 CB        -45.7303  -25.0170   15.0926 C.3       8 UNK        -0.2001 
     47 N         -47.6111  -23.5812   14.4245 N.am      8 UNK        -0.4140 
     48 C         -48.5940  -22.6743   14.5308 C.2       8 UNK         0.5028 
     49 O         -49.0301  -22.2568   15.6041 O.2       8 UNK        -0.5428 
     50 CA        -49.2139  -22.1544   13.2225 C.3       7 UNK         0.0264 
     51 CB        -48.3480  -21.0387   12.6163 C.3       7 UNK        -0.1988 
     52 N         -49.4358  -23.2061   12.2265 N.am      7 UNK        -0.4454 
     53 C         -50.2602  -24.2517   12.3929 C.2       7 UNK         0.5027 
     54 O         -50.9425  -24.4299   13.4027 O.2       7 UNK        -0.5083 
     55 CA        -50.2990  -25.3023   11.2646 C.3       6 UNK         0.0844 
     56 C56       -51.1751  -24.8164   10.0840 C.3       14 UNK        -0.0967 
     57 S57       -51.5003  -26.1642    8.9012 S.3       14 UNK        -0.2604 
     58 C58       -53.1923  -25.7892    8.3418 C.3       14 UNK         0.0134 
     59 N         -48.9503  -25.6973   10.8430 N.am      6 UNK        -0.4116 
     60 C         -48.0259  -26.2437   11.6470 C.2       5 UNK         0.5034 
     61 O         -48.2239  -26.5400   12.8246 O.2       5 UNK        -0.5045 
     62 CA        -46.6175  -26.4237   11.0637 C.3       5 UNK         0.0224 
     63 CB        -46.5228  -27.6977   10.2089 C.3       5 UNK        -0.1978 
     64 N         -46.2025  -25.2538   10.2863 N.am      5 UNK        -0.4737 
     65 C         -45.9264  -24.0572   10.8256 C.2       4 UNK         0.5027 
     66 O         -45.9483  -23.8324   12.0346 O.2       4 UNK        -0.5211 
     67 CA        -45.6115  -22.9081    9.8538 C.3       4 UNK         0.0297 
     68 CB        -44.1271  -22.9283    9.4571 C.3       4 UNK        -0.1993 
     69 N         -46.4438  -22.9404    8.6495 N.am      4 UNK        -0.4486 
     70 C         -47.7733  -22.7674    8.6401 C.2       3 UNK         0.4961 
     71 O         -48.4398  -22.5107    9.6418 O.2       3 UNK        -0.5105 
     72 CA        -48.4860  -22.9665    7.2918 C.3       3 UNK         0.0299 
     73 CB        -48.4999  -21.6558    6.4899 C.3       3 UNK        -0.1972 
     74 N         -47.9064  -24.0409    6.4768 N.am      3 UNK        -0.4305 
     75 C         -47.8379  -25.3250    6.8539 C.2       2 UNK         0.5006 
     76 O         -48.2151  -25.7388    7.9514 O.2       2 UNK        -0.5106 
     77 CA        -47.1930  -26.2999    5.8671 C.3       2 UNK         0.0296 
     78 CB        -45.7373  -26.5963    6.2660 C.3       2 UNK        -0.2002 
     79 N         -47.9648  -27.5380    5.8736 N.am      2 UNK        -0.4032 
     80 C         -48.3037  -28.2485    4.7931 C.2       1 UNK         0.5000 
     81 O         -47.9162  -27.9806    3.6537 O.2       1 UNK        -0.5238 
     82 H82       -47.1534  -31.1725    8.6214 H         1 UNK         0.0889 
     83 H83       -47.8179  -32.3104    7.4465 H         1 UNK         0.0889 
     84 H84       -48.7899  -31.8019    8.8293 H         1 UNK         0.0889 
     85 H85       -48.4405  -31.3101    5.5744 H         1 UNK         0.3028 
     86 H86       -49.2368  -29.9937    4.0474 H         1 UNK         0.0864 
     87 H87       -50.7942  -28.5421    6.2394 H         1 UNK         0.0720 
     88 H88       -50.9700  -28.2167    4.5325 H         1 UNK         0.0720 
     89 H89       -54.2002  -30.0823    4.3953 H         1 UNK         0.0814 
     90 H90       -53.2907  -28.6358    4.0563 H         1 UNK         0.0814 
     91 H91       -52.6456  -27.0898    6.0208 H         1 UNK         0.1469 
     92 H92       -55.2247  -27.2497    9.4335 H         1 UNK         0.1381 
     93 H93       -55.4357  -30.3250    6.4586 H         1 UNK         0.1206 
     94 H94       -57.3473  -29.8889    8.1127 H         1 UNK         0.0813 
     95 H95       -57.0886  -28.7511    9.4106 H         1 UNK         0.0813 
     96 H96       -57.7528  -31.7482   11.1894 H         1 UNK         0.0638 
     97 H97       -57.8978  -30.0367   11.0511 H         1 UNK         0.0638 
     98 H98       -57.4284  -30.4511   13.2903 H         1 UNK         0.0568 
     99 H99       -54.7724  -32.6039   14.7931 H         1 UNK         0.3450 
    100 H100      -54.9124  -30.8613   14.7317 H         1 UNK         0.3450 
    101 H101      -56.2675  -28.6314   13.2826 H         1 UNK         0.2987 
    102 H102      -52.8134  -28.1185   13.3401 H         1 UNK         0.0766 
    103 H103      -53.2886  -25.9325   12.3012 H         1 UNK         0.0798 
    104 H104      -54.8447  -26.5122   11.7072 H         1 UNK         0.0798 
    105 H105      -53.3455  -27.1986   11.0861 H         1 UNK         0.0798 
    106 H106      -54.6893  -26.3434   14.2683 H         1 UNK         0.3198 
    107 H107      -56.0041  -26.5689   16.3368 H         1 UNK         0.0843 
    108 H108      -54.4758  -28.3897   18.2796 H         1 UNK         0.0831 
    109 H109      -56.1325  -28.6295   17.7404 H         1 UNK         0.0831 
    110 H110      -55.7275  -27.2287   18.7197 H         1 UNK         0.0831 
    111 H111      -53.2822  -26.3700   17.5222 H         1 UNK         0.3133 
    112 H112      -52.5109  -23.3482   15.8021 H         1 UNK         0.0566 
    113 H113      -51.5462  -23.0199   18.0648 H         1 UNK         0.0814 
    114 H114      -53.2980  -22.8956   18.0977 H         1 UNK         0.0814 
    115 H115      -52.5160  -24.3455   18.7024 H         1 UNK         0.0814 
    116 H116      -50.9383  -24.7717   15.2928 H         1 UNK         0.3091 
    117 H117      -49.2765  -27.4669   16.9086 H         1 UNK         0.0702 
    118 H118      -49.4708  -28.4044   14.6323 H         1 UNK         0.0785 
    119 H119      -50.7055  -27.2224   14.2076 H         1 UNK         0.0785 
    120 H120      -51.0437  -28.4574   15.4150 H         1 UNK         0.0785 
    121 H121      -48.6372  -25.9489   14.5777 H         1 UNK         0.2998 
    122 H122      -46.6451  -23.4699   16.2583 H         1 UNK         0.0697 
    123 H123      -45.9847  -25.7885   14.3653 H         1 UNK         0.0825 
    124 H124      -45.2334  -25.5081   15.9304 H         1 UNK         0.0825 
    125 H125      -45.0026  -24.3498   14.6304 H         1 UNK         0.0825 
    126 H126      -47.2547  -23.8150   13.5015 H         1 UNK         0.3029 
    127 H127      -50.1890  -21.7295   13.4703 H         1 UNK         0.0897 
    128 H128      -48.8228  -20.6018   11.7376 H         1 UNK         0.0792 
    129 H129      -48.1899  -20.2327   13.3342 H         1 UNK         0.0792 
    130 H130      -47.3666  -21.4073   12.3168 H         1 UNK         0.0792 
    131 H131      -48.9475  -23.1008   11.3388 H         1 UNK         0.3086 
    132 H132      -50.7684  -26.1939   11.6860 H         1 UNK         0.0583 
    133 H133      -52.1274  -24.4327   10.4546 H         1 UNK         0.1020 
    134 H134      -50.6995  -23.9899    9.5549 H         1 UNK         0.1020 
    135 H135      -53.7800  -25.3871    9.1679 H         1 UNK         0.0694 
    136 H136      -53.1575  -25.0129    7.5762 H         1 UNK         0.0694 
    137 H137      -48.7159  -25.5470    9.8657 H         1 UNK         0.2989 
    138 H138      -45.9264  -26.5317   11.9028 H         1 UNK         0.1055 
    139 H139      -46.7840  -28.5785   10.7969 H         1 UNK         0.0806 
    140 H140      -45.5119  -27.8493    9.8307 H         1 UNK         0.0806 
    141 H141      -47.2005  -27.6707    9.3561 H         1 UNK         0.0806 
    142 H142      -46.2391  -25.3380    9.2806 H         1 UNK         0.3061 
    143 H143      -45.8129  -21.9695   10.3746 H         1 UNK         0.0734 
    144 H144      -43.8705  -22.0716    8.8338 H         1 UNK         0.0832 
    145 H145      -43.4886  -22.8859   10.3408 H         1 UNK         0.0832 
    146 H146      -43.8646  -23.8345    8.9097 H         1 UNK         0.0832 
    147 H147      -45.9817  -23.1431    7.7753 H         1 UNK         0.3156 
    148 H148      -49.5203  -23.2430    7.5063 H         1 UNK         0.0589 
    149 H149      -47.4940  -21.3394    6.2109 H         1 UNK         0.0808 
    150 H150      -49.0873  -21.7547    5.5768 H         1 UNK         0.0808 
    151 H151      -48.9454  -20.8480    7.0725 H         1 UNK         0.0808 
    152 H152      -47.5625  -23.7815    5.5629 H         1 UNK         0.3098 
    153 H153      -47.2090  -25.8512    4.8716 H         1 UNK         0.0720 
    154 H154      -45.2660  -27.2764    5.5563 H         1 UNK         0.0791 
    155 H155      -45.6747  -27.0523    7.2548 H         1 UNK         0.0791 
    156 H156      -45.1404  -25.6836    6.2855 H         1 UNK         0.0791 
    157 H157      -48.3423  -27.8243    6.7766 H         1 UNK         0.3028 
@<TRIPOS>BOND
     1    1    2 1    
     2    1   82 1    
     3    1   83 1    
     4    1   84 1    
     5    2    3 2    
     6    2    4 am   BACKBONE|DICT|INTERRES
     7    4    5 1    
     8    4   85 1    
     9    5    6 1    
    10    5   80 1    
    11    5   86 1    
    12    6    7 1    
    13    6   87 1    
    14    6   88 1    
    15    7    8 1    
    16    8    9 1    
    17    8   89 1    
    18    8   90 1    
    19    9   10 ar   
    20    9   14 ar   
    21   10   11 ar   
    22   10   91 1    
    23   11   12 ar   
    24   11   58 1    
    25   12   13 ar   
    26   12   92 1    
    27   13   14 ar   
    28   13   15 1    
    29   14   93 1    
    30   15   16 1    
    31   15   94 1    
    32   15   95 1    
    33   16   17 1    
    34   17   18 1    
    35   17   96 1    
    36   17   97 1    
    37   18   19 1    
    38   18   22 1    
    39   18   98 1    
    40   19   20 am   BACKBONE|DICT|INTERRES
    41   19   21 2    
    42   20   99 1    
    43   20  100 1    
    44   22   23 am   BACKBONE|DICT|INTERRES
    45   22  101 1    
    46   23   24 2    
    47   23   25 1    
    48   25   26 1    
    49   25   27 1    
    50   25  102 1    
    51   26  103 1    
    52   26  104 1    
    53   26  105 1    
    54   27   28 am   BACKBONE|DICT|INTERRES
    55   27  106 1    
    56   28   29 2    
    57   28   30 1    
    58   30   31 1    
    59   30   32 1    
    60   30  107 1    
    61   31  108 1    
    62   31  109 1    
    63   31  110 1    
    64   32   33 am   BACKBONE|DICT|INTERRES
    65   32  111 1    
    66   33   34 2    
    67   33   35 1    
    68   35   36 1    
    69   35   37 1    
    70   35  112 1    
    71   36  113 1    
    72   36  114 1    
    73   36  115 1    
    74   37   38 am   BACKBONE|DICT|INTERRES
    75   37  116 1    
    76   38   39 2    
    77   38   40 1    
    78   40   41 1    
    79   40   42 1    
    80   40  117 1    
    81   41  118 1    
    82   41  119 1    
    83   41  120 1    
    84   42   43 am   BACKBONE|DICT|INTERRES
    85   42  121 1    
    86   43   44 2    
    87   43   45 1    
    88   45   46 1    
    89   45   47 1    
    90   45  122 1    
    91   46  123 1    
    92   46  124 1    
    93   46  125 1    
    94   47   48 am   BACKBONE|DICT|INTERRES
    95   47  126 1    
    96   48   49 2    
    97   48   50 1    
    98   50   51 1    
    99   50   52 1    
   100   50  127 1    
   101   51  128 1    
   102   51  129 1    
   103   51  130 1    
   104   52   53 am   BACKBONE|DICT|INTERRES
   105   52  131 1    
   106   53   54 2    
   107   53   55 1    
   108   55   56 1    
   109   55   59 1    
   110   55  132 1    
   111   56   57 1    
   112   56  133 1    
   113   56  134 1    
   114   57   58 1    
   115   58  135 1    
   116   58  136 1    
   117   59   60 am   BACKBONE|DICT|INTERRES
   118   59  137 1    
   119   60   61 2    
   120   60   62 1    
   121   62   63 1    
   122   62   64 1    
   123   62  138 1    
   124   63  139 1    
   125   63  140 1    
   126   63  141 1    
   127   64   65 am   BACKBONE|DICT|INTERRES
   128   64  142 1    
   129   65   66 2    
   130   65   67 1    
   131   67   68 1    
   132   67   69 1    
   133   67  143 1    
   134   68  144 1    
   135   68  145 1    
   136   68  146 1    
   137   69   70 am   BACKBONE|DICT|INTERRES
   138   69  147 1    
   139   70   71 2    
   140   70   72 1    
   141   72   73 1    
   142   72   74 1    
   143   72  148 1    
   144   73  149 1    
   145   73  150 1    
   146   73  151 1    
   147   74   75 am   BACKBONE|DICT|INTERRES
   148   74  152 1    
   149   75   76 2    
   150   75   77 1    
   151   77   78 1    
   152   77   79 1    
   153   77  153 1    
   154   78  154 1    
   155   78  155 1    
   156   78  156 1    
   157   79   80 am   BACKBONE|DICT|INTERRES
   158   79  157 1    
   159   80   81 2    
@<TRIPOS>SUBSTRUCTURE
     1 UNK         1 GROUP             0       ****    0 ROOT    
