@<TRIPOS>MOLECULE
3R207
157   159    1
SMALL
USER_CHARGES


@<TRIPOS>ATOM
      1 CA        -47.0420  -30.6262    2.5108 C.3       0 UNK        -0.1975 
      2 C         -48.0823  -29.5708    2.8554 C.2       0 UNK         0.4852 
      3 O         -48.2603  -28.6167    2.0975 O.2       0 UNK        -0.5216 
      4 N         -48.7699  -29.7355    3.9936 N.am      1 UNK        -0.4461 
      5 CA        -49.7984  -28.8203    4.5066 C.3       1 UNK         0.0864 
      6 C6        -50.6889  -29.4835    5.5918 C.3       14 UNK        -0.0898 
      7 S7        -49.7922  -30.4821    6.8363 S.3       14 UNK        -0.2598 
      8 C8        -49.4427  -29.2869    8.1618 C.3       14 UNK         0.0286 
      9 C9        -50.6867  -28.8672    8.9263 C.ar      14 UNK        -0.0844 
     10 C10       -51.3623  -27.6956    8.5758 C.ar      14 UNK        -0.0881 
     11 C11       -52.4901  -27.2848    9.2913 C.ar      14 UNK        -0.0643 
     12 C12       -52.9365  -28.0525   10.3698 C.ar      14 UNK        -0.0930 
     13 C13       -52.2618  -29.2204   10.7363 C.ar      14 UNK        -0.0827 
     14 C14       -51.1392  -29.6263   10.0093 C.ar      14 UNK        -0.1249 
     15 C15       -52.7399  -30.0281   11.9297 C.3       14 UNK         0.0141 
     16 S16       -53.9098  -31.3217   11.4182 S.3       14 UNK        -0.2313 
     17 C17       -54.8265  -31.5888   12.9728 C.3       14 UNK        -0.0915 
     18 CA        -56.2632  -31.0034   12.9179 C.3       13 UNK         0.0968 
     19 C         -57.0723  -31.3765   14.1948 C.2       13 UNK         0.5732 
     20 N         -57.5737  -30.4237   14.9721 N.am      13 UNK        -0.7310 
     21 O         -57.2578  -32.5572   14.4805 O.2       13 UNK        -0.5035 
     22 N         -56.2562  -29.5657   12.5984 N.am      13 UNK        -0.4233 
     23 C         -57.2606  -28.8980   12.0220 C.2       13 UNK         0.4989 
     24 O         -58.3269  -29.4187   11.6893 O.2       13 UNK        -0.4996 
     25 CA        -57.0344  -27.3880   11.8077 C.3       12 UNK         0.0216 
     26 CB        -58.1884  -26.7169   11.0388 C.3       12 UNK        -0.1964 
     27 N         -56.8362  -26.6844   13.0784 N.am      12 UNK        -0.4276 
     28 C         -55.7011  -26.6773   13.7865 C.2       12 UNK         0.5020 
     29 O         -54.6767  -27.2775   13.4487 O.2       12 UNK        -0.5489 
     30 CA        -55.7287  -25.9222   15.1169 C.3       11 UNK         0.0294 
     31 CB        -56.2578  -26.8305   16.2434 C.3       11 UNK        -0.2019 
     32 N         -54.3691  -25.4878   15.4121 N.am      11 UNK        -0.4493 
     33 C         -54.0145  -24.5383   16.2845 C.2       11 UNK         0.4932 
     34 O         -54.8257  -23.9102   16.9673 O.2       11 UNK        -0.5029 
     35 CA        -52.5118  -24.2091   16.3964 C.3       10 UNK         0.0280 
     36 CB        -52.1030  -23.7564   17.8140 C.3       10 UNK        -0.1976 
     37 N         -51.6264  -25.2725   15.9081 N.am      10 UNK        -0.4242 
     38 C         -51.4563  -26.5045   16.4112 C.2       10 UNK         0.5072 
     39 O         -52.0624  -26.9491   17.3868 O.2       10 UNK        -0.5224 
     40 CA        -50.4204  -27.3920   15.6998 C.3       9 UNK         0.0343 
     41 CB        -51.0428  -28.0633   14.4637 C.3       9 UNK        -0.2003 
     42 N         -49.2158  -26.6527   15.3091 N.am      9 UNK        -0.4272 
     43 C         -48.3299  -26.1287   16.1705 C.2       9 UNK         0.4988 
     44 O         -48.3876  -26.2817   17.3914 O.2       9 UNK        -0.5108 
     45 CA        -47.1905  -25.2804   15.5773 C.3       8 UNK         0.0248 
     46 CB        -46.0595  -26.1758   15.0466 C.3       8 UNK        -0.2001 
     47 N         -47.6484  -24.3719   14.5225 N.am      8 UNK        -0.4140 
     48 C         -48.4661  -23.3277   14.7261 C.2       8 UNK         0.5028 
     49 O         -48.8585  -22.9696   15.8368 O.2       8 UNK        -0.5428 
     50 CA        -48.9530  -22.5630   13.4828 C.3       7 UNK         0.0264 
     51 CB        -47.9342  -21.4910   13.0647 C.3       7 UNK        -0.1988 
     52 N         -49.2445  -23.4359   12.3433 N.am      7 UNK        -0.4454 
     53 C         -50.1935  -24.3837   12.3294 C.2       7 UNK         0.5027 
     54 O         -50.9499  -24.6036   13.2752 O.2       7 UNK        -0.5083 
     55 CA        -50.2731  -25.2683   11.0682 C.3       6 UNK         0.0844 
     56 C56       -50.9954  -24.5393    9.9048 C.3       14 UNK        -0.0967 
     57 S57       -52.8111  -24.6395   10.0624 S.3       14 UNK        -0.2604 
     58 C58       -53.2084  -25.9975    8.9156 C.3       14 UNK         0.0134 
     59 N         -48.9552  -25.7795   10.6772 N.am      6 UNK        -0.4116 
     60 C         -48.1705  -26.5433   11.4529 C.2       5 UNK         0.5034 
     61 O         -48.5093  -26.9839   12.5500 O.2       5 UNK        -0.5045 
     62 CA        -46.7345  -26.7956   10.9650 C.3       5 UNK         0.0224 
     63 CB        -46.6492  -28.0246   10.0511 C.3       5 UNK        -0.1978 
     64 N         -46.1741  -25.6287   10.2832 N.am      5 UNK        -0.4737 
     65 C         -45.8285  -24.4946   10.9074 C.2       4 UNK         0.5027 
     66 O         -45.8826  -24.3430   12.1273 O.2       4 UNK        -0.5211 
     67 CA        -45.4032  -23.3201   10.0110 C.3       4 UNK         0.0297 
     68 CB        -43.9239  -23.4479    9.6151 C.3       4 UNK        -0.1993 
     69 N         -46.2311  -23.2098    8.8057 N.am      4 UNK        -0.4486 
     70 C         -47.5395  -22.9163    8.8143 C.2       3 UNK         0.4961 
     71 O         -48.1726  -22.6546    9.8357 O.2       3 UNK        -0.5105 
     72 CA        -48.2793  -22.9627    7.4672 C.3       3 UNK         0.0299 
     73 CB        -48.2269  -21.5901    6.7787 C.3       3 UNK        -0.1972 
     74 N         -47.7721  -23.9921    6.5543 N.am      3 UNK        -0.4305 
     75 C         -47.8300  -25.3124    6.7783 C.2       2 UNK         0.5006 
     76 O         -48.2885  -25.8168    7.8058 O.2       2 UNK        -0.5106 
     77 CA        -47.1957  -26.2075    5.6992 C.3       2 UNK         0.0296 
     78 CB        -45.7800  -26.6247    6.1310 C.3       2 UNK        -0.2002 
     79 N         -47.9687  -27.4118    5.3793 N.am      2 UNK        -0.4032 
     80 C         -49.2407  -27.4477    4.9508 C.2       1 UNK         0.5000 
     81 O         -49.9605  -26.4522    4.8500 O.2       1 UNK        -0.5238 
     82 H82       -47.2814  -31.0902    1.5544 H         1 UNK         0.0889 
     83 H83       -46.9918  -31.4113    3.2652 H         1 UNK         0.0889 
     84 H84       -46.0561  -30.1690    2.4308 H         1 UNK         0.0889 
     85 H85       -48.5928  -30.5439    4.5748 H         1 UNK         0.3028 
     86 H86       -50.4564  -28.5964    3.6635 H         1 UNK         0.0864 
     87 H87       -51.3385  -28.7551    6.0764 H         1 UNK         0.0720 
     88 H88       -51.3743  -30.1714    5.0947 H         1 UNK         0.0720 
     89 H89       -48.9427  -28.4136    7.7473 H         1 UNK         0.0814 
     90 H90       -48.7333  -29.7446    8.8517 H         1 UNK         0.0814 
     91 H91       -50.9990  -27.0946    7.7530 H         1 UNK         0.1469 
     92 H92       -53.7968  -27.7274   10.9376 H         1 UNK         0.1381 
     93 H93       -50.6145  -30.5293   10.2902 H         1 UNK         0.1206 
     94 H94       -51.8939  -30.4866   12.4437 H         1 UNK         0.0813 
     95 H95       -53.2121  -29.3618   12.6519 H         1 UNK         0.0813 
     96 H96       -54.8611  -32.6663   13.1437 H         1 UNK         0.0638 
     97 H97       -54.2700  -31.1686   13.8125 H         1 UNK         0.0638 
     98 H98       -56.7781  -31.5101   12.0994 H         1 UNK         0.0568 
     99 H99       -58.0995  -30.6831   15.7917 H         1 UNK         0.3450 
    100 H100      -57.4434  -29.4544   14.7383 H         1 UNK         0.3450 
    101 H101      -55.4396  -29.0355   12.8840 H         1 UNK         0.2987 
    102 H102      -56.1326  -27.2799   11.2017 H         1 UNK         0.0766 
    103 H103      -57.9768  -25.6651   10.8450 H         1 UNK         0.0798 
    104 H104      -59.1298  -26.7750   11.5867 H         1 UNK         0.0798 
    105 H105      -58.3438  -27.1964   10.0713 H         1 UNK         0.0798 
    106 H106      -57.6411  -26.1988   13.4492 H         1 UNK         0.3198 
    107 H107      -56.3688  -25.0432   15.0139 H         1 UNK         0.0843 
    108 H108      -55.6309  -27.7139   16.3736 H         1 UNK         0.0831 
    109 H109      -57.2705  -27.1744   16.0302 H         1 UNK         0.0831 
    110 H110      -56.2931  -26.3049   17.1976 H         1 UNK         0.0831 
    111 H111      -53.6600  -25.9459   14.8512 H         1 UNK         0.3133 
    112 H112      -52.3440  -23.3651   15.7259 H         1 UNK         0.0566 
    113 H113      -51.0404  -23.5158   17.8596 H         1 UNK         0.0814 
    114 H114      -52.6493  -22.8613   18.1134 H         1 UNK         0.0814 
    115 H115      -52.3063  -24.5254   18.5596 H         1 UNK         0.0814 
    116 H116      -51.1397  -25.0492   15.0406 H         1 UNK         0.3091 
    117 H117      -50.1196  -28.1768   16.3970 H         1 UNK         0.0702 
    118 H118      -51.9325  -28.6324   14.7365 H         1 UNK         0.0785 
    119 H119      -51.3421  -27.3335   13.7101 H         1 UNK         0.0785 
    120 H120      -50.3438  -28.7556   13.9942 H         1 UNK         0.0785 
    121 H121      -49.0499  -26.5473   14.3110 H         1 UNK         0.2998 
    122 H122      -46.7809  -24.6673   16.3828 H         1 UNK         0.0697 
    123 H123      -46.4051  -26.8383   14.2537 H         1 UNK         0.0825 
    124 H124      -45.6572  -26.8047   15.8418 H         1 UNK         0.0825 
    125 H125      -45.2340  -25.5827   14.6524 H         1 UNK         0.0825 
    126 H126      -47.3032  -24.5431   13.5834 H         1 UNK         0.3029 
    127 H127      -49.8836  -22.0596   13.7539 H         1 UNK         0.0897 
    128 H128      -48.3055  -20.8952   12.2305 H         1 UNK         0.0792 
    129 H129      -46.9841  -21.9319   12.7622 H         1 UNK         0.0792 
    130 H130      -47.7290  -20.8055   13.8880 H         1 UNK         0.0792 
    131 H131      -48.7037  -23.2763   11.4949 H         1 UNK         0.3086 
    132 H132      -50.8555  -26.1518   11.3375 H         1 UNK         0.0583 
    133 H133      -50.7078  -23.4882    9.8455 H         1 UNK         0.1020 
    134 H134      -50.7057  -24.9666    8.9445 H         1 UNK         0.1020 
    135 H135      -54.2863  -26.1657    8.9258 H         1 UNK         0.0694 
    136 H136      -52.9547  -25.6956    7.8980 H         1 UNK         0.0694 
    137 H137      -48.6179  -25.5260    9.7547 H         1 UNK         0.2989 
    138 H138      -46.1249  -26.9975   11.8484 H         1 UNK         0.1055 
    139 H139      -47.1153  -28.8927   10.5191 H         1 UNK         0.0806 
    140 H140      -45.6125  -28.2879    9.8410 H         1 UNK         0.0806 
    141 H141      -47.1461  -27.8508    9.0990 H         1 UNK         0.0806 
    142 H142      -46.1436  -25.6568    9.2748 H         1 UNK         0.3061 
    143 H143      -45.5248  -22.4012   10.5889 H         1 UNK         0.0734 
    144 H144      -43.5889  -22.5808    9.0455 H         1 UNK         0.0832 
    145 H145      -43.2898  -23.5158   10.5003 H         1 UNK         0.0832 
    146 H146      -43.7383  -24.3385    9.0133 H         1 UNK         0.0832 
    147 H147      -45.7855  -23.3968    7.9195 H         1 UNK         0.3156 
    148 H148      -49.3254  -23.1954    7.6752 H         1 UNK         0.0589 
    149 H149      -48.6221  -20.8113    7.4328 H         1 UNK         0.0808 
    150 H150      -47.2073  -21.3065    6.5145 H         1 UNK         0.0808 
    151 H151      -48.8263  -21.5790    5.8682 H         1 UNK         0.0808 
    152 H152      -47.3686  -23.6652    5.6877 H         1 UNK         0.3098 
    153 H153      -47.1168  -25.6309    4.7753 H         1 UNK         0.0720 
    154 H154      -45.1626  -25.7538    6.3554 H         1 UNK         0.0791 
    155 H155      -45.2724  -27.1812    5.3427 H         1 UNK         0.0791 
    156 H156      -45.7983  -27.2508    7.0239 H         1 UNK         0.0791 
    157 H157      -47.4722  -28.2886    5.4298 H         1 UNK         0.3028 
@<TRIPOS>BOND
     1    1    2 1    
     2    1   82 1    
     3    1   83 1    
     4    1   84 1    
     5    2    3 2    
     6    2    4 am   BACKBONE|DICT|INTERRES
     7    4    5 1    
     8    4   85 1    
     9    5    6 1    
    10    5   80 1    
    11    5   86 1    
    12    6    7 1    
    13    6   87 1    
    14    6   88 1    
    15    7    8 1    
    16    8    9 1    
    17    8   89 1    
    18    8   90 1    
    19    9   10 ar   
    20    9   14 ar   
    21   10   11 ar   
    22   10   91 1    
    23   11   12 ar   
    24   11   58 1    
    25   12   13 ar   
    26   12   92 1    
    27   13   14 ar   
    28   13   15 1    
    29   14   93 1    
    30   15   16 1    
    31   15   94 1    
    32   15   95 1    
    33   16   17 1    
    34   17   18 1    
    35   17   96 1    
    36   17   97 1    
    37   18   19 1    
    38   18   22 1    
    39   18   98 1    
    40   19   20 am   BACKBONE|DICT|INTERRES
    41   19   21 2    
    42   20   99 1    
    43   20  100 1    
    44   22   23 am   BACKBONE|DICT|INTERRES
    45   22  101 1    
    46   23   24 2    
    47   23   25 1    
    48   25   26 1    
    49   25   27 1    
    50   25  102 1    
    51   26  103 1    
    52   26  104 1    
    53   26  105 1    
    54   27   28 am   BACKBONE|DICT|INTERRES
    55   27  106 1    
    56   28   29 2    
    57   28   30 1    
    58   30   31 1    
    59   30   32 1    
    60   30  107 1    
    61   31  108 1    
    62   31  109 1    
    63   31  110 1    
    64   32   33 am   BACKBONE|DICT|INTERRES
    65   32  111 1    
    66   33   34 2    
    67   33   35 1    
    68   35   36 1    
    69   35   37 1    
    70   35  112 1    
    71   36  113 1    
    72   36  114 1    
    73   36  115 1    
    74   37   38 am   BACKBONE|DICT|INTERRES
    75   37  116 1    
    76   38   39 2    
    77   38   40 1    
    78   40   41 1    
    79   40   42 1    
    80   40  117 1    
    81   41  118 1    
    82   41  119 1    
    83   41  120 1    
    84   42   43 am   BACKBONE|DICT|INTERRES
    85   42  121 1    
    86   43   44 2    
    87   43   45 1    
    88   45   46 1    
    89   45   47 1    
    90   45  122 1    
    91   46  123 1    
    92   46  124 1    
    93   46  125 1    
    94   47   48 am   BACKBONE|DICT|INTERRES
    95   47  126 1    
    96   48   49 2    
    97   48   50 1    
    98   50   51 1    
    99   50   52 1    
   100   50  127 1    
   101   51  128 1    
   102   51  129 1    
   103   51  130 1    
   104   52   53 am   BACKBONE|DICT|INTERRES
   105   52  131 1    
   106   53   54 2    
   107   53   55 1    
   108   55   56 1    
   109   55   59 1    
   110   55  132 1    
   111   56   57 1    
   112   56  133 1    
   113   56  134 1    
   114   57   58 1    
   115   58  135 1    
   116   58  136 1    
   117   59   60 am   BACKBONE|DICT|INTERRES
   118   59  137 1    
   119   60   61 2    
   120   60   62 1    
   121   62   63 1    
   122   62   64 1    
   123   62  138 1    
   124   63  139 1    
   125   63  140 1    
   126   63  141 1    
   127   64   65 am   BACKBONE|DICT|INTERRES
   128   64  142 1    
   129   65   66 2    
   130   65   67 1    
   131   67   68 1    
   132   67   69 1    
   133   67  143 1    
   134   68  144 1    
   135   68  145 1    
   136   68  146 1    
   137   69   70 am   BACKBONE|DICT|INTERRES
   138   69  147 1    
   139   70   71 2    
   140   70   72 1    
   141   72   73 1    
   142   72   74 1    
   143   72  148 1    
   144   73  149 1    
   145   73  150 1    
   146   73  151 1    
   147   74   75 am   BACKBONE|DICT|INTERRES
   148   74  152 1    
   149   75   76 2    
   150   75   77 1    
   151   77   78 1    
   152   77   79 1    
   153   77  153 1    
   154   78  154 1    
   155   78  155 1    
   156   78  156 1    
   157   79   80 am   BACKBONE|DICT|INTERRES
   158   79  157 1    
   159   80   81 2    
@<TRIPOS>SUBSTRUCTURE
     1 UNK         1 GROUP             0       ****    0 ROOT    
