@<TRIPOS>MOLECULE
3R207
157   159    1
SMALL
USER_CHARGES


@<TRIPOS>ATOM
      1 CA        -45.9673  -29.4916    7.1036 C.3       0 UNK        -0.1975 
      2 C         -46.5654  -29.0595    5.7740 C.2       0 UNK         0.4852 
      3 O         -45.9828  -29.3324    4.7238 O.2       0 UNK        -0.5216 
      4 N         -47.7176  -28.3760    5.8041 N.am      1 UNK        -0.4461 
      5 CA        -48.4330  -27.8754    4.6274 C.3       1 UNK         0.0864 
      6 C6        -49.9551  -27.7071    4.8909 C.3       14 UNK        -0.0898 
      7 S7        -50.4156  -26.7397    6.3767 S.3       14 UNK        -0.2598 
      8 C8        -51.9305  -27.6118    6.9225 C.3       14 UNK         0.0286 
      9 C9        -51.7329  -28.5460    8.1169 C.ar      14 UNK        -0.0844 
     10 C10       -50.5153  -29.1913    8.3614 C.ar      14 UNK        -0.0881 
     11 C11       -50.3452  -30.0035    9.4852 C.ar      14 UNK        -0.0643 
     12 C12       -51.4238  -30.2145   10.3479 C.ar      14 UNK        -0.0930 
     13 C13       -52.6589  -29.6083   10.0996 C.ar      14 UNK        -0.0827 
     14 C14       -52.8044  -28.7725    8.9878 C.ar      14 UNK        -0.1249 
     15 C15       -53.8346  -29.8654   11.0301 C.3       14 UNK         0.0141 
     16 S16       -53.7572  -28.8038   12.5027 S.3       14 UNK        -0.2313 
     17 C17       -55.1744  -29.4265   13.4717 C.3       14 UNK        -0.0915 
     18 CA        -56.2419  -28.3373   13.7553 C.3       13 UNK         0.0968 
     19 C         -57.4982  -28.9590   14.4253 C.2       13 UNK         0.5732 
     20 N         -57.6880  -28.8409   15.7336 N.am      13 UNK        -0.7310 
     21 O         -58.3231  -29.5573   13.7384 O.2       13 UNK        -0.5035 
     22 N         -55.6742  -27.1912   14.4796 N.am      13 UNK        -0.4233 
     23 C         -56.2250  -25.9730   14.5277 C.2       13 UNK         0.4989 
     24 O         -57.3094  -25.6895   14.0128 O.2       13 UNK        -0.4996 
     25 CA        -55.4051  -24.8894   15.2527 C.3       12 UNK         0.0216 
     26 CB        -55.9982  -23.4708   15.1121 C.3       12 UNK        -0.1964 
     27 N         -55.1366  -25.2166   16.6553 N.am      12 UNK        -0.4276 
     28 C         -56.0310  -25.3718   17.6418 C.2       12 UNK         0.5020 
     29 O         -57.2475  -25.2261   17.5073 O.2       12 UNK        -0.5489 
     30 CA        -55.4464  -25.7635   19.0146 C.3       11 UNK         0.0294 
     31 CB        -56.5308  -26.0336   20.0804 C.3       11 UNK        -0.2019 
     32 N         -54.5134  -26.8947   18.9226 N.am      11 UNK        -0.4493 
     33 C         -54.7821  -28.1221   18.4501 C.2       11 UNK         0.4932 
     34 O         -55.8911  -28.4822   18.0529 O.2       11 UNK        -0.5029 
     35 CA        -53.5838  -29.0912   18.3815 C.3       10 UNK         0.0280 
     36 CB        -53.9353  -30.4267   17.6923 C.3       10 UNK        -0.1976 
     37 N         -52.3962  -28.4913   17.7549 N.am      10 UNK        -0.4242 
     38 C         -52.3347  -27.9098   16.5473 C.2       10 UNK         0.5072 
     39 O         -53.2978  -27.7846   15.7905 O.2       10 UNK        -0.5224 
     40 CA        -50.9542  -27.3902   16.1148 C.3       9 UNK         0.0343 
     41 CB        -50.1299  -28.5302   15.4956 C.3       9 UNK        -0.2003 
     42 N         -51.0443  -26.2832   15.1568 N.am      9 UNK        -0.4272 
     43 C         -51.5652  -25.0769   15.4344 C.2       9 UNK         0.4988 
     44 O         -52.0494  -24.7841   16.5302 O.2       9 UNK        -0.5108 
     45 CA        -51.5381  -23.9999   14.3331 C.3       8 UNK         0.0248 
     46 CB        -50.4788  -22.9340   14.6574 C.3       8 UNK        -0.2001 
     47 N         -51.2760  -24.5479   13.0010 N.am      8 UNK        -0.4140 
     48 C         -52.2192  -25.0551   12.1921 C.2       8 UNK         0.5028 
     49 O         -53.4219  -25.0209   12.4492 O.2       8 UNK        -0.5428 
     50 CA        -51.7696  -25.6943   10.8635 C.3       7 UNK         0.0264 
     51 CB        -52.1789  -24.8035    9.6797 C.3       7 UNK        -0.1988 
     52 N         -50.3341  -25.9805   10.7768 N.am      7 UNK        -0.4454 
     53 C         -49.6927  -26.8813   11.5401 C.2       7 UNK         0.5027 
     54 O         -50.2500  -27.5297   12.4236 O.2       7 UNK        -0.5083 
     55 CA        -48.1604  -27.0143   11.3663 C.3       6 UNK         0.0844 
     56 C56       -47.7661  -28.1599   10.4014 C.3       14 UNK        -0.0967 
     57 S57       -48.0700  -29.8256   11.0900 S.3       14 UNK        -0.2604 
     58 C58       -48.9981  -30.6582    9.7584 C.3       14 UNK         0.0134 
     59 N         -47.5238  -25.7538   10.9705 N.am      6 UNK        -0.4116 
     60 C         -47.5759  -24.6059   11.6605 C.2       5 UNK         0.5034 
     61 O         -48.1257  -24.4901   12.7559 O.2       5 UNK        -0.5045 
     62 CA        -46.9537  -23.3651   10.9976 C.3       5 UNK         0.0224 
     63 CB        -45.5232  -23.1445   11.5138 C.3       5 UNK        -0.1978 
     64 N         -46.9351  -23.3886    9.5285 N.am      5 UNK        -0.4737 
     65 C         -47.9944  -23.5134    8.7186 C.2       4 UNK         0.5027 
     66 O         -49.1324  -23.7397    9.1262 O.2       4 UNK        -0.5211 
     67 CA        -47.7539  -23.3789    7.2031 C.3       4 UNK         0.0297 
     68 CB        -47.7004  -21.8970    6.7865 C.3       4 UNK        -0.1993 
     69 N         -46.5998  -24.1235    6.6760 N.am      4 UNK        -0.4486 
     70 C         -45.2907  -23.9661    6.9353 C.2       3 UNK         0.4961 
     71 O         -44.8413  -23.1249    7.7141 O.2       3 UNK        -0.5105 
     72 CA        -44.3055  -24.9271    6.2420 C.3       3 UNK         0.0299 
     73 CB        -43.8663  -26.0255    7.2245 C.3       3 UNK        -0.1972 
     74 N         -44.8482  -25.5570    5.0368 N.am      3 UNK        -0.4305 
     75 C         -45.0760  -24.9303    3.8730 C.2       2 UNK         0.5006 
     76 O         -44.7643  -23.7602    3.6505 O.2       2 UNK        -0.5106 
     77 CA        -45.8006  -25.7406    2.7805 C.3       2 UNK         0.0296 
     78 CB        -44.7860  -26.3522    1.8009 C.3       2 UNK        -0.2002 
     79 N         -46.6623  -26.8036    3.3133 N.am      2 UNK        -0.4032 
     80 C         -47.7411  -26.6067    4.0857 C.2       1 UNK         0.5000 
     81 O         -48.1302  -25.4888    4.4260 O.2       1 UNK        -0.5238 
     82 H82       -44.9262  -29.1767    7.1694 H         1 UNK         0.0889 
     83 H83       -45.9993  -30.5771    7.1920 H         1 UNK         0.0889 
     84 H84       -46.5040  -29.0663    7.9487 H         1 UNK         0.0889 
     85 H85       -48.1332  -28.1217    6.6871 H         1 UNK         0.3028 
     86 H86       -48.3504  -28.6290    3.8403 H         1 UNK         0.0864 
     87 H87       -50.3913  -28.7028    4.9843 H         1 UNK         0.0720 
     88 H88       -50.4439  -27.2575    4.0247 H         1 UNK         0.0720 
     89 H89       -52.3641  -28.1754    6.0959 H         1 UNK         0.0814 
     90 H90       -52.6685  -26.8509    7.1798 H         1 UNK         0.0814 
     91 H91       -49.6878  -29.0550    7.6842 H         1 UNK         0.1469 
     92 H92       -51.2989  -30.8442   11.2181 H         1 UNK         0.1381 
     93 H93       -53.7559  -28.2923    8.8039 H         1 UNK         0.1206 
     94 H94       -54.7786  -29.6938   10.5107 H         1 UNK         0.0813 
     95 H95       -53.8348  -30.9124   11.3372 H         1 UNK         0.0813 
     96 H96       -54.7874  -29.8292   14.4082 H         1 UNK         0.0638 
     97 H97       -55.6231  -30.2696   12.9432 H         1 UNK         0.0638 
     98 H98       -56.5768  -27.9629   12.7859 H         1 UNK         0.0568 
     99 H99       -58.5123  -29.2460   16.1457 H         1 UNK         0.3450 
    100 H100      -56.9891  -28.4170   16.3333 H         1 UNK         0.3450 
    101 H101      -54.7791  -27.3603   14.9396 H         1 UNK         0.2987 
    102 H102      -54.4327  -24.8790   14.7666 H         1 UNK         0.0766 
    103 H103      -56.9909  -23.3965   15.5571 H         1 UNK         0.0798 
    104 H104      -56.0922  -23.1949   14.0611 H         1 UNK         0.0798 
    105 H105      -55.3595  -22.7259   15.5863 H         1 UNK         0.0798 
    106 H106      -54.1591  -25.3780   16.8715 H         1 UNK         0.3198 
    107 H107      -54.8625  -24.9055   19.3522 H         1 UNK         0.0843 
    108 H108      -57.1867  -26.8562   19.7933 H         1 UNK         0.0831 
    109 H109      -57.1598  -25.1547   20.2272 H         1 UNK         0.0831 
    110 H110      -56.0876  -26.2788   21.0454 H         1 UNK         0.0831 
    111 H111      -53.5611  -26.7003   19.2006 H         1 UNK         0.3133 
    112 H112      -53.3120  -29.3153   19.4140 H         1 UNK         0.0566 
    113 H113      -54.2461  -30.2768   16.6587 H         1 UNK         0.0814 
    114 H114      -53.0856  -31.1092   17.6909 H         1 UNK         0.0814 
    115 H115      -54.7543  -30.9299   18.2078 H         1 UNK         0.0814 
    116 H116      -51.5474  -28.5361   18.3024 H         1 UNK         0.3091 
    117 H117      -50.4299  -27.0185   16.9975 H         1 UNK         0.0702 
    118 H118      -49.1533  -28.1812   15.1593 H         1 UNK         0.0785 
    119 H119      -50.6407  -28.9716   14.6382 H         1 UNK         0.0785 
    120 H120      -49.9587  -29.3298   16.2171 H         1 UNK         0.0785 
    121 H121      -50.7492  -26.4887   14.2089 H         1 UNK         0.2998 
    122 H122      -52.5119  -23.5061   14.3296 H         1 UNK         0.0697 
    123 H123      -49.4816  -23.3668   14.7435 H         1 UNK         0.0825 
    124 H124      -50.7003  -22.4424   15.6057 H         1 UNK         0.0825 
    125 H125      -50.4446  -22.1590   13.8916 H         1 UNK         0.0825 
    126 H126      -50.3042  -24.6063   12.7192 H         1 UNK         0.3029 
    127 H127      -52.2960  -26.6462   10.7758 H         1 UNK         0.0897 
    128 H128      -53.2633  -24.6993    9.6279 H         1 UNK         0.0792 
    129 H129      -51.8450  -25.2206    8.7308 H         1 UNK         0.0792 
    130 H130      -51.7586  -23.8010    9.7679 H         1 UNK         0.0792 
    131 H131      -49.8063  -25.4132   10.1205 H         1 UNK         0.3086 
    132 H132      -47.7551  -27.2558   12.3516 H         1 UNK         0.0583 
    133 H133      -48.2623  -28.0373    9.4393 H         1 UNK         0.1020 
    134 H134      -46.6962  -28.1075   10.1936 H         1 UNK         0.1020 
    135 H135      -48.3872  -30.6818    8.8549 H         1 UNK         0.0694 
    136 H136      -49.1567  -31.6996   10.0423 H         1 UNK         0.0694 
    137 H137      -47.0585  -25.7367   10.0758 H         1 UNK         0.2989 
    138 H138      -47.5630  -22.5099   11.2978 H         1 UNK         0.1055 
    139 H139      -45.5021  -23.0976   12.6037 H         1 UNK         0.0806 
    140 H140      -45.1079  -22.2071   11.1431 H         1 UNK         0.0806 
    141 H141      -44.8552  -23.9508   11.2077 H         1 UNK         0.0806 
    142 H142      -46.0409  -23.2093    9.0739 H         1 UNK         0.3061 
    143 H143      -48.6254  -23.8203    6.7157 H         1 UNK         0.0734 
    144 H144      -47.6256  -21.7942    5.7039 H         1 UNK         0.0832 
    145 H145      -48.6039  -21.3725    7.1003 H         1 UNK         0.0832 
    146 H146      -46.8525  -21.3762    7.2323 H         1 UNK         0.0832 
    147 H147      -46.8562  -24.8250    5.9904 H         1 UNK         0.3156 
    148 H148      -43.4245  -24.3480    5.9572 H         1 UNK         0.0589 
    149 H149      -43.1320  -26.6936    6.7738 H         1 UNK         0.0808 
    150 H150      -43.4030  -25.5914    8.1119 H         1 UNK         0.0808 
    151 H151      -44.7099  -26.6284    7.5619 H         1 UNK         0.0808 
    152 H152      -45.1051  -26.5305    5.1063 H         1 UNK         0.3098 
    153 H153      -46.4356  -25.0450    2.2277 H         1 UNK         0.0720 
    154 H154      -45.2867  -26.8538    0.9725 H         1 UNK         0.0791 
    155 H155      -44.1374  -27.0790    2.2919 H         1 UNK         0.0791 
    156 H156      -44.1451  -25.5812    1.3704 H         1 UNK         0.0791 
    157 H157      -46.3615  -27.7583    3.1566 H         1 UNK         0.3028 
@<TRIPOS>BOND
     1    1    2 1    
     2    1   82 1    
     3    1   83 1    
     4    1   84 1    
     5    2    3 2    
     6    2    4 am   BACKBONE|DICT|INTERRES
     7    4    5 1    
     8    4   85 1    
     9    5    6 1    
    10    5   80 1    
    11    5   86 1    
    12    6    7 1    
    13    6   87 1    
    14    6   88 1    
    15    7    8 1    
    16    8    9 1    
    17    8   89 1    
    18    8   90 1    
    19    9   10 ar   
    20    9   14 ar   
    21   10   11 ar   
    22   10   91 1    
    23   11   12 ar   
    24   11   58 1    
    25   12   13 ar   
    26   12   92 1    
    27   13   14 ar   
    28   13   15 1    
    29   14   93 1    
    30   15   16 1    
    31   15   94 1    
    32   15   95 1    
    33   16   17 1    
    34   17   18 1    
    35   17   96 1    
    36   17   97 1    
    37   18   19 1    
    38   18   22 1    
    39   18   98 1    
    40   19   20 am   BACKBONE|DICT|INTERRES
    41   19   21 2    
    42   20   99 1    
    43   20  100 1    
    44   22   23 am   BACKBONE|DICT|INTERRES
    45   22  101 1    
    46   23   24 2    
    47   23   25 1    
    48   25   26 1    
    49   25   27 1    
    50   25  102 1    
    51   26  103 1    
    52   26  104 1    
    53   26  105 1    
    54   27   28 am   BACKBONE|DICT|INTERRES
    55   27  106 1    
    56   28   29 2    
    57   28   30 1    
    58   30   31 1    
    59   30   32 1    
    60   30  107 1    
    61   31  108 1    
    62   31  109 1    
    63   31  110 1    
    64   32   33 am   BACKBONE|DICT|INTERRES
    65   32  111 1    
    66   33   34 2    
    67   33   35 1    
    68   35   36 1    
    69   35   37 1    
    70   35  112 1    
    71   36  113 1    
    72   36  114 1    
    73   36  115 1    
    74   37   38 am   BACKBONE|DICT|INTERRES
    75   37  116 1    
    76   38   39 2    
    77   38   40 1    
    78   40   41 1    
    79   40   42 1    
    80   40  117 1    
    81   41  118 1    
    82   41  119 1    
    83   41  120 1    
    84   42   43 am   BACKBONE|DICT|INTERRES
    85   42  121 1    
    86   43   44 2    
    87   43   45 1    
    88   45   46 1    
    89   45   47 1    
    90   45  122 1    
    91   46  123 1    
    92   46  124 1    
    93   46  125 1    
    94   47   48 am   BACKBONE|DICT|INTERRES
    95   47  126 1    
    96   48   49 2    
    97   48   50 1    
    98   50   51 1    
    99   50   52 1    
   100   50  127 1    
   101   51  128 1    
   102   51  129 1    
   103   51  130 1    
   104   52   53 am   BACKBONE|DICT|INTERRES
   105   52  131 1    
   106   53   54 2    
   107   53   55 1    
   108   55   56 1    
   109   55   59 1    
   110   55  132 1    
   111   56   57 1    
   112   56  133 1    
   113   56  134 1    
   114   57   58 1    
   115   58  135 1    
   116   58  136 1    
   117   59   60 am   BACKBONE|DICT|INTERRES
   118   59  137 1    
   119   60   61 2    
   120   60   62 1    
   121   62   63 1    
   122   62   64 1    
   123   62  138 1    
   124   63  139 1    
   125   63  140 1    
   126   63  141 1    
   127   64   65 am   BACKBONE|DICT|INTERRES
   128   64  142 1    
   129   65   66 2    
   130   65   67 1    
   131   67   68 1    
   132   67   69 1    
   133   67  143 1    
   134   68  144 1    
   135   68  145 1    
   136   68  146 1    
   137   69   70 am   BACKBONE|DICT|INTERRES
   138   69  147 1    
   139   70   71 2    
   140   70   72 1    
   141   72   73 1    
   142   72   74 1    
   143   72  148 1    
   144   73  149 1    
   145   73  150 1    
   146   73  151 1    
   147   74   75 am   BACKBONE|DICT|INTERRES
   148   74  152 1    
   149   75   76 2    
   150   75   77 1    
   151   77   78 1    
   152   77   79 1    
   153   77  153 1    
   154   78  154 1    
   155   78  155 1    
   156   78  156 1    
   157   79   80 am   BACKBONE|DICT|INTERRES
   158   79  157 1    
   159   80   81 2    
@<TRIPOS>SUBSTRUCTURE
     1 UNK         1 GROUP             0       ****    0 ROOT    
