@<TRIPOS>MOLECULE
3R207
157   159    1
SMALL
USER_CHARGES


@<TRIPOS>ATOM
      1 CA        -51.7088  -31.3783    4.9216 C.3       0 UNK        -0.1975 
      2 C         -50.9632  -30.4509    5.8689 C.2       0 UNK         0.4852 
      3 O         -51.2780  -30.4153    7.0583 O.2       0 UNK        -0.5216 
      4 N         -49.9705  -29.7126    5.3513 N.am      1 UNK        -0.4461 
      5 CA        -49.1260  -28.7125    6.0282 C.3       1 UNK         0.0864 
      6 C6        -49.9203  -27.5049    6.5911 C.3       14 UNK        -0.0898 
      7 S7        -50.4453  -26.3834    5.2507 S.3       14 UNK        -0.2598 
      8 C8        -52.1869  -26.8449    4.9998 C.3       14 UNK         0.0286 
      9 C9        -53.0933  -26.1837    6.0243 C.ar      14 UNK        -0.0844 
     10 C10       -53.4476  -24.8392    5.8790 C.ar      14 UNK        -0.0881 
     11 C11       -54.2697  -24.2147    6.8217 C.ar      14 UNK        -0.0643 
     12 C12       -54.7676  -24.9565    7.8961 C.ar      14 UNK        -0.0930 
     13 C13       -54.4063  -26.2972    8.0588 C.ar      14 UNK        -0.0827 
     14 C14       -53.5750  -26.9092    7.1165 C.ar      14 UNK        -0.1249 
     15 C15       -54.8940  -27.0703    9.2724 C.3       14 UNK         0.0141 
     16 S16       -54.0585  -26.5083   10.7868 S.3       14 UNK        -0.2313 
     17 C17       -52.3873  -27.2188   10.5856 C.3       14 UNK        -0.0915 
     18 CA        -52.1748  -28.5185   11.4067 C.3       13 UNK         0.0968 
     19 C         -50.7389  -29.0951   11.2458 C.2       13 UNK         0.5732 
     20 N         -50.1866  -29.7835   12.2392 N.am      13 UNK        -0.7310 
     21 O         -50.1032  -28.9196   10.2092 O.2       13 UNK        -0.5035 
     22 N         -52.5393  -28.3423   12.8205 N.am      13 UNK        -0.4233 
     23 C         -53.3764  -29.1274   13.5066 C.2       13 UNK         0.4989 
     24 O         -53.9973  -30.0689   13.0087 O.2       13 UNK        -0.4996 
     25 CA        -53.5364  -28.8122   15.0088 C.3       12 UNK         0.0216 
     26 CB        -54.2168  -29.9569   15.7895 C.3       12 UNK        -0.1964 
     27 N         -52.2832  -28.4268   15.6742 N.am      12 UNK        -0.4276 
     28 C         -51.1374  -29.1263   15.7090 C.2       12 UNK         0.5020 
     29 O         -50.9625  -30.1859   15.1048 O.2       12 UNK        -0.5489 
     30 CA        -49.9797  -28.5615   16.5514 C.3       11 UNK         0.0294 
     31 CB        -48.8856  -27.9693   15.6513 C.3       11 UNK        -0.2019 
     32 N         -50.3919  -27.5565   17.5336 N.am      11 UNK        -0.4493 
     33 C         -50.9953  -27.8215   18.6979 C.2       11 UNK         0.4932 
     34 O         -51.3055  -28.9564   19.0603 O.2       11 UNK        -0.5029 
     35 CA        -51.3015  -26.6305   19.6262 C.3       10 UNK         0.0280 
     36 CB        -50.0417  -26.1977   20.4019 C.3       10 UNK        -0.1976 
     37 N         -51.9536  -25.4840   18.9754 N.am      10 UNK        -0.4242 
     38 C         -51.4745  -24.6652   18.0288 C.2       10 UNK         0.5072 
     39 O         -50.3562  -24.7660   17.5189 O.2       10 UNK        -0.5224 
     40 CA        -52.4208  -23.5532   17.5506 C.3       9 UNK         0.0343 
     41 CB        -51.7870  -22.1659   17.7475 C.3       9 UNK        -0.2003 
     42 N         -52.7656  -23.7325   16.1413 N.am      9 UNK        -0.4272 
     43 C         -53.4957  -24.7452   15.6532 C.2       9 UNK         0.4988 
     44 O         -53.9931  -25.6300   16.3499 O.2       9 UNK        -0.5108 
     45 CA        -53.6998  -24.7830   14.1308 C.3       8 UNK         0.0248 
     46 CB        -54.9561  -23.9944   13.7300 C.3       8 UNK        -0.2001 
     47 N         -52.5459  -24.2675   13.3933 N.am      8 UNK        -0.4140 
     48 C         -51.3756  -24.9024   13.2659 C.2       8 UNK         0.5028 
     49 O         -51.1646  -26.0215   13.7377 O.2       8 UNK        -0.5428 
     50 CA        -50.2839  -24.1797   12.4460 C.3       7 UNK         0.0264 
     51 CB        -48.9505  -24.9429   12.4589 C.3       7 UNK        -0.1988 
     52 N         -50.6748  -23.9523   11.0495 N.am      7 UNK        -0.4454 
     53 C         -51.6026  -23.0785   10.6303 C.2       7 UNK         0.5027 
     54 O         -52.1927  -22.3095   11.3938 O.2       7 UNK        -0.5083 
     55 CA        -51.9559  -23.0841    9.1267 C.3       6 UNK         0.0844 
     56 C56       -52.7563  -21.8204    8.6924 C.3       14 UNK        -0.0967 
     57 S57       -53.0988  -21.7023    6.8979 S.3       14 UNK        -0.2604 
     58 C58       -54.5895  -22.7323    6.6957 C.3       14 UNK         0.0134 
     59 N         -50.8208  -23.3974    8.2564 N.am      6 UNK        -0.4116 
     60 C         -49.6936  -22.6910    8.1128 C.2       5 UNK         0.5034 
     61 O         -49.3927  -21.7001    8.7818 O.2       5 UNK        -0.5045 
     62 CA        -48.7512  -23.1811    6.9997 C.3       5 UNK         0.0224 
     63 CB        -48.2734  -22.0077    6.1262 C.3       5 UNK        -0.1978 
     64 N         -47.5823  -23.9367    7.4622 N.am      5 UNK        -0.4737 
     65 C         -47.5448  -24.9304    8.3618 C.2       4 UNK         0.5027 
     66 O         -48.4995  -25.2767    9.0622 O.2       4 UNK        -0.5211 
     67 CA        -46.2132  -25.7035    8.4035 C.3       4 UNK         0.0297 
     68 CB        -45.0185  -24.8042    8.7934 C.3       4 UNK        -0.1993 
     69 N         -46.2836  -26.9243    9.2164 N.am      4 UNK        -0.4486 
     70 C         -46.2765  -27.0338   10.5535 C.2       3 UNK         0.4961 
     71 O         -46.1089  -26.0876   11.3233 O.2       3 UNK        -0.5105 
     72 CA        -46.4521  -28.4488   11.1335 C.3       3 UNK         0.0299 
     73 CB        -47.0908  -28.4345   12.5329 C.3       3 UNK        -0.1972 
     74 N         -47.2412  -29.3075   10.2436 N.am      3 UNK        -0.4305 
     75 C         -46.7993  -30.4419    9.6865 C.2       2 UNK         0.5006 
     76 O         -45.6878  -30.9270    9.9039 O.2       2 UNK        -0.5106 
     77 CA        -47.7375  -31.1616    8.6995 C.3       2 UNK         0.0296 
     78 CB        -48.6430  -32.1606    9.4379 C.3       2 UNK        -0.2002 
     79 N         -48.5627  -30.2963    7.8474 N.am      2 UNK        -0.4032 
     80 C         -48.1336  -29.3042    7.0561 C.2       1 UNK         0.5000 
     81 O         -46.9784  -28.8738    7.0737 O.2       1 UNK        -0.5238 
     82 H82       -51.3304  -31.3119    3.9017 H         1 UNK         0.0889 
     83 H83       -52.7683  -31.1241    4.9073 H         1 UNK         0.0889 
     84 H84       -51.6105  -32.4113    5.2540 H         1 UNK         0.0889 
     85 H85       -49.7567  -29.8301    4.3704 H         1 UNK         0.3028 
     86 H86       -48.4802  -28.3276    5.2366 H         1 UNK         0.0864 
     87 H87       -50.7735  -27.8204    7.1921 H         1 UNK         0.0720 
     88 H88       -49.2955  -26.9169    7.2599 H         1 UNK         0.0720 
     89 H89       -52.2952  -27.9293    5.0248 H         1 UNK         0.0814 
     90 H90       -52.4902  -26.5348    3.9987 H         1 UNK         0.0814 
     91 H91       -53.0606  -24.2688    5.0454 H         1 UNK         0.1469 
     92 H92       -55.3991  -24.4812    8.6343 H         1 UNK         0.1381 
     93 H93       -53.2911  -27.9459    7.2402 H         1 UNK         0.1206 
     94 H94       -54.7401  -28.1433    9.1469 H         1 UNK         0.0813 
     95 H95       -55.9690  -26.9241    9.3856 H         1 UNK         0.0813 
     96 H96       -52.1988  -27.4038    9.5276 H         1 UNK         0.0638 
     97 H97       -51.6599  -26.4668   10.8836 H         1 UNK         0.0638 
     98 H98       -52.8223  -29.2728   10.9577 H         1 UNK         0.0568 
     99 H99       -49.2603  -30.1553   12.1220 H         1 UNK         0.3450 
    100 H100      -50.6755  -29.9275   13.1163 H         1 UNK         0.3450 
    101 H101      -52.0436  -27.5937   13.3017 H         1 UNK         0.2987 
    102 H102      -54.1962  -27.9465   15.0624 H         1 UNK         0.0766 
    103 H103      -55.2057  -30.1761   15.3849 H         1 UNK         0.0798 
    104 H104      -54.3491  -29.6957   16.8395 H         1 UNK         0.0798 
    105 H105      -53.6335  -30.8773   15.7440 H         1 UNK         0.0798 
    106 H106      -52.3049  -27.5443   16.1671 H         1 UNK         0.3198 
    107 H107      -49.5441  -29.4044   17.0924 H         1 UNK         0.0843 
    108 H108      -49.2412  -27.1035   15.0937 H         1 UNK         0.0831 
    109 H109      -48.5453  -28.7089   14.9272 H         1 UNK         0.0831 
    110 H110      -48.0160  -27.6607   16.2314 H         1 UNK         0.0831 
    111 H111      -50.1871  -26.5798   17.3259 H         1 UNK         0.3133 
    112 H112      -52.0228  -26.9910   20.3616 H         1 UNK         0.0566 
    113 H113      -50.2709  -25.4152   21.1252 H         1 UNK         0.0814 
    114 H114      -49.2602  -25.8233   19.7400 H         1 UNK         0.0814 
    115 H115      -49.6195  -27.0370   20.9562 H         1 UNK         0.0814 
    116 H116      -52.9087  -25.3286   19.2689 H         1 UNK         0.3091 
    117 H117      -53.3439  -23.5897   18.1332 H         1 UNK         0.0702 
    118 H118      -52.4735  -21.3705   17.4564 H         1 UNK         0.0785 
    119 H119      -50.8727  -22.0513   17.1635 H         1 UNK         0.0785 
    120 H120      -51.5271  -22.0019   18.7942 H         1 UNK         0.0785 
    121 H121      -52.3687  -23.0723   15.4898 H         1 UNK         0.2998 
    122 H122      -53.8494  -25.8244   13.8412 H         1 UNK         0.0697 
    123 H123      -54.8654  -22.9351   13.9731 H         1 UNK         0.0825 
    124 H124      -55.8371  -24.3754   14.2483 H         1 UNK         0.0825 
    125 H125      -55.1498  -24.0779   12.6603 H         1 UNK         0.0825 
    126 H126      -52.6543  -23.3836   12.9026 H         1 UNK         0.3029 
    127 H127      -50.1163  -23.2101   12.9195 H         1 UNK         0.0897 
    128 H128      -49.0375  -25.9033   11.9499 H         1 UNK         0.0792 
    129 H129      -48.6119  -25.1384   13.4771 H         1 UNK         0.0792 
    130 H130      -48.1654  -24.3747   11.9597 H         1 UNK         0.0792 
    131 H131      -50.1992  -24.5189   10.3553 H         1 UNK         0.3086 
    132 H132      -52.6175  -23.9406    9.0260 H         1 UNK         0.0583 
    133 H133      -53.7033  -21.7673    9.2328 H         1 UNK         0.1020 
    134 H134      -52.2042  -20.9212    8.9724 H         1 UNK         0.1020 
    135 H135      -55.3459  -22.4263    7.4201 H         1 UNK         0.0694 
    136 H136      -55.0152  -22.5452    5.7090 H         1 UNK         0.0694 
    137 H137      -50.9468  -24.2141    7.6755 H         1 UNK         0.2989 
    138 H138      -49.3188  -23.8508    6.3512 H         1 UNK         0.1055 
    139 H139      -47.6217  -21.3310    6.6806 H         1 UNK         0.0806 
    140 H140      -49.1194  -21.4210    5.7646 H         1 UNK         0.0806 
    141 H141      -47.7280  -22.3580    5.2497 H         1 UNK         0.0806 
    142 H142      -46.7261  -23.7377    6.9657 H         1 UNK         0.3061 
    143 H143      -46.0354  -26.0605    7.3877 H         1 UNK         0.0734 
    144 H144      -45.1967  -24.2721    9.7283 H         1 UNK         0.0832 
    145 H145      -44.1032  -25.3852    8.9068 H         1 UNK         0.0832 
    146 H146      -44.8247  -24.0502    8.0303 H         1 UNK         0.0832 
    147 H147      -46.4496  -27.7705    8.6791 H         1 UNK         0.3156 
    148 H148      -45.4412  -28.8456   11.2430 H         1 UNK         0.0589 
    149 H149      -47.1848  -29.4430   12.9348 H         1 UNK         0.0808 
    150 H150      -46.4843  -27.8646   13.2378 H         1 UNK         0.0808 
    151 H151      -48.0808  -27.9799   12.5172 H         1 UNK         0.0808 
    152 H152      -48.1895  -29.0003   10.0327 H         1 UNK         0.3098 
    153 H153      -47.0974  -31.7325    8.0242 H         1 UNK         0.0720 
    154 H154      -48.0579  -32.8265   10.0738 H         1 UNK         0.0791 
    155 H155      -49.1956  -32.7866    8.7370 H         1 UNK         0.0791 
    156 H156      -49.3683  -31.6536   10.0742 H         1 UNK         0.0791 
    157 H157      -49.5547  -30.5162    7.7916 H         1 UNK         0.3028 
@<TRIPOS>BOND
     1    1    2 1    
     2    1   82 1    
     3    1   83 1    
     4    1   84 1    
     5    2    3 2    
     6    2    4 am   BACKBONE|DICT|INTERRES
     7    4    5 1    
     8    4   85 1    
     9    5    6 1    
    10    5   80 1    
    11    5   86 1    
    12    6    7 1    
    13    6   87 1    
    14    6   88 1    
    15    7    8 1    
    16    8    9 1    
    17    8   89 1    
    18    8   90 1    
    19    9   10 ar   
    20    9   14 ar   
    21   10   11 ar   
    22   10   91 1    
    23   11   12 ar   
    24   11   58 1    
    25   12   13 ar   
    26   12   92 1    
    27   13   14 ar   
    28   13   15 1    
    29   14   93 1    
    30   15   16 1    
    31   15   94 1    
    32   15   95 1    
    33   16   17 1    
    34   17   18 1    
    35   17   96 1    
    36   17   97 1    
    37   18   19 1    
    38   18   22 1    
    39   18   98 1    
    40   19   20 am   BACKBONE|DICT|INTERRES
    41   19   21 2    
    42   20   99 1    
    43   20  100 1    
    44   22   23 am   BACKBONE|DICT|INTERRES
    45   22  101 1    
    46   23   24 2    
    47   23   25 1    
    48   25   26 1    
    49   25   27 1    
    50   25  102 1    
    51   26  103 1    
    52   26  104 1    
    53   26  105 1    
    54   27   28 am   BACKBONE|DICT|INTERRES
    55   27  106 1    
    56   28   29 2    
    57   28   30 1    
    58   30   31 1    
    59   30   32 1    
    60   30  107 1    
    61   31  108 1    
    62   31  109 1    
    63   31  110 1    
    64   32   33 am   BACKBONE|DICT|INTERRES
    65   32  111 1    
    66   33   34 2    
    67   33   35 1    
    68   35   36 1    
    69   35   37 1    
    70   35  112 1    
    71   36  113 1    
    72   36  114 1    
    73   36  115 1    
    74   37   38 am   BACKBONE|DICT|INTERRES
    75   37  116 1    
    76   38   39 2    
    77   38   40 1    
    78   40   41 1    
    79   40   42 1    
    80   40  117 1    
    81   41  118 1    
    82   41  119 1    
    83   41  120 1    
    84   42   43 am   BACKBONE|DICT|INTERRES
    85   42  121 1    
    86   43   44 2    
    87   43   45 1    
    88   45   46 1    
    89   45   47 1    
    90   45  122 1    
    91   46  123 1    
    92   46  124 1    
    93   46  125 1    
    94   47   48 am   BACKBONE|DICT|INTERRES
    95   47  126 1    
    96   48   49 2    
    97   48   50 1    
    98   50   51 1    
    99   50   52 1    
   100   50  127 1    
   101   51  128 1    
   102   51  129 1    
   103   51  130 1    
   104   52   53 am   BACKBONE|DICT|INTERRES
   105   52  131 1    
   106   53   54 2    
   107   53   55 1    
   108   55   56 1    
   109   55   59 1    
   110   55  132 1    
   111   56   57 1    
   112   56  133 1    
   113   56  134 1    
   114   57   58 1    
   115   58  135 1    
   116   58  136 1    
   117   59   60 am   BACKBONE|DICT|INTERRES
   118   59  137 1    
   119   60   61 2    
   120   60   62 1    
   121   62   63 1    
   122   62   64 1    
   123   62  138 1    
   124   63  139 1    
   125   63  140 1    
   126   63  141 1    
   127   64   65 am   BACKBONE|DICT|INTERRES
   128   64  142 1    
   129   65   66 2    
   130   65   67 1    
   131   67   68 1    
   132   67   69 1    
   133   67  143 1    
   134   68  144 1    
   135   68  145 1    
   136   68  146 1    
   137   69   70 am   BACKBONE|DICT|INTERRES
   138   69  147 1    
   139   70   71 2    
   140   70   72 1    
   141   72   73 1    
   142   72   74 1    
   143   72  148 1    
   144   73  149 1    
   145   73  150 1    
   146   73  151 1    
   147   74   75 am   BACKBONE|DICT|INTERRES
   148   74  152 1    
   149   75   76 2    
   150   75   77 1    
   151   77   78 1    
   152   77   79 1    
   153   77  153 1    
   154   78  154 1    
   155   78  155 1    
   156   78  156 1    
   157   79   80 am   BACKBONE|DICT|INTERRES
   158   79  157 1    
   159   80   81 2    
@<TRIPOS>SUBSTRUCTURE
     1 UNK         1 GROUP             0       ****    0 ROOT    
