@<TRIPOS>MOLECULE
3R207
157   159    1
SMALL
USER_CHARGES


@<TRIPOS>ATOM
      1 CA        -48.9061  -30.0992    1.8760 C.3       0 UNK        -0.1975 
      2 C         -48.5343  -29.7365    3.3057 C.2       0 UNK         0.4852 
      3 O         -47.9050  -30.5390    3.9962 O.2       0 UNK        -0.5216 
      4 N         -48.8992  -28.5251    3.7506 N.am      1 UNK        -0.4461 
      5 CA        -48.6892  -27.9478    5.0902 C.3       1 UNK         0.0864 
      6 C6        -49.3317  -28.7917    6.2308 C.3       14 UNK        -0.0898 
      7 S7        -50.3046  -27.7753    7.3902 S.3       14 UNK        -0.2598 
      8 C8        -51.9516  -27.9254    6.6324 C.3       14 UNK         0.0286 
      9 C9        -53.0017  -27.1278    7.3903 C.ar      14 UNK        -0.0844 
     10 C10       -53.2940  -25.8115    7.0190 C.ar      14 UNK        -0.0881 
     11 C11       -54.2932  -25.0892    7.6813 C.ar      14 UNK        -0.0643 
     12 C12       -54.9981  -25.6973    8.7259 C.ar      14 UNK        -0.0930 
     13 C13       -54.7221  -27.0173    9.0992 C.ar      14 UNK        -0.0827 
     14 C14       -53.7181  -27.7245    8.4316 C.ar      14 UNK        -0.1249 
     15 C15       -55.5499  -27.6930   10.1842 C.3       14 UNK         0.0141 
     16 S16       -54.8944  -27.3695   11.8484 S.3       14 UNK        -0.2313 
     17 C17       -53.6264  -28.6709   12.0312 C.3       14 UNK        -0.0915 
     18 CA        -54.0221  -29.7723   13.0520 C.3       13 UNK         0.0968 
     19 C         -52.9588  -30.9089   13.1116 C.2       13 UNK         0.5732 
     20 N         -52.4405  -31.2930   14.2737 N.am      13 UNK        -0.7310 
     21 O         -52.6057  -31.4710   12.0777 O.2       13 UNK        -0.5035 
     22 N         -54.3557  -29.2162   14.3744 N.am      13 UNK        -0.4233 
     23 C         -55.2929  -29.7250   15.1851 C.2       13 UNK         0.4989 
     24 O         -56.0170  -30.6730   14.8740 O.2       13 UNK        -0.4996 
     25 CA        -55.4579  -29.0688   16.5721 C.3       12 UNK         0.0216 
     26 CB        -56.2055  -29.9742   17.5745 C.3       12 UNK        -0.1964 
     27 N         -54.2059  -28.5833   17.1657 N.am      12 UNK        -0.4276 
     28 C         -53.0942  -29.2901   17.4298 C.2       12 UNK         0.5020 
     29 O         -52.9668  -30.4831   17.1484 O.2       12 UNK        -0.5489 
     30 CA        -51.9204  -28.5393   18.0922 C.3       11 UNK         0.0294 
     31 CB        -50.5599  -29.0424   17.5745 C.3       11 UNK        -0.2019 
     32 N         -52.0130  -27.1012   17.8397 N.am      11 UNK        -0.4493 
     33 C         -52.2905  -26.1528   18.7452 C.2       11 UNK         0.4932 
     34 O         -52.4080  -26.3714   19.9508 O.2       11 UNK        -0.5029 
     35 CA        -52.5040  -24.7168   18.2189 C.3       10 UNK         0.0280 
     36 CB        -51.2304  -23.8807   18.4184 C.3       10 UNK        -0.1976 
     37 N         -52.9017  -24.6583   16.8071 N.am      10 UNK        -0.4242 
     38 C         -54.0373  -25.1775   16.3103 C.2       10 UNK         0.5072 
     39 O         -54.9251  -25.6611   17.0128 O.2       10 UNK        -0.5224 
     40 CA        -54.1711  -25.2696   14.7776 C.3       9 UNK         0.0343 
     41 CB        -54.9913  -24.0912   14.2339 C.3       9 UNK        -0.2003 
     42 N         -52.8811  -25.3355   14.0818 N.am      9 UNK        -0.4272 
     43 C         -51.9443  -26.2755   14.2911 C.2       9 UNK         0.4988 
     44 O         -52.1612  -27.2885   14.9557 O.2       9 UNK        -0.5108 
     45 CA        -50.5191  -26.0406   13.7480 C.3       8 UNK         0.0248 
     46 CB        -50.1339  -27.1151   12.7190 C.3       8 UNK        -0.2001 
     47 N         -50.3025  -24.7072   13.1783 N.am      8 UNK        -0.4140 
     48 C         -50.3782  -23.5537   13.8649 C.2       8 UNK         0.5028 
     49 O         -50.5389  -23.5036   15.0855 O.2       8 UNK        -0.5428 
     50 CA        -50.3673  -22.2390   13.0594 C.3       7 UNK         0.0264 
     51 CB        -49.0000  -21.5480   13.1645 C.3       7 UNK        -0.1988 
     52 N         -50.7305  -22.4158   11.6478 N.am      7 UNK        -0.4454 
     53 C         -51.9289  -22.8495   11.2200 C.2       7 UNK         0.5027 
     54 O         -52.8809  -23.0342   11.9784 O.2       7 UNK        -0.5083 
     55 CA        -52.0896  -23.1978    9.7226 C.3       6 UNK         0.0844 
     56 C56       -53.0301  -22.1907    9.0182 C.3       14 UNK        -0.0967 
     57 S57       -53.2400  -22.5316    7.2364 S.3       14 UNK        -0.2604 
     58 C58       -54.6570  -23.6783    7.2286 C.3       14 UNK         0.0134 
     59 N         -50.8189  -23.3775    9.0086 N.am      6 UNK        -0.4116 
     60 C         -49.9214  -24.3343    9.2737 C.2       5 UNK         0.5034 
     61 O         -50.0343  -25.1202   10.2163 O.2       5 UNK        -0.5045 
     62 CA        -48.6800  -24.4258    8.3667 C.3       5 UNK         0.0224 
     63 CB        -48.4367  -23.1853    7.4766 C.3       5 UNK        -0.1978 
     64 N         -47.4912  -24.7600    9.1567 N.am      5 UNK        -0.4737 
     65 C         -46.9339  -24.0306   10.1353 C.2       4 UNK         0.5027 
     66 O         -47.2934  -22.8891   10.4243 O.2       4 UNK        -0.5211 
     67 CA        -45.8093  -24.6913   10.9603 C.3       4 UNK         0.0297 
     68 CB        -46.2498  -24.8613   12.4251 C.3       4 UNK        -0.1993 
     69 N         -45.3921  -25.9985   10.4389 N.am      4 UNK        -0.4486 
     70 C         -44.6254  -26.1816    9.3563 C.2       3 UNK         0.4961 
     71 O         -44.1157  -25.2575    8.7203 O.2       3 UNK        -0.5105 
     72 CA        -44.4256  -27.6239    8.8667 C.3       3 UNK         0.0299 
     73 CB        -45.2460  -28.6877    9.6319 C.3       3 UNK        -0.1972 
     74 N         -44.7698  -27.6474    7.4499 N.am      3 UNK        -0.4305 
     75 C         -44.3247  -28.5094    6.5342 C.2       2 UNK         0.5006 
     76 O         -43.5733  -29.4533    6.7874 O.2       2 UNK        -0.5106 
     77 CA        -44.8218  -28.2702    5.0951 C.3       2 UNK         0.0296 
     78 CB        -44.1366  -29.1928    4.0694 C.3       2 UNK        -0.2002 
     79 N         -46.2725  -28.4341    4.9762 N.am      2 UNK        -0.4032 
     80 C         -47.2172  -27.5799    5.3920 C.2       1 UNK         0.5000 
     81 O         -46.9632  -26.5226    5.9737 O.2       1 UNK        -0.5238 
     82 H82       -49.5283  -30.9937    1.8669 H         1 UNK         0.0889 
     83 H83       -48.0070  -30.3035    1.2953 H         1 UNK         0.0889 
     84 H84       -49.4557  -29.2989    1.3810 H         1 UNK         0.0889 
     85 H85       -49.3785  -27.9099    3.1069 H         1 UNK         0.3028 
     86 H86       -49.2141  -26.9924    5.0357 H         1 UNK         0.0864 
     87 H87       -48.5815  -29.3464    6.7981 H         1 UNK         0.0720 
     88 H88       -49.9931  -29.5578    5.8232 H         1 UNK         0.0720 
     89 H89       -51.9038  -27.5895    5.5953 H         1 UNK         0.0814 
     90 H90       -52.2402  -28.9773    6.5997 H         1 UNK         0.0814 
     91 H91       -52.7541  -25.3506    6.2031 H         1 UNK         0.1469 
     92 H92       -55.7819  -25.1531    9.2349 H         1 UNK         0.1381 
     93 H93       -53.5065  -28.7485    8.7069 H         1 UNK         0.1206 
     94 H94       -55.6129  -28.7685   10.0112 H         1 UNK         0.0813 
     95 H95       -56.5756  -27.3240   10.1401 H         1 UNK         0.0813 
     96 H96       -53.4254  -29.1107   11.0539 H         1 UNK         0.0638 
     97 H97       -52.6977  -28.1962   12.3357 H         1 UNK         0.0638 
     98 H98       -54.9171  -30.2485   12.6479 H         1 UNK         0.0568 
     99 H99       -52.7342  -30.8757   15.1498 H         1 UNK         0.3450 
    100 H100      -51.7603  -32.0354   14.2811 H         1 UNK         0.3450 
    101 H101      -53.7454  -28.4770   14.7069 H         1 UNK         0.2987 
    102 H102      -56.0749  -28.1843   16.4072 H         1 UNK         0.0766 
    103 H103      -56.3401  -29.4763   18.5348 H         1 UNK         0.0798 
    104 H104      -57.1987  -30.2345   17.2062 H         1 UNK         0.0798 
    105 H105      -55.6689  -30.9069   17.7524 H         1 UNK         0.0798 
    106 H106      -54.2074  -27.5968   17.4018 H         1 UNK         0.3198 
    107 H107      -51.9774  -28.7435   19.1632 H         1 UNK         0.0843 
    108 H108      -50.4177  -30.0991   17.8044 H         1 UNK         0.0831 
    109 H109      -49.7348  -28.4991   18.0350 H         1 UNK         0.0831 
    110 H110      -50.4748  -28.9293   16.4928 H         1 UNK         0.0831 
    111 H111      -51.9664  -26.8461   16.8579 H         1 UNK         0.3133 
    112 H112      -53.3056  -24.2670   18.8083 H         1 UNK         0.0566 
    113 H113      -50.3938  -24.2772   17.8412 H         1 UNK         0.0814 
    114 H114      -50.9286  -23.8703   19.4667 H         1 UNK         0.0814 
    115 H115      -51.3832  -22.8447   18.1152 H         1 UNK         0.0814 
    116 H116      -52.2160  -24.2768   16.1624 H         1 UNK         0.3091 
    117 H117      -54.7125  -26.1913   14.5594 H         1 UNK         0.0702 
    118 H118      -55.1780  -24.2022   13.1653 H         1 UNK         0.0785 
    119 H119      -54.4814  -23.1394   14.3878 H         1 UNK         0.0785 
    120 H120      -55.9624  -24.0285   14.7270 H         1 UNK         0.0785 
    121 H121      -52.6631  -24.5530   13.4754 H         1 UNK         0.2998 
    122 H122      -49.8447  -26.1410   14.6006 H         1 UNK         0.0697 
    123 H123      -50.7545  -27.0578   11.8245 H         1 UNK         0.0825 
    124 H124      -50.2491  -28.1174   13.1344 H         1 UNK         0.0825 
    125 H125      -49.0950  -27.0132   12.4067 H         1 UNK         0.0825 
    126 H126      -50.1861  -24.6717   12.1693 H         1 UNK         0.3029 
    127 H127      -51.1140  -21.5818   13.5105 H         1 UNK         0.0897 
    128 H128      -48.9900  -20.5975   12.6308 H         1 UNK         0.0792 
    129 H129      -48.7507  -21.3375   14.2055 H         1 UNK         0.0792 
    130 H130      -48.2018  -22.1695   12.7612 H         1 UNK         0.0792 
    131 H131      -49.9864  -22.3077   10.9717 H         1 UNK         0.3086 
    132 H132      -52.5841  -24.1709    9.7056 H         1 UNK         0.0583 
    133 H133      -54.0111  -22.1831    9.4978 H         1 UNK         0.1020 
    134 H134      -52.6407  -21.1755    9.1174 H         1 UNK         0.1020 
    135 H135      -55.4603  -23.2626    7.8388 H         1 UNK         0.0694 
    136 H136      -55.0477  -23.7353    6.2118 H         1 UNK         0.0694 
    137 H137      -50.6642  -22.7672    8.2198 H         1 UNK         0.2989 
    138 H138      -48.8511  -25.2733    7.7030 H         1 UNK         0.1055 
    139 H139      -47.5212  -23.2999    6.8957 H         1 UNK         0.0806 
    140 H140      -48.3444  -22.2682    8.0595 H         1 UNK         0.0806 
    141 H141      -49.2470  -23.0459    6.7601 H         1 UNK         0.0806 
    142 H142      -47.1409  -25.6971    9.0264 H         1 UNK         0.3061 
    143 H143      -44.9504  -24.0170   10.9375 H         1 UNK         0.0734 
    144 H144      -46.4841  -23.8968   12.8765 H         1 UNK         0.0832 
    145 H145      -47.1413  -25.4835   12.5104 H         1 UNK         0.0832 
    146 H146      -45.4627  -25.3130   13.0290 H         1 UNK         0.0832 
    147 H147      -45.7697  -26.8126   10.9027 H         1 UNK         0.3156 
    148 H148      -43.3635  -27.8514    8.9782 H         1 UNK         0.0589 
    149 H149      -46.3199  -28.5145    9.5482 H         1 UNK         0.0808 
    150 H150      -45.0477  -29.6872    9.2442 H         1 UNK         0.0808 
    151 H151      -44.9851  -28.7085   10.6907 H         1 UNK         0.0808 
    152 H152      -45.3866  -26.9046    7.1300 H         1 UNK         0.3098 
    153 H153      -44.5699  -27.2402    4.8340 H         1 UNK         0.0720 
    154 H154      -44.4494  -28.9559    3.0523 H         1 UNK         0.0791 
    155 H155      -43.0519  -29.0831    4.1071 H         1 UNK         0.0791 
    156 H156      -44.3666  -30.2430    4.2543 H         1 UNK         0.0791 
    157 H157      -46.6028  -29.3030    4.5634 H         1 UNK         0.3028 
@<TRIPOS>BOND
     1    1    2 1    
     2    1   82 1    
     3    1   83 1    
     4    1   84 1    
     5    2    3 2    
     6    2    4 am   BACKBONE|DICT|INTERRES
     7    4    5 1    
     8    4   85 1    
     9    5    6 1    
    10    5   80 1    
    11    5   86 1    
    12    6    7 1    
    13    6   87 1    
    14    6   88 1    
    15    7    8 1    
    16    8    9 1    
    17    8   89 1    
    18    8   90 1    
    19    9   10 ar   
    20    9   14 ar   
    21   10   11 ar   
    22   10   91 1    
    23   11   12 ar   
    24   11   58 1    
    25   12   13 ar   
    26   12   92 1    
    27   13   14 ar   
    28   13   15 1    
    29   14   93 1    
    30   15   16 1    
    31   15   94 1    
    32   15   95 1    
    33   16   17 1    
    34   17   18 1    
    35   17   96 1    
    36   17   97 1    
    37   18   19 1    
    38   18   22 1    
    39   18   98 1    
    40   19   20 am   BACKBONE|DICT|INTERRES
    41   19   21 2    
    42   20   99 1    
    43   20  100 1    
    44   22   23 am   BACKBONE|DICT|INTERRES
    45   22  101 1    
    46   23   24 2    
    47   23   25 1    
    48   25   26 1    
    49   25   27 1    
    50   25  102 1    
    51   26  103 1    
    52   26  104 1    
    53   26  105 1    
    54   27   28 am   BACKBONE|DICT|INTERRES
    55   27  106 1    
    56   28   29 2    
    57   28   30 1    
    58   30   31 1    
    59   30   32 1    
    60   30  107 1    
    61   31  108 1    
    62   31  109 1    
    63   31  110 1    
    64   32   33 am   BACKBONE|DICT|INTERRES
    65   32  111 1    
    66   33   34 2    
    67   33   35 1    
    68   35   36 1    
    69   35   37 1    
    70   35  112 1    
    71   36  113 1    
    72   36  114 1    
    73   36  115 1    
    74   37   38 am   BACKBONE|DICT|INTERRES
    75   37  116 1    
    76   38   39 2    
    77   38   40 1    
    78   40   41 1    
    79   40   42 1    
    80   40  117 1    
    81   41  118 1    
    82   41  119 1    
    83   41  120 1    
    84   42   43 am   BACKBONE|DICT|INTERRES
    85   42  121 1    
    86   43   44 2    
    87   43   45 1    
    88   45   46 1    
    89   45   47 1    
    90   45  122 1    
    91   46  123 1    
    92   46  124 1    
    93   46  125 1    
    94   47   48 am   BACKBONE|DICT|INTERRES
    95   47  126 1    
    96   48   49 2    
    97   48   50 1    
    98   50   51 1    
    99   50   52 1    
   100   50  127 1    
   101   51  128 1    
   102   51  129 1    
   103   51  130 1    
   104   52   53 am   BACKBONE|DICT|INTERRES
   105   52  131 1    
   106   53   54 2    
   107   53   55 1    
   108   55   56 1    
   109   55   59 1    
   110   55  132 1    
   111   56   57 1    
   112   56  133 1    
   113   56  134 1    
   114   57   58 1    
   115   58  135 1    
   116   58  136 1    
   117   59   60 am   BACKBONE|DICT|INTERRES
   118   59  137 1    
   119   60   61 2    
   120   60   62 1    
   121   62   63 1    
   122   62   64 1    
   123   62  138 1    
   124   63  139 1    
   125   63  140 1    
   126   63  141 1    
   127   64   65 am   BACKBONE|DICT|INTERRES
   128   64  142 1    
   129   65   66 2    
   130   65   67 1    
   131   67   68 1    
   132   67   69 1    
   133   67  143 1    
   134   68  144 1    
   135   68  145 1    
   136   68  146 1    
   137   69   70 am   BACKBONE|DICT|INTERRES
   138   69  147 1    
   139   70   71 2    
   140   70   72 1    
   141   72   73 1    
   142   72   74 1    
   143   72  148 1    
   144   73  149 1    
   145   73  150 1    
   146   73  151 1    
   147   74   75 am   BACKBONE|DICT|INTERRES
   148   74  152 1    
   149   75   76 2    
   150   75   77 1    
   151   77   78 1    
   152   77   79 1    
   153   77  153 1    
   154   78  154 1    
   155   78  155 1    
   156   78  156 1    
   157   79   80 am   BACKBONE|DICT|INTERRES
   158   79  157 1    
   159   80   81 2    
@<TRIPOS>SUBSTRUCTURE
     1 UNK         1 GROUP             0       ****    0 ROOT    
