@<TRIPOS>MOLECULE
3R207
157   159    1
SMALL
USER_CHARGES


@<TRIPOS>ATOM
      1 CA        -48.9299  -30.7072    1.5233 C.3       0 UNK        -0.1975 
      2 C         -49.4824  -30.2134    2.8523 C.2       0 UNK         0.4852 
      3 O         -49.3032  -30.8811    3.8717 O.2       0 UNK        -0.5216 
      4 N         -50.1538  -29.0527    2.8441 N.am      1 UNK        -0.4461 
      5 CA        -50.7297  -28.3731    4.0095 C.3       1 UNK         0.0864 
      6 C6        -51.8653  -29.1970    4.6897 C.3       14 UNK        -0.0898 
      7 S7        -53.1099  -28.1346    5.4939 S.3       14 UNK        -0.2598 
      8 C8        -52.8698  -28.5369    7.2525 C.3       14 UNK         0.0286 
      9 C9        -53.7141  -27.6443    8.1487 C.ar      14 UNK        -0.0844 
     10 C10       -53.4459  -26.2745    8.2108 C.ar      14 UNK        -0.0881 
     11 C11       -54.1964  -25.4413    9.0431 C.ar      14 UNK        -0.0643 
     12 C12       -55.2153  -25.9888    9.8271 C.ar      14 UNK        -0.0930 
     13 C13       -55.4840  -27.3602    9.7884 C.ar      14 UNK        -0.0827 
     14 C14       -54.7373  -28.1817    8.9372 C.ar      14 UNK        -0.1249 
     15 C15       -56.5733  -27.9416   10.6786 C.3       14 UNK         0.0141 
     16 S16       -55.9925  -28.0664   12.4001 S.3       14 UNK        -0.2313 
     17 C17       -56.1810  -29.8463   12.7885 C.3       14 UNK        -0.0915 
     18 CA        -55.1182  -30.7986   12.1534 C.3       13 UNK         0.0968 
     19 C         -55.5939  -31.4402   10.8073 C.2       13 UNK         0.5732 
     20 N         -54.7257  -31.7234    9.8473 N.am      13 UNK        -0.7310 
     21 O         -56.7800  -31.7082   10.6307 O.2       13 UNK        -0.5035 
     22 N         -53.7858  -30.1688   12.1812 N.am      13 UNK        -0.4233 
     23 C         -52.5950  -30.6852   11.8614 C.2       13 UNK         0.4989 
     24 O         -52.4068  -31.8494   11.5102 O.2       13 UNK        -0.4996 
     25 CA        -51.4134  -29.7049   11.9197 C.3       12 UNK         0.0216 
     26 CB        -51.5478  -28.6508   10.8064 C.3       12 UNK        -0.1964 
     27 N         -51.2878  -29.0340   13.2159 N.am      12 UNK        -0.4276 
     28 C         -51.0633  -29.6390   14.3923 C.2       12 UNK         0.5020 
     29 O         -50.9198  -30.8552   14.5220 O.2       12 UNK        -0.5489 
     30 CA        -50.9574  -28.7412   15.6390 C.3       11 UNK         0.0294 
     31 CB        -49.5007  -28.6638   16.1261 C.3       11 UNK        -0.2019 
     32 N         -51.4622  -27.3829   15.4184 N.am      11 UNK        -0.4493 
     33 C         -52.7600  -27.0525   15.3858 C.2       11 UNK         0.4932 
     34 O         -53.6686  -27.8657   15.5608 O.2       11 UNK        -0.5029 
     35 CA        -53.0895  -25.5762   15.0859 C.3       10 UNK         0.0280 
     36 CB        -54.5708  -25.2260   15.3425 C.3       10 UNK        -0.1976 
     37 N         -52.2017  -24.6226   15.7664 N.am      10 UNK        -0.4242 
     38 C         -52.0350  -24.4853   17.0915 C.2       10 UNK         0.5072 
     39 O         -52.5947  -25.1939   17.9312 O.2       10 UNK        -0.5224 
     40 CA        -51.1111  -23.3391   17.5547 C.3       9 UNK         0.0343 
     41 CB        -50.8639  -23.3458   19.0789 C.3       9 UNK        -0.2003 
     42 N         -49.8336  -23.2688   16.8367 N.am      9 UNK        -0.4272 
     43 C         -48.8885  -24.2143   16.7366 C.2       9 UNK         0.4988 
     44 O         -49.0007  -25.3443   17.2132 O.2       9 UNK        -0.5108 
     45 CA        -47.5881  -23.8144   16.0004 C.3       8 UNK         0.0248 
     46 CB        -46.6195  -25.0000   15.8365 C.3       8 UNK        -0.2001 
     47 N         -47.8353  -23.2145   14.6848 N.am      8 UNK        -0.4140 
     48 C         -48.3038  -21.9779   14.4642 C.2       8 UNK         0.5028 
     49 O         -48.5100  -21.1594   15.3617 O.2       8 UNK        -0.5428 
     50 CA        -48.6830  -21.6161   13.0178 C.3       7 UNK         0.0264 
     51 CB        -47.4681  -21.0705   12.2514 C.3       7 UNK        -0.1988 
     52 N         -49.2752  -22.7342   12.2770 N.am      7 UNK        -0.4454 
     53 C         -50.3947  -23.3862   12.6312 C.2       7 UNK         0.5027 
     54 O         -51.0741  -23.1010   13.6197 O.2       7 UNK        -0.5083 
     55 CA        -50.7848  -24.6045   11.7667 C.3       6 UNK         0.0844 
     56 C56       -51.4156  -24.1820   10.4192 C.3       14 UNK        -0.0967 
     57 S57       -53.0832  -23.4717   10.6405 S.3       14 UNK        -0.2604 
     58 C58       -53.9104  -23.9494    9.0939 C.3       14 UNK         0.0134 
     59 N         -49.6489  -25.5149   11.5998 N.am      6 UNK        -0.4116 
     60 C         -49.0363  -26.1531   12.6084 C.2       5 UNK         0.5034 
     61 O         -49.4590  -26.1582   13.7632 O.2       5 UNK        -0.5045 
     62 CA        -47.7111  -26.8669   12.2940 C.3       5 UNK         0.0224 
     63 CB        -47.9249  -28.3475   11.9499 C.3       5 UNK        -0.1978 
     64 N         -46.9725  -26.2045   11.2174 N.am      5 UNK        -0.4737 
     65 C         -46.3166  -25.0460   11.3712 C.2       4 UNK         0.5027 
     66 O         -46.2237  -24.4553   12.4465 O.2       4 UNK        -0.5211 
     67 CA        -45.7022  -24.4234   10.1058 C.3       4 UNK         0.0297 
     68 CB        -44.3313  -25.0494    9.8059 C.3       4 UNK        -0.1993 
     69 N         -46.5721  -24.5529    8.9325 N.am      4 UNK        -0.4486 
     70 C         -47.7649  -23.9534    8.8078 C.2       3 UNK         0.4961 
     71 O         -48.2327  -23.1880    9.6499 O.2       3 UNK        -0.5105 
     72 CA        -48.6013  -24.3004    7.5620 C.3       3 UNK         0.0299 
     73 CB        -48.2728  -23.3400    6.4091 C.3       3 UNK        -0.1972 
     74 N         -48.4491  -25.6861    7.1039 N.am      3 UNK        -0.4305 
     75 C         -48.7103  -26.7778    7.8340 C.2       2 UNK         0.5006 
     76 O         -49.1160  -26.7337    8.9967 O.2       2 UNK        -0.5106 
     77 CA        -48.4625  -28.1359    7.1503 C.3       2 UNK         0.0296 
     78 CB        -48.3925  -29.2947    8.1618 C.3       2 UNK        -0.2002 
     79 N         -49.4829  -28.4480    6.1485 N.am      2 UNK        -0.4032 
     80 C         -49.6008  -27.8763    4.9427 C.2       1 UNK         0.5000 
     81 O         -48.8412  -26.9916    4.5379 O.2       1 UNK        -0.5238 
     82 H82       -47.8461  -30.8043    1.5810 H         1 UNK         0.0889 
     83 H83       -49.1664  -30.0278    0.7045 H         1 UNK         0.0889 
     84 H84       -49.3476  -31.6847    1.2838 H         1 UNK         0.0889 
     85 H85       -50.2361  -28.5449    1.9739 H         1 UNK         0.3028 
     86 H86       -51.1834  -27.4690    3.5995 H         1 UNK         0.0864 
     87 H87       -51.4889  -29.9582    5.3745 H         1 UNK         0.0720 
     88 H88       -52.4083  -29.7559    3.9257 H         1 UNK         0.0720 
     89 H89       -51.8234  -28.4013    7.5229 H         1 UNK         0.0814 
     90 H90       -53.1053  -29.5895    7.4183 H         1 UNK         0.0814 
     91 H91       -52.6521  -25.8590    7.6050 H         1 UNK         0.1469 
     92 H92       -55.7882  -25.3475   10.4832 H         1 UNK         0.1381 
     93 H93       -54.9451  -29.2404    8.8953 H         1 UNK         0.1206 
     94 H94       -56.9016  -28.9116   10.3060 H         1 UNK         0.0813 
     95 H95       -57.4523  -27.2961   10.6494 H         1 UNK         0.0813 
     96 H96       -56.0938  -29.9201   13.8736 H         1 UNK         0.0638 
     97 H97       -57.2060  -30.1533   12.5748 H         1 UNK         0.0638 
     98 H98       -55.0399  -31.6590   12.8196 H         1 UNK         0.0568 
     99 H99       -55.0495  -32.1511    8.9949 H         1 UNK         0.3450 
    100 H100      -53.7365  -31.6526   10.0456 H         1 UNK         0.3450 
    101 H101      -53.8128  -29.1920   12.4343 H         1 UNK         0.2987 
    102 H102      -50.4974  -30.2741   11.7486 H         1 UNK         0.0766 
    103 H103      -52.4335  -28.0261   10.9312 H         1 UNK         0.0798 
    104 H104      -51.6239  -29.1317    9.8318 H         1 UNK         0.0798 
    105 H105      -50.6880  -27.9877   10.7656 H         1 UNK         0.0798 
    106 H106      -51.3668  -28.0282   13.2256 H         1 UNK         0.3198 
    107 H107      -51.5530  -29.2081   16.4266 H         1 UNK         0.0843 
    108 H108      -49.4219  -28.0835   17.0455 H         1 UNK         0.0831 
    109 H109      -48.8474  -28.2034   15.3845 H         1 UNK         0.0831 
    110 H110      -49.1047  -29.6581   16.3367 H         1 UNK         0.0831 
    111 H111      -50.7638  -26.6727   15.2147 H         1 UNK         0.3133 
    112 H112      -52.9182  -25.4426   14.0196 H         1 UNK         0.0566 
    113 H113      -54.7831  -24.1883   15.0856 H         1 UNK         0.0814 
    114 H114      -55.2298  -25.8488   14.7358 H         1 UNK         0.0814 
    115 H115      -54.8491  -25.3791   16.3856 H         1 UNK         0.0814 
    116 H116      -51.6883  -23.9965   15.1476 H         1 UNK         0.3091 
    117 H117      -51.6406  -22.4158   17.3152 H         1 UNK         0.0702 
    118 H118      -50.2498  -22.4991   19.3853 H         1 UNK         0.0785 
    119 H119      -50.3621  -24.2588   19.4019 H         1 UNK         0.0785 
    120 H120      -51.8032  -23.2783   19.6292 H         1 UNK         0.0785 
    121 H121      -49.6246  -22.3788   16.3916 H         1 UNK         0.2998 
    122 H122      -47.0896  -23.0686   16.6228 H         1 UNK         0.0697 
    123 H123      -45.7145  -24.7082   15.3033 H         1 UNK         0.0825 
    124 H124      -46.3129  -25.3903   16.8077 H         1 UNK         0.0825 
    125 H125      -47.0835  -25.8208   15.2906 H         1 UNK         0.0825 
    126 H126      -47.6508  -23.8030   13.8801 H         1 UNK         0.3029 
    127 H127      -49.4363  -20.8270   13.0672 H         1 UNK         0.0897 
    128 H128      -47.7457  -20.7440   11.2489 H         1 UNK         0.0792 
    129 H129      -47.0368  -20.2104   12.7653 H         1 UNK         0.0792 
    130 H130      -46.6821  -21.8191   12.1521 H         1 UNK         0.0792 
    131 H131      -48.8037  -23.0082   11.4168 H         1 UNK         0.3086 
    132 H132      -51.5384  -25.1716   12.3123 H         1 UNK         0.0583 
    133 H133      -50.7960  -23.4567    9.8916 H         1 UNK         0.1020 
    134 H134      -51.4827  -25.0527    9.7664 H         1 UNK         0.1020 
    135 H135      -54.8503  -23.4015    9.0138 H         1 UNK         0.0694 
    136 H136      -53.3006  -23.6366    8.2447 H         1 UNK         0.0694 
    137 H137      -49.2846  -25.6381   10.6609 H         1 UNK         0.2989 
    138 H138      -47.1015  -26.8279   13.1986 H         1 UNK         0.1055 
    139 H139      -46.9732  -28.8623   11.8190 H         1 UNK         0.0806 
    140 H140      -48.4984  -28.4750   11.0342 H         1 UNK         0.0806 
    141 H141      -48.4586  -28.8611   12.7499 H         1 UNK         0.0806 
    142 H142      -47.0556  -26.6011   10.2922 H         1 UNK         0.3061 
    143 H143      -45.5559  -23.3585   10.2996 H         1 UNK         0.0734 
    144 H144      -43.8478  -24.5604    8.9601 H         1 UNK         0.0832 
    145 H145      -43.6624  -24.9473   10.6618 H         1 UNK         0.0832 
    146 H146      -44.4100  -26.1136    9.5801 H         1 UNK         0.0832 
    147 H147      -46.2597  -25.1598    8.1887 H         1 UNK         0.3156 
    148 H148      -49.6516  -24.1637    7.8256 H         1 UNK         0.0589 
    149 H149      -47.2420  -23.4516    6.0704 H         1 UNK         0.0808 
    150 H150      -48.9274  -23.5083    5.5537 H         1 UNK         0.0808 
    151 H151      -48.4048  -22.3014    6.7166 H         1 UNK         0.0808 
    152 H152      -48.2010  -25.8277    6.1299 H         1 UNK         0.3098 
    153 H153      -47.4943  -28.0794    6.6481 H         1 UNK         0.0720 
    154 H154      -49.3266  -29.4135    8.7119 H         1 UNK         0.0791 
    155 H155      -47.5999  -29.1256    8.8913 H         1 UNK         0.0791 
    156 H156      -48.1732  -30.2408    7.6663 H         1 UNK         0.0791 
    157 H157      -50.1254  -29.1889    6.3826 H         1 UNK         0.3028 
@<TRIPOS>BOND
     1    1    2 1    
     2    1   82 1    
     3    1   83 1    
     4    1   84 1    
     5    2    3 2    
     6    2    4 am   BACKBONE|DICT|INTERRES
     7    4    5 1    
     8    4   85 1    
     9    5    6 1    
    10    5   80 1    
    11    5   86 1    
    12    6    7 1    
    13    6   87 1    
    14    6   88 1    
    15    7    8 1    
    16    8    9 1    
    17    8   89 1    
    18    8   90 1    
    19    9   10 ar   
    20    9   14 ar   
    21   10   11 ar   
    22   10   91 1    
    23   11   12 ar   
    24   11   58 1    
    25   12   13 ar   
    26   12   92 1    
    27   13   14 ar   
    28   13   15 1    
    29   14   93 1    
    30   15   16 1    
    31   15   94 1    
    32   15   95 1    
    33   16   17 1    
    34   17   18 1    
    35   17   96 1    
    36   17   97 1    
    37   18   19 1    
    38   18   22 1    
    39   18   98 1    
    40   19   20 am   BACKBONE|DICT|INTERRES
    41   19   21 2    
    42   20   99 1    
    43   20  100 1    
    44   22   23 am   BACKBONE|DICT|INTERRES
    45   22  101 1    
    46   23   24 2    
    47   23   25 1    
    48   25   26 1    
    49   25   27 1    
    50   25  102 1    
    51   26  103 1    
    52   26  104 1    
    53   26  105 1    
    54   27   28 am   BACKBONE|DICT|INTERRES
    55   27  106 1    
    56   28   29 2    
    57   28   30 1    
    58   30   31 1    
    59   30   32 1    
    60   30  107 1    
    61   31  108 1    
    62   31  109 1    
    63   31  110 1    
    64   32   33 am   BACKBONE|DICT|INTERRES
    65   32  111 1    
    66   33   34 2    
    67   33   35 1    
    68   35   36 1    
    69   35   37 1    
    70   35  112 1    
    71   36  113 1    
    72   36  114 1    
    73   36  115 1    
    74   37   38 am   BACKBONE|DICT|INTERRES
    75   37  116 1    
    76   38   39 2    
    77   38   40 1    
    78   40   41 1    
    79   40   42 1    
    80   40  117 1    
    81   41  118 1    
    82   41  119 1    
    83   41  120 1    
    84   42   43 am   BACKBONE|DICT|INTERRES
    85   42  121 1    
    86   43   44 2    
    87   43   45 1    
    88   45   46 1    
    89   45   47 1    
    90   45  122 1    
    91   46  123 1    
    92   46  124 1    
    93   46  125 1    
    94   47   48 am   BACKBONE|DICT|INTERRES
    95   47  126 1    
    96   48   49 2    
    97   48   50 1    
    98   50   51 1    
    99   50   52 1    
   100   50  127 1    
   101   51  128 1    
   102   51  129 1    
   103   51  130 1    
   104   52   53 am   BACKBONE|DICT|INTERRES
   105   52  131 1    
   106   53   54 2    
   107   53   55 1    
   108   55   56 1    
   109   55   59 1    
   110   55  132 1    
   111   56   57 1    
   112   56  133 1    
   113   56  134 1    
   114   57   58 1    
   115   58  135 1    
   116   58  136 1    
   117   59   60 am   BACKBONE|DICT|INTERRES
   118   59  137 1    
   119   60   61 2    
   120   60   62 1    
   121   62   63 1    
   122   62   64 1    
   123   62  138 1    
   124   63  139 1    
   125   63  140 1    
   126   63  141 1    
   127   64   65 am   BACKBONE|DICT|INTERRES
   128   64  142 1    
   129   65   66 2    
   130   65   67 1    
   131   67   68 1    
   132   67   69 1    
   133   67  143 1    
   134   68  144 1    
   135   68  145 1    
   136   68  146 1    
   137   69   70 am   BACKBONE|DICT|INTERRES
   138   69  147 1    
   139   70   71 2    
   140   70   72 1    
   141   72   73 1    
   142   72   74 1    
   143   72  148 1    
   144   73  149 1    
   145   73  150 1    
   146   73  151 1    
   147   74   75 am   BACKBONE|DICT|INTERRES
   148   74  152 1    
   149   75   76 2    
   150   75   77 1    
   151   77   78 1    
   152   77   79 1    
   153   77  153 1    
   154   78  154 1    
   155   78  155 1    
   156   78  156 1    
   157   79   80 am   BACKBONE|DICT|INTERRES
   158   79  157 1    
   159   80   81 2    
@<TRIPOS>SUBSTRUCTURE
     1 UNK         1 GROUP             0       ****    0 ROOT    
