@<TRIPOS>MOLECULE
3R207
157   159    1
SMALL
USER_CHARGES


@<TRIPOS>ATOM
      1 CA        -48.3570  -31.6883    2.1110 C.3       0 UNK        -0.1975 
      2 C         -48.9758  -30.3038    1.9885 C.2       0 UNK         0.4852 
      3 O         -48.6861  -29.5867    1.0303 O.2       0 UNK        -0.5216 
      4 N         -49.8240  -29.9215    2.9539 N.am      1 UNK        -0.4461 
      5 CA        -50.5197  -28.6270    3.0004 C.3       1 UNK         0.0864 
      6 C6        -51.7639  -28.6893    3.9364 C.3       14 UNK        -0.0898 
      7 S7        -51.4825  -28.3318    5.7100 S.3       14 UNK        -0.2598 
      8 C8        -50.9849  -29.9487    6.3649 C.3       14 UNK         0.0286 
      9 C9        -50.5641  -29.8255    7.8206 C.ar      14 UNK        -0.0844 
     10 C10       -49.2216  -29.6309    8.1571 C.ar      14 UNK        -0.0881 
     11 C11       -48.8269  -29.5466    9.4967 C.ar      14 UNK        -0.0643 
     12 C12       -49.7968  -29.6246   10.5043 C.ar      14 UNK        -0.0930 
     13 C13       -51.1470  -29.8019   10.1777 C.ar      14 UNK        -0.0827 
     14 C14       -51.5190  -29.9151    8.8347 C.ar      14 UNK        -0.1249 
     15 C15       -52.2096  -29.9083   11.2639 C.3       14 UNK         0.0141 
     16 S16       -53.4626  -28.5971   11.1050 S.3       14 UNK        -0.2313 
     17 C17       -54.7520  -29.2117   12.2355 C.3       14 UNK        -0.0915 
     18 CA        -55.9347  -28.2209   12.3742 C.3       13 UNK         0.0968 
     19 C         -57.0710  -28.8316   13.2385 C.2       13 UNK         0.5732 
     20 N         -57.1168  -28.5791   14.5402 N.am      13 UNK        -0.7310 
     21 O         -57.9276  -29.5410   12.7160 O.2       13 UNK        -0.5035 
     22 N         -55.4930  -26.8918   12.8225 N.am      13 UNK        -0.4233 
     23 C         -56.1978  -25.7669   12.6516 C.2       13 UNK         0.4989 
     24 O         -57.3070  -25.7226   12.1149 O.2       13 UNK        -0.4996 
     25 CA        -55.5233  -24.4760   13.1463 C.3       12 UNK         0.0216 
     26 CB        -56.3973  -23.2133   12.9797 C.3       12 UNK        -0.1964 
     27 N         -55.0254  -24.6173   14.5179 N.am      12 UNK        -0.4276 
     28 C         -55.7473  -24.7773   15.6363 C.2       12 UNK         0.5020 
     29 O         -56.9794  -24.7724   15.6712 O.2       12 UNK        -0.5489 
     30 CA        -54.9450  -24.9706   16.9373 C.3       11 UNK         0.0294 
     31 CB        -55.8240  -25.4054   18.1300 C.3       11 UNK        -0.2019 
     32 N         -53.7962  -25.8720   16.7877 N.am      11 UNK        -0.4493 
     33 C         -53.8155  -27.1689   16.4402 C.2       11 UNK         0.4932 
     34 O         -54.8433  -27.7657   16.1183 O.2       11 UNK        -0.5029 
     35 CA        -52.4789  -27.9436   16.4460 C.3       10 UNK         0.0280 
     36 CB        -52.3382  -28.8360   15.2025 C.3       10 UNK        -0.1976 
     37 N         -51.3013  -27.0793   16.5412 N.am      10 UNK        -0.4242 
     38 C         -50.7950  -26.5742   17.6742 C.2       10 UNK         0.5072 
     39 O         -51.2219  -26.8430   18.7973 O.2       10 UNK        -0.5224 
     40 CA        -49.6541  -25.5518   17.5251 C.3       9 UNK         0.0343 
     41 CB        -48.2919  -26.2628   17.5053 C.3       9 UNK        -0.2003 
     42 N         -49.7860  -24.7100   16.3307 N.am      9 UNK        -0.4272 
     43 C         -50.8049  -23.8711   16.0881 C.2       9 UNK         0.4988 
     44 O         -51.7300  -23.6731   16.8759 O.2       9 UNK        -0.5108 
     45 CA        -50.8329  -23.1890   14.7097 C.3       8 UNK         0.0248 
     46 CB        -49.8451  -22.0129   14.6526 C.3       8 UNK        -0.2001 
     47 N         -50.5602  -24.1305   13.6203 N.am      8 UNK        -0.4140 
     48 C         -51.3502  -25.1662   13.3000 C.2       8 UNK         0.5028 
     49 O         -52.4273  -25.4029   13.8462 O.2       8 UNK        -0.5428 
     50 CA        -50.8297  -26.1314   12.2288 C.3       7 UNK         0.0264 
     51 CB        -51.1930  -25.6507   10.8160 C.3       7 UNK        -0.1988 
     52 N         -49.3863  -26.3329   12.3372 N.am      7 UNK        -0.4454 
     53 C         -48.8066  -27.0631   13.3010 C.2       7 UNK         0.5027 
     54 O         -49.4359  -27.6408   14.1872 O.2       7 UNK        -0.5083 
     55 CA        -47.2655  -27.1401   13.2989 C.3       6 UNK         0.0844 
     56 C56       -46.7566  -28.2492   12.3449 C.3       14 UNK        -0.0967 
     57 S57       -46.8983  -27.8266   10.5663 S.3       14 UNK        -0.2604 
     58 C58       -47.3450  -29.4339    9.8378 C.3       14 UNK         0.0134 
     59 N         -46.6288  -25.8526   13.0187 N.am      6 UNK        -0.4116 
     60 C         -46.7979  -24.7191   13.7112 C.2       5 UNK         0.5034 
     61 O         -47.4340  -24.6452   14.7608 O.2       5 UNK        -0.5045 
     62 CA        -46.2081  -23.4345   13.0987 C.3       5 UNK         0.0224 
     63 CB        -44.8508  -23.1098   13.7413 C.3       5 UNK        -0.1978 
     64 N         -46.0590  -23.4733   11.6366 N.am      5 UNK        -0.4737 
     65 C         -47.0491  -23.7011   10.7609 C.2       4 UNK         0.5027 
     66 O         -48.2153  -23.9004   11.1096 O.2       4 UNK        -0.5211 
     67 CA        -46.6585  -23.7498    9.2700 C.3       4 UNK         0.0297 
     68 CB        -45.2504  -24.3344    9.0365 C.3       4 UNK        -0.1993 
     69 N         -47.6145  -24.5461    8.5032 N.am      4 UNK        -0.4486 
     70 C         -48.7687  -24.1085    7.9917 C.2       3 UNK         0.4961 
     71 O         -49.1412  -22.9342    8.0369 O.2       3 UNK        -0.5105 
     72 CA        -49.6243  -25.1686    7.2725 C.3       3 UNK         0.0299 
     73 CB        -51.0547  -24.6730    6.9888 C.3       3 UNK        -0.1972 
     74 N         -49.0077  -25.5980    6.0148 N.am      3 UNK        -0.4305 
     75 C         -47.9420  -26.4019    5.9027 C.2       2 UNK         0.5006 
     76 O         -47.3536  -26.8986    6.8653 O.2       2 UNK        -0.5106 
     77 CA        -47.4922  -26.7385    4.4713 C.3       2 UNK         0.0296 
     78 CB        -46.0608  -27.3053    4.4210 C.3       2 UNK        -0.2002 
     79 N         -48.4112  -27.7198    3.9020 N.am      2 UNK        -0.4032 
     80 C         -49.5829  -27.4351    3.3159 C.2       1 UNK         0.5000 
     81 O         -49.9534  -26.2865    3.0620 O.2       1 UNK        -0.5238 
     82 H82       -48.6954  -32.2101    3.0059 H         1 UNK         0.0889 
     83 H83       -47.2709  -31.6113    2.1536 H         1 UNK         0.0889 
     84 H84       -48.6216  -32.2947    1.2451 H         1 UNK         0.0889 
     85 H85       -50.0417  -30.5655    3.6999 H         1 UNK         0.3028 
     86 H86       -50.8962  -28.4455    1.9909 H         1 UNK         0.0864 
     87 H87       -52.2769  -29.6474    3.8375 H         1 UNK         0.0720 
     88 H88       -52.4875  -27.9478    3.5934 H         1 UNK         0.0720 
     89 H89       -50.1609  -30.3497    5.7748 H         1 UNK         0.0814 
     90 H90       -51.8124  -30.6534    6.2680 H         1 UNK         0.0814 
     91 H91       -48.4792  -29.5601    7.3738 H         1 UNK         0.1469 
     92 H92       -49.4982  -29.5588   11.5408 H         1 UNK         0.1381 
     93 H93       -52.5595  -30.0621    8.5785 H         1 UNK         0.1206 
     94 H94       -52.6918  -30.8839   11.1898 H         1 UNK         0.0813 
     95 H95       -51.7610  -29.8540   12.2570 H         1 UNK         0.0813 
     96 H96       -55.1035  -30.1711   11.8512 H         1 UNK         0.0638 
     97 H97       -54.3069  -29.4139   13.2085 H         1 UNK         0.0638 
     98 H98       -56.3545  -28.0940   11.3741 H         1 UNK         0.0568 
     99 H99       -56.3655  -28.0737   15.0009 H         1 UNK         0.3450 
    100 H100      -57.8622  -28.9730   15.0905 H         1 UNK         0.3450 
    101 H101      -54.5944  -26.8443   13.2802 H         1 UNK         0.2987 
    102 H102      -54.6408  -24.3395   12.5192 H         1 UNK         0.0766 
    103 H103      -57.3386  -23.2913   13.5243 H         1 UNK         0.0798 
    104 H104      -55.8778  -22.3223   13.3321 H         1 UNK         0.0798 
    105 H105      -56.6456  -23.0500   11.9304 H         1 UNK         0.0798 
    106 H106      -54.0153  -24.7399   14.5807 H         1 UNK         0.3198 
    107 H107      -54.5296  -23.9910   17.1789 H         1 UNK         0.0843 
    108 H108      -56.3182  -26.3591   17.9419 H         1 UNK         0.0831 
    109 H109      -56.6041  -24.6697   18.3293 H         1 UNK         0.0831 
    110 H110      -55.2349  -25.5059   19.0415 H         1 UNK         0.0831 
    111 H111      -52.8965  -25.4422   16.9708 H         1 UNK         0.3133 
    112 H112      -52.4991  -28.5982   17.3194 H         1 UNK         0.0566 
    113 H113      -51.3860  -29.3667   15.1983 H         1 UNK         0.0814 
    114 H114      -53.1233  -29.5917   15.1767 H         1 UNK         0.0814 
    115 H115      -52.4009  -28.2538   14.2830 H         1 UNK         0.0814 
    116 H116      -50.8511  -26.8413   15.6650 H         1 UNK         0.3091 
    117 H117      -49.6845  -24.8941   18.3962 H         1 UNK         0.0702 
    118 H118      -47.4711  -25.5456   17.4822 H         1 UNK         0.0785 
    119 H119      -48.1903  -26.9144   16.6366 H         1 UNK         0.0785 
    120 H120      -48.1591  -26.8796   18.3952 H         1 UNK         0.0785 
    121 H121      -49.0290  -24.7690   15.6519 H         1 UNK         0.2998 
    122 H122      -51.8387  -22.7921   14.5560 H         1 UNK         0.0697 
    123 H123      -48.8195  -22.3312   14.8373 H         1 UNK         0.0825 
    124 H124      -50.0912  -21.2653   15.4078 H         1 UNK         0.0825 
    125 H125      -49.8741  -21.5150   13.6832 H         1 UNK         0.0825 
    126 H126      -49.6964  -24.0129   13.1074 H         1 UNK         0.3029 
    127 H127      -51.3165  -27.0939   12.3914 H         1 UNK         0.0897 
    128 H128      -50.7197  -24.6993   10.5717 H         1 UNK         0.0792 
    129 H129      -52.2710  -25.5159   10.7177 H         1 UNK         0.0792 
    130 H130      -50.8919  -26.3827   10.0661 H         1 UNK         0.0792 
    131 H131      -48.8030  -25.8276   11.6788 H         1 UNK         0.3086 
    132 H132      -46.9684  -27.4178   14.3124 H         1 UNK         0.0583 
    133 H133      -45.7036  -28.4467   12.5522 H         1 UNK         0.1020 
    134 H134      -47.2701  -29.1893   12.5551 H         1 UNK         0.1020 
    135 H135      -46.7428  -29.5640    8.9372 H         1 UNK         0.0694 
    136 H136      -47.0591  -30.2506   10.5015 H         1 UNK         0.0694 
    137 H137      -46.1034  -25.8053   12.1584 H         1 UNK         0.2989 
    138 H138      -46.9007  -22.6234   13.3317 H         1 UNK         0.1055 
    139 H139      -44.9374  -23.0510   14.8275 H         1 UNK         0.0806 
    140 H140      -44.4676  -22.1486   13.3980 H         1 UNK         0.0806 
    141 H141      -44.1032  -23.8713   13.5151 H         1 UNK         0.0806 
    142 H142      -45.1283  -23.3190   11.2754 H         1 UNK         0.3061 
    143 H143      -46.6697  -22.7237    8.8971 H         1 UNK         0.0734 
    144 H144      -45.1427  -25.3235    9.4842 H         1 UNK         0.0832 
    145 H145      -45.0381  -24.4322    7.9714 H         1 UNK         0.0832 
    146 H146      -44.4719  -23.6930    9.4505 H         1 UNK         0.0832 
    147 H147      -47.3884  -25.5263    8.3614 H         1 UNK         0.3156 
    148 H148      -49.6997  -26.0365    7.9317 H         1 UNK         0.0589 
    149 H149      -51.0619  -23.8236    6.3047 H         1 UNK         0.0808 
    150 H150      -51.6696  -25.4594    6.5524 H         1 UNK         0.0808 
    151 H151      -51.5457  -24.3557    7.9097 H         1 UNK         0.0808 
    152 H152      -49.4422  -25.2673    5.1630 H         1 UNK         0.3098 
    153 H153      -47.5125  -25.8210    3.8791 H         1 UNK         0.0720 
    154 H154      -45.7476  -27.4969    3.3945 H         1 UNK         0.0791 
    155 H155      -45.9716  -28.2391    4.9778 H         1 UNK         0.0791 
    156 H156      -45.3485  -26.6000    4.8513 H         1 UNK         0.0791 
    157 H157      -48.2067  -28.6891    4.0928 H         1 UNK         0.3028 
@<TRIPOS>BOND
     1    1    2 1    
     2    1   82 1    
     3    1   83 1    
     4    1   84 1    
     5    2    3 2    
     6    2    4 am   BACKBONE|DICT|INTERRES
     7    4    5 1    
     8    4   85 1    
     9    5    6 1    
    10    5   80 1    
    11    5   86 1    
    12    6    7 1    
    13    6   87 1    
    14    6   88 1    
    15    7    8 1    
    16    8    9 1    
    17    8   89 1    
    18    8   90 1    
    19    9   10 ar   
    20    9   14 ar   
    21   10   11 ar   
    22   10   91 1    
    23   11   12 ar   
    24   11   58 1    
    25   12   13 ar   
    26   12   92 1    
    27   13   14 ar   
    28   13   15 1    
    29   14   93 1    
    30   15   16 1    
    31   15   94 1    
    32   15   95 1    
    33   16   17 1    
    34   17   18 1    
    35   17   96 1    
    36   17   97 1    
    37   18   19 1    
    38   18   22 1    
    39   18   98 1    
    40   19   20 am   BACKBONE|DICT|INTERRES
    41   19   21 2    
    42   20   99 1    
    43   20  100 1    
    44   22   23 am   BACKBONE|DICT|INTERRES
    45   22  101 1    
    46   23   24 2    
    47   23   25 1    
    48   25   26 1    
    49   25   27 1    
    50   25  102 1    
    51   26  103 1    
    52   26  104 1    
    53   26  105 1    
    54   27   28 am   BACKBONE|DICT|INTERRES
    55   27  106 1    
    56   28   29 2    
    57   28   30 1    
    58   30   31 1    
    59   30   32 1    
    60   30  107 1    
    61   31  108 1    
    62   31  109 1    
    63   31  110 1    
    64   32   33 am   BACKBONE|DICT|INTERRES
    65   32  111 1    
    66   33   34 2    
    67   33   35 1    
    68   35   36 1    
    69   35   37 1    
    70   35  112 1    
    71   36  113 1    
    72   36  114 1    
    73   36  115 1    
    74   37   38 am   BACKBONE|DICT|INTERRES
    75   37  116 1    
    76   38   39 2    
    77   38   40 1    
    78   40   41 1    
    79   40   42 1    
    80   40  117 1    
    81   41  118 1    
    82   41  119 1    
    83   41  120 1    
    84   42   43 am   BACKBONE|DICT|INTERRES
    85   42  121 1    
    86   43   44 2    
    87   43   45 1    
    88   45   46 1    
    89   45   47 1    
    90   45  122 1    
    91   46  123 1    
    92   46  124 1    
    93   46  125 1    
    94   47   48 am   BACKBONE|DICT|INTERRES
    95   47  126 1    
    96   48   49 2    
    97   48   50 1    
    98   50   51 1    
    99   50   52 1    
   100   50  127 1    
   101   51  128 1    
   102   51  129 1    
   103   51  130 1    
   104   52   53 am   BACKBONE|DICT|INTERRES
   105   52  131 1    
   106   53   54 2    
   107   53   55 1    
   108   55   56 1    
   109   55   59 1    
   110   55  132 1    
   111   56   57 1    
   112   56  133 1    
   113   56  134 1    
   114   57   58 1    
   115   58  135 1    
   116   58  136 1    
   117   59   60 am   BACKBONE|DICT|INTERRES
   118   59  137 1    
   119   60   61 2    
   120   60   62 1    
   121   62   63 1    
   122   62   64 1    
   123   62  138 1    
   124   63  139 1    
   125   63  140 1    
   126   63  141 1    
   127   64   65 am   BACKBONE|DICT|INTERRES
   128   64  142 1    
   129   65   66 2    
   130   65   67 1    
   131   67   68 1    
   132   67   69 1    
   133   67  143 1    
   134   68  144 1    
   135   68  145 1    
   136   68  146 1    
   137   69   70 am   BACKBONE|DICT|INTERRES
   138   69  147 1    
   139   70   71 2    
   140   70   72 1    
   141   72   73 1    
   142   72   74 1    
   143   72  148 1    
   144   73  149 1    
   145   73  150 1    
   146   73  151 1    
   147   74   75 am   BACKBONE|DICT|INTERRES
   148   74  152 1    
   149   75   76 2    
   150   75   77 1    
   151   77   78 1    
   152   77   79 1    
   153   77  153 1    
   154   78  154 1    
   155   78  155 1    
   156   78  156 1    
   157   79   80 am   BACKBONE|DICT|INTERRES
   158   79  157 1    
   159   80   81 2    
@<TRIPOS>SUBSTRUCTURE
     1 UNK         1 GROUP             0       ****    0 ROOT    
