@<TRIPOS>MOLECULE
3R207
157   159    1
SMALL
USER_CHARGES


@<TRIPOS>ATOM
      1 CA        -51.2813  -21.1575    9.2937 C.3       0 UNK        -0.1975 
      2 C         -50.4869  -22.2363   10.0123 C.2       0 UNK         0.4852 
      3 O         -49.5851  -21.9211   10.7894 O.2       0 UNK        -0.5216 
      4 N         -50.8190  -23.5049    9.7432 N.am      1 UNK        -0.4461 
      5 CA        -50.2391  -24.7257   10.3156 C.3       1 UNK         0.0864 
      6 C6        -50.9867  -26.0052    9.8402 C.3       14 UNK        -0.0898 
      7 S7        -51.5695  -25.9715    8.1076 S.3       14 UNK        -0.2598 
      8 C8        -53.0745  -26.9964    8.2289 C.3       14 UNK         0.0286 
      9 C9        -52.7589  -28.4138    8.6878 C.ar      14 UNK        -0.0844 
     10 C10       -51.8032  -29.1692    8.0058 C.ar      14 UNK        -0.0881 
     11 C11       -51.4413  -30.4355    8.4638 C.ar      14 UNK        -0.0643 
     12 C12       -52.1015  -30.9835    9.5667 C.ar      14 UNK        -0.0930 
     13 C13       -53.0933  -30.2600   10.2376 C.ar      14 UNK        -0.0827 
     14 C14       -53.3970  -28.9612    9.8053 C.ar      14 UNK        -0.1249 
     15 C15       -53.7634  -30.8884   11.4586 C.3       14 UNK         0.0141 
     16 S16       -55.4792  -30.3379   11.7517 S.3       14 UNK        -0.2313 
     17 C17       -55.9002  -31.2447   13.2835 C.3       14 UNK        -0.0915 
     18 CA        -55.6330  -30.4618   14.6003 C.3       13 UNK         0.0968 
     19 C         -54.1315  -30.4659   14.9861 C.2       13 UNK         0.5732 
     20 N         -53.3878  -29.3859   14.7862 N.am      13 UNK        -0.7310 
     21 O         -53.6321  -31.4687   15.4903 O.2       13 UNK        -0.5035 
     22 N         -56.2261  -29.1177   14.5828 N.am      13 UNK        -0.4233 
     23 C         -57.3818  -28.7681   15.1618 C.2       13 UNK         0.4989 
     24 O         -58.0872  -29.5427   15.8099 O.2       13 UNK        -0.4996 
     25 CA        -57.8463  -27.3059   14.9985 C.3       12 UNK         0.0216 
     26 CB        -57.5507  -26.5042   16.2767 C.3       12 UNK        -0.1964 
     27 N         -57.2266  -26.6280   13.8585 N.am      12 UNK        -0.4276 
     28 C         -57.4495  -26.9286   12.5719 C.2       12 UNK         0.5020 
     29 O         -58.3464  -27.6863   12.1997 O.2       12 UNK        -0.5489 
     30 CA        -56.5088  -26.3067   11.5189 C.3       11 UNK         0.0294 
     31 CB        -57.2859  -25.3641   10.5844 C.3       11 UNK        -0.2019 
     32 N         -55.3413  -25.5876   12.0488 N.am      11 UNK        -0.4493 
     33 C         -54.3521  -26.1027   12.7928 C.2       11 UNK         0.4932 
     34 O         -54.3387  -27.2685   13.1940 O.2       11 UNK        -0.5029 
     35 CA        -53.1880  -25.1535   13.1315 C.3       10 UNK         0.0280 
     36 CB        -53.6091  -23.6741   13.2908 C.3       10 UNK        -0.1976 
     37 N         -52.3929  -25.6073   14.2749 N.am      10 UNK        -0.4242 
     38 C         -52.7646  -25.6450   15.5649 C.2       10 UNK         0.5072 
     39 O         -53.8908  -25.3375   15.9595 O.2       10 UNK        -0.5224 
     40 CA        -51.7040  -26.0672   16.6073 C.3       9 UNK         0.0343 
     41 CB        -52.1490  -27.2982   17.4154 C.3       9 UNK        -0.2003 
     42 N         -50.3750  -26.3167   16.0382 N.am      9 UNK        -0.4272 
     43 C         -49.5169  -25.3620   15.6515 C.2       9 UNK         0.4988 
     44 O         -49.7125  -24.1588   15.8235 O.2       9 UNK        -0.5108 
     45 CA        -48.2377  -25.8120   14.9208 C.3       8 UNK         0.0248 
     46 CB        -47.0326  -25.7888   15.8748 C.3       8 UNK        -0.2001 
     47 N         -48.3190  -27.1281   14.2729 N.am      8 UNK        -0.4140 
     48 C         -49.1479  -27.4405   13.2671 C.2       8 UNK         0.5028 
     49 O         -50.0023  -26.6710   12.8270 O.2       8 UNK        -0.5428 
     50 CA        -49.0382  -28.8645   12.6931 C.3       7 UNK         0.0264 
     51 CB        -50.3810  -29.5998   12.8302 C.3       7 UNK        -0.1988 
     52 N         -48.6203  -28.9099   11.2885 N.am      7 UNK        -0.4454 
     53 C         -47.4968  -28.3906   10.7726 C.2       7 UNK         0.5027 
     54 O         -46.6951  -27.7184   11.4252 O.2       7 UNK        -0.5083 
     55 CA        -47.1653  -28.7385    9.3043 C.3       6 UNK         0.0844 
     56 C56       -48.3631  -29.2119    8.4375 C.3       14 UNK        -0.0967 
     57 S57       -48.7459  -30.9813    8.7034 S.3       14 UNK        -0.2604 
     58 C58       -50.3074  -31.1888    7.7895 C.3       14 UNK         0.0134 
     59 N         -46.4497  -27.6217    8.6862 N.am      6 UNK        -0.4116 
     60 C         -45.2827  -27.7289    8.0366 C.2       5 UNK         0.5034 
     61 O         -44.7086  -28.8016    7.8364 O.2       5 UNK        -0.5045 
     62 CA        -44.6315  -26.4209    7.5435 C.3       5 UNK         0.0224 
     63 CB        -43.5362  -26.6512    6.4794 C.3       5 UNK        -0.1978 
     64 N         -45.5984  -25.4166    7.0881 N.am      5 UNK        -0.4737 
     65 C         -46.4623  -25.5094    6.0639 C.2       4 UNK         0.5027 
     66 O         -46.5377  -26.4890    5.3217 O.2       4 UNK        -0.5211 
     67 CA        -47.4112  -24.3165    5.8282 C.3       4 UNK         0.0297 
     68 CB        -48.8612  -24.7951    5.6426 C.3       4 UNK        -0.1993 
     69 N         -47.3709  -23.3674    6.9430 N.am      4 UNK        -0.4486 
     70 C         -46.6997  -22.2066    6.9531 C.2       3 UNK         0.4961 
     71 O         -46.1105  -21.7484    5.9744 O.2       3 UNK        -0.5105 
     72 CA        -46.6510  -21.4294    8.2851 C.3       3 UNK         0.0299 
     73 CB        -47.6802  -20.2892    8.2741 C.3       3 UNK        -0.1972 
     74 N         -46.8644  -22.2741    9.4667 N.am      3 UNK        -0.4305 
     75 C         -46.0246  -23.2436    9.8643 C.2       2 UNK         0.5006 
     76 O         -44.9471  -23.4750    9.3169 O.2       2 UNK        -0.5106 
     77 CA        -46.4868  -24.1614   11.0098 C.3       2 UNK         0.0296 
     78 CB        -45.9458  -23.6570   12.3567 C.3       2 UNK        -0.2002 
     79 N         -47.9433  -24.3129   11.0812 N.am      2 UNK        -0.4032 
     80 C         -48.7124  -24.8210   10.1065 C.2       1 UNK         0.5000 
     81 O         -48.2541  -25.2937    9.0633 O.2       1 UNK        -0.5238 
     82 H82       -51.4091  -21.4020    8.2393 H         1 UNK         0.0889 
     83 H83       -50.7732  -20.1957    9.3592 H         1 UNK         0.0889 
     84 H84       -52.2662  -21.0501    9.7473 H         1 UNK         0.0889 
     85 H85       -51.5348  -23.6845    9.0523 H         1 UNK         0.3028 
     86 H86       -50.3950  -24.6448   11.3918 H         1 UNK         0.0864 
     87 H87       -51.8617  -26.1619   10.4671 H         1 UNK         0.0720 
     88 H88       -50.3820  -26.9008    9.9920 H         1 UNK         0.0720 
     89 H89       -53.5560  -27.0383    7.2512 H         1 UNK         0.0814 
     90 H90       -53.7835  -26.5141    8.9040 H         1 UNK         0.0814 
     91 H91       -51.2992  -28.7440    7.1485 H         1 UNK         0.1469 
     92 H92       -51.8223  -31.9680    9.9167 H         1 UNK         0.1381 
     93 H93       -54.1241  -28.3702   10.3433 H         1 UNK         0.1206 
     94 H94       -53.7681  -31.9750   11.3603 H         1 UNK         0.0813 
     95 H95       -53.1525  -30.6575   12.3290 H         1 UNK         0.0813 
     96 H96       -55.3928  -32.2112   13.2899 H         1 UNK         0.0638 
     97 H97       -56.9641  -31.4790   13.2273 H         1 UNK         0.0638 
     98 H98       -56.1095  -31.0308   15.4006 H         1 UNK         0.0568 
     99 H99       -53.7485  -28.5798   14.2821 H         1 UNK         0.3450 
    100 H100      -52.4206  -29.4209   15.0531 H         1 UNK         0.3450 
    101 H101      -55.6983  -28.4201   14.0694 H         1 UNK         0.2987 
    102 H102      -58.9267  -27.3197   14.8404 H         1 UNK         0.0766 
    103 H103      -57.9326  -25.4857   16.2050 H         1 UNK         0.0798 
    104 H104      -56.4799  -26.4483   16.4795 H         1 UNK         0.0798 
    105 H105      -58.0231  -26.9653   17.1453 H         1 UNK         0.0798 
    106 H106      -56.4650  -25.9981   14.0665 H         1 UNK         0.3198 
    107 H107      -56.1300  -27.1385   10.9216 H         1 UNK         0.0843 
    108 H108      -57.6733  -24.4959   11.1190 H         1 UNK         0.0831 
    109 H109      -58.1382  -25.8743   10.1329 H         1 UNK         0.0831 
    110 H110      -56.6591  -25.0068    9.7671 H         1 UNK         0.0831 
    111 H111      -55.2713  -24.6145   11.7884 H         1 UNK         0.3133 
    112 H112      -52.5093  -25.1956   12.2857 H         1 UNK         0.0566 
    113 H113      -52.7669  -23.0598   13.6104 H         1 UNK         0.0814 
    114 H114      -53.9615  -23.2524   12.3491 H         1 UNK         0.0814 
    115 H115      -54.4047  -23.5520   14.0269 H         1 UNK         0.0814 
    116 H116      -51.4681  -25.9483   14.0307 H         1 UNK         0.3091 
    117 H117      -51.6226  -25.2328   17.3071 H         1 UNK         0.0702 
    118 H118      -53.1606  -27.1741   17.8047 H         1 UNK         0.0785 
    119 H119      -52.1388  -28.2060   16.8160 H         1 UNK         0.0785 
    120 H120      -51.4945  -27.4612   18.2718 H         1 UNK         0.0785 
    121 H121      -50.1260  -27.2793   15.8654 H         1 UNK         0.2998 
    122 H122      -48.0628  -25.0790   14.1323 H         1 UNK         0.0697 
    123 H123      -47.1364  -26.5232   16.6745 H         1 UNK         0.0825 
    124 H124      -46.9241  -24.8097   16.3439 H         1 UNK         0.0825 
    125 H125      -46.1021  -25.9953   15.3456 H         1 UNK         0.0825 
    126 H126      -47.6468  -27.8182   14.5766 H         1 UNK         0.3029 
    127 H127      -48.2910  -29.4171   13.2661 H         1 UNK         0.0897 
    128 H128      -50.3215  -30.6201   12.4507 H         1 UNK         0.0792 
    129 H129      -51.1773  -29.0865   12.2881 H         1 UNK         0.0792 
    130 H130      -50.6831  -29.6630   13.8752 H         1 UNK         0.0792 
    131 H131      -49.2021  -29.4612   10.6718 H         1 UNK         0.3086 
    132 H132      -46.4721  -29.5778    9.3901 H         1 UNK         0.0583 
    133 H133      -49.2368  -28.5817    8.6042 H         1 UNK         0.1020 
    134 H134      -48.1210  -29.0995    7.3790 H         1 UNK         0.1020 
    135 H135      -50.1751  -30.8548    6.7591 H         1 UNK         0.0694 
    136 H136      -50.5514  -32.2509    7.7394 H         1 UNK         0.0694 
    137 H137      -46.8746  -26.7074    8.8122 H         1 UNK         0.2989 
    138 H138      -44.1438  -25.9914    8.4202 H         1 UNK         0.1055 
    139 H139      -42.7361  -27.2810    6.8705 H         1 UNK         0.0806 
    140 H140      -43.0815  -25.7108    6.1682 H         1 UNK         0.0806 
    141 H141      -43.9311  -27.1441    5.5905 H         1 UNK         0.0806 
    142 H142      -45.6079  -24.5638    7.6361 H         1 UNK         0.3061 
    143 H143      -47.0938  -23.8281    4.9048 H         1 UNK         0.0734 
    144 H144      -49.5481  -23.9574    5.5224 H         1 UNK         0.0832 
    145 H145      -48.9572  -25.4227    4.7559 H         1 UNK         0.0832 
    146 H146      -49.1960  -25.3861    6.4948 H         1 UNK         0.0832 
    147 H147      -47.7938  -23.7016    7.8023 H         1 UNK         0.3156 
    148 H148      -45.6562  -20.9871    8.3721 H         1 UNK         0.0589 
    149 H149      -47.4570  -19.5741    7.4812 H         1 UNK         0.0808 
    150 H150      -48.6885  -20.6612    8.0963 H         1 UNK         0.0808 
    151 H151      -47.6818  -19.7393    9.2155 H         1 UNK         0.0808 
    152 H152      -47.7322  -22.1408    9.9785 H         1 UNK         0.3098 
    153 H153      -46.0604  -25.1484   10.8209 H         1 UNK         0.0720 
    154 H154      -44.8732  -23.4650   12.3002 H         1 UNK         0.0791 
    155 H155      -46.0908  -24.3969   13.1424 H         1 UNK         0.0791 
    156 H156      -46.4275  -22.7290   12.6670 H         1 UNK         0.0791 
    157 H157      -48.4034  -23.8845   11.8720 H         1 UNK         0.3028 
@<TRIPOS>BOND
     1    1    2 1    
     2    1   82 1    
     3    1   83 1    
     4    1   84 1    
     5    2    3 2    
     6    2    4 am   BACKBONE|DICT|INTERRES
     7    4    5 1    
     8    4   85 1    
     9    5    6 1    
    10    5   80 1    
    11    5   86 1    
    12    6    7 1    
    13    6   87 1    
    14    6   88 1    
    15    7    8 1    
    16    8    9 1    
    17    8   89 1    
    18    8   90 1    
    19    9   10 ar   
    20    9   14 ar   
    21   10   11 ar   
    22   10   91 1    
    23   11   12 ar   
    24   11   58 1    
    25   12   13 ar   
    26   12   92 1    
    27   13   14 ar   
    28   13   15 1    
    29   14   93 1    
    30   15   16 1    
    31   15   94 1    
    32   15   95 1    
    33   16   17 1    
    34   17   18 1    
    35   17   96 1    
    36   17   97 1    
    37   18   19 1    
    38   18   22 1    
    39   18   98 1    
    40   19   20 am   BACKBONE|DICT|INTERRES
    41   19   21 2    
    42   20   99 1    
    43   20  100 1    
    44   22   23 am   BACKBONE|DICT|INTERRES
    45   22  101 1    
    46   23   24 2    
    47   23   25 1    
    48   25   26 1    
    49   25   27 1    
    50   25  102 1    
    51   26  103 1    
    52   26  104 1    
    53   26  105 1    
    54   27   28 am   BACKBONE|DICT|INTERRES
    55   27  106 1    
    56   28   29 2    
    57   28   30 1    
    58   30   31 1    
    59   30   32 1    
    60   30  107 1    
    61   31  108 1    
    62   31  109 1    
    63   31  110 1    
    64   32   33 am   BACKBONE|DICT|INTERRES
    65   32  111 1    
    66   33   34 2    
    67   33   35 1    
    68   35   36 1    
    69   35   37 1    
    70   35  112 1    
    71   36  113 1    
    72   36  114 1    
    73   36  115 1    
    74   37   38 am   BACKBONE|DICT|INTERRES
    75   37  116 1    
    76   38   39 2    
    77   38   40 1    
    78   40   41 1    
    79   40   42 1    
    80   40  117 1    
    81   41  118 1    
    82   41  119 1    
    83   41  120 1    
    84   42   43 am   BACKBONE|DICT|INTERRES
    85   42  121 1    
    86   43   44 2    
    87   43   45 1    
    88   45   46 1    
    89   45   47 1    
    90   45  122 1    
    91   46  123 1    
    92   46  124 1    
    93   46  125 1    
    94   47   48 am   BACKBONE|DICT|INTERRES
    95   47  126 1    
    96   48   49 2    
    97   48   50 1    
    98   50   51 1    
    99   50   52 1    
   100   50  127 1    
   101   51  128 1    
   102   51  129 1    
   103   51  130 1    
   104   52   53 am   BACKBONE|DICT|INTERRES
   105   52  131 1    
   106   53   54 2    
   107   53   55 1    
   108   55   56 1    
   109   55   59 1    
   110   55  132 1    
   111   56   57 1    
   112   56  133 1    
   113   56  134 1    
   114   57   58 1    
   115   58  135 1    
   116   58  136 1    
   117   59   60 am   BACKBONE|DICT|INTERRES
   118   59  137 1    
   119   60   61 2    
   120   60   62 1    
   121   62   63 1    
   122   62   64 1    
   123   62  138 1    
   124   63  139 1    
   125   63  140 1    
   126   63  141 1    
   127   64   65 am   BACKBONE|DICT|INTERRES
   128   64  142 1    
   129   65   66 2    
   130   65   67 1    
   131   67   68 1    
   132   67   69 1    
   133   67  143 1    
   134   68  144 1    
   135   68  145 1    
   136   68  146 1    
   137   69   70 am   BACKBONE|DICT|INTERRES
   138   69  147 1    
   139   70   71 2    
   140   70   72 1    
   141   72   73 1    
   142   72   74 1    
   143   72  148 1    
   144   73  149 1    
   145   73  150 1    
   146   73  151 1    
   147   74   75 am   BACKBONE|DICT|INTERRES
   148   74  152 1    
   149   75   76 2    
   150   75   77 1    
   151   77   78 1    
   152   77   79 1    
   153   77  153 1    
   154   78  154 1    
   155   78  155 1    
   156   78  156 1    
   157   79   80 am   BACKBONE|DICT|INTERRES
   158   79  157 1    
   159   80   81 2    
@<TRIPOS>SUBSTRUCTURE
     1 UNK         1 GROUP             0       ****    0 ROOT    
