@<TRIPOS>MOLECULE
3R207
157   159    1
SMALL
USER_CHARGES


@<TRIPOS>ATOM
      1 CA        -48.1174  -32.4870    6.2789 C.3       0 UNK        -0.1975 
      2 C         -48.1172  -31.3071    5.3183 C.2       0 UNK         0.4852 
      3 O         -47.3665  -31.3124    4.3422 O.2       0 UNK        -0.5216 
      4 N         -48.9510  -30.2941    5.5900 N.am      1 UNK        -0.4461 
      5 CA        -49.1012  -29.0823    4.7702 C.3       1 UNK         0.0864 
      6 C6        -50.4142  -28.3284    5.0950 C.3       14 UNK        -0.0898 
      7 S7        -51.8883  -29.3601    4.8044 S.3       14 UNK        -0.2598 
      8 C8        -53.2252  -28.1562    5.0961 C.3       14 UNK         0.0286 
      9 C9        -53.2362  -27.6222    6.5237 C.ar      14 UNK        -0.0844 
     10 C10       -53.1679  -26.2465    6.7622 C.ar      14 UNK        -0.0881 
     11 C11       -53.1964  -25.7503    8.0691 C.ar      14 UNK        -0.0643 
     12 C12       -53.2987  -26.6437    9.1401 C.ar      14 UNK        -0.0930 
     13 C13       -53.3583  -28.0264    8.9208 C.ar      14 UNK        -0.0827 
     14 C14       -53.3373  -28.5012    7.6064 C.ar      14 UNK        -0.1249 
     15 C15       -53.4787  -29.0453   10.0557 C.3       14 UNK         0.0141 
     16 S16       -53.0493  -28.4272   11.7193 S.3       14 UNK        -0.2313 
     17 C17       -53.3202  -29.9320   12.7131 C.3       14 UNK        -0.0915 
     18 CA        -54.7971  -30.1083   13.1609 C.3       13 UNK         0.0968 
     19 C         -55.0378  -31.5144   13.7900 C.2       13 UNK         0.5732 
     20 N         -55.6158  -31.6440   14.9785 N.am      13 UNK        -0.7310 
     21 O         -54.7020  -32.5236   13.1744 O.2       13 UNK        -0.5035 
     22 N         -55.2534  -28.9793   13.9861 N.am      13 UNK        -0.4233 
     23 C         -56.5294  -28.6087   14.1384 C.2       13 UNK         0.4989 
     24 O         -57.4694  -29.1314   13.5354 O.2       13 UNK        -0.4996 
     25 CA        -56.7931  -27.4849   15.1629 C.3       12 UNK         0.0216 
     26 CB        -58.2962  -27.1944   15.3572 C.3       12 UNK        -0.1964 
     27 N         -56.1562  -27.7269   16.4661 N.am      12 UNK        -0.4276 
     28 C         -56.2470  -28.8206   17.2382 C.2       12 UNK         0.5020 
     29 O         -56.8912  -29.8247   16.9300 O.2       12 UNK        -0.5489 
     30 CA        -55.4484  -28.7999   18.5588 C.3       11 UNK         0.0294 
     31 CB        -55.5593  -30.1227   19.3406 C.3       11 UNK        -0.2019 
     32 N         -54.0324  -28.5093   18.3208 N.am      11 UNK        -0.4493 
     33 C         -53.5215  -27.2894   18.1158 C.2       11 UNK         0.4932 
     34 O         -54.1944  -26.2587   18.1884 O.2       11 UNK        -0.5029 
     35 CA        -52.0366  -27.1914   17.7110 C.3       10 UNK         0.0280 
     36 CB        -51.3495  -28.5553   17.4679 C.3       10 UNK        -0.1976 
     37 N         -51.8672  -26.3220   16.5419 N.am      10 UNK        -0.4242 
     38 C         -52.4512  -26.4490   15.3420 C.2       10 UNK         0.5072 
     39 O         -53.2101  -27.3748   15.0531 O.2       10 UNK        -0.5224 
     40 CA        -52.1636  -25.3714   14.2779 C.3       9 UNK         0.0343 
     41 CB        -53.2386  -24.2695   14.3113 C.3       9 UNK        -0.2003 
     42 N         -50.8107  -24.7943   14.2943 N.am      9 UNK        -0.4272 
     43 C         -50.2075  -24.0578   15.2394 C.2       9 UNK         0.4988 
     44 O         -50.7162  -23.7740   16.3246 O.2       9 UNK        -0.5108 
     45 CA        -48.7812  -23.5743   14.9332 C.3       8 UNK         0.0248 
     46 CB        -47.7687  -24.7116   15.1452 C.3       8 UNK        -0.2001 
     47 N         -48.6441  -23.0273   13.5809 N.am      8 UNK        -0.4140 
     48 C         -49.2228  -21.8911   13.1633 C.2       8 UNK         0.5028 
     49 O         -49.8893  -21.1528   13.8903 O.2       8 UNK        -0.5428 
     50 CA        -49.0303  -21.5053   11.6864 C.3       7 UNK         0.0264 
     51 CB        -47.6730  -20.8144   11.4790 C.3       7 UNK        -0.1988 
     52 N         -49.1546  -22.6426   10.7709 N.am      7 UNK        -0.4454 
     53 C         -50.2861  -23.3368   10.5725 C.2       7 UNK         0.5027 
     54 O         -51.3566  -23.0575   11.1138 O.2       7 UNK        -0.5083 
     55 CA        -50.2038  -24.5809    9.6592 C.3       6 UNK         0.0844 
     56 C56       -50.2699  -24.2406    8.1485 C.3       14 UNK        -0.0967 
     57 S57       -51.7669  -23.3840    7.5391 S.3       14 UNK        -0.2604 
     58 C58       -53.1634  -24.2493    8.3366 C.3       14 UNK         0.0134 
     59 N         -49.0210  -25.3921    9.9479 N.am      6 UNK        -0.4116 
     60 C         -48.7646  -26.0016   11.1128 C.2       5 UNK         0.5034 
     61 O         -49.5200  -25.9897   12.0834 O.2       5 UNK        -0.5045 
     62 CA        -47.4023  -26.6993   11.2291 C.3       5 UNK         0.0224 
     63 CB        -47.4319  -28.0765   10.5464 C.3       5 UNK        -0.1978 
     64 N         -46.3206  -25.8822   10.6712 N.am      5 UNK        -0.4737 
     65 C         -45.9070  -24.7213   11.2001 C.2       4 UNK         0.5027 
     66 O         -46.3718  -24.2355   12.2299 O.2       4 UNK        -0.5211 
     67 CA        -44.8223  -23.9533   10.4282 C.3       4 UNK         0.0297 
     68 CB        -43.4292  -24.5210   10.7421 C.3       4 UNK        -0.1993 
     69 N         -45.0451  -23.9607    8.9805 N.am      4 UNK        -0.4486 
     70 C         -46.0896  -23.3816    8.3710 C.2       3 UNK         0.4961 
     71 O         -46.9703  -22.7575    8.9595 O.2       3 UNK        -0.5105 
     72 CA        -46.1987  -23.5778    6.8509 C.3       3 UNK         0.0299 
     73 CB        -45.3281  -22.5525    6.1076 C.3       3 UNK        -0.1972 
     74 N         -45.8500  -24.9343    6.4175 N.am      3 UNK        -0.4305 
     75 C         -46.4916  -26.0438    6.8071 C.2       2 UNK         0.5006 
     76 O         -47.4282  -26.0545    7.6108 O.2       2 UNK        -0.5106 
     77 CA        -45.9667  -27.3710    6.2429 C.3       2 UNK         0.0296 
     78 CB        -45.0292  -28.0534    7.2525 C.3       2 UNK        -0.2002 
     79 N         -47.0776  -28.2675    5.9299 N.am      2 UNK        -0.4032 
     80 C         -47.8975  -28.1208    4.8788 C.2       1 UNK         0.5000 
     81 O         -47.7376  -27.2615    4.0089 O.2       1 UNK        -0.5238 
     82 H82       -48.3830  -33.4013    5.7489 H         1 UNK         0.0889 
     83 H83       -48.8276  -32.3498    7.0942 H         1 UNK         0.0889 
     84 H84       -47.1259  -32.6193    6.7111 H         1 UNK         0.0889 
     85 H85       -49.5684  -30.3569    6.3874 H         1 UNK         0.3028 
     86 H86       -49.1477  -29.3959    3.7248 H         1 UNK         0.0864 
     87 H87       -50.5067  -27.4317    4.4786 H         1 UNK         0.0720 
     88 H88       -50.4173  -27.9909    6.1337 H         1 UNK         0.0720 
     89 H89       -54.1826  -28.6379    4.8937 H         1 UNK         0.0814 
     90 H90       -53.1323  -27.3432    4.3742 H         1 UNK         0.0814 
     91 H91       -53.0996  -25.5561    5.9325 H         1 UNK         0.1469 
     92 H92       -53.3393  -26.2496   10.1453 H         1 UNK         0.1381 
     93 H93       -53.3977  -29.5652    7.4206 H         1 UNK         0.1206 
     94 H94       -54.5032  -29.4185   10.0725 H         1 UNK         0.0813 
     95 H95       -52.8376  -29.9001    9.8348 H         1 UNK         0.0813 
     96 H96       -52.6678  -29.8814   13.5866 H         1 UNK         0.0638 
     97 H97       -52.9784  -30.7895   12.1307 H         1 UNK         0.0638 
     98 H98       -55.4047  -30.1078   12.2547 H         1 UNK         0.0568 
     99 H99       -55.9650  -30.8433   15.4940 H         1 UNK         0.3450 
    100 H100      -55.7596  -32.5698   15.3480 H         1 UNK         0.3450 
    101 H101      -54.5241  -28.4680   14.4820 H         1 UNK         0.2987 
    102 H102      -56.3295  -26.5857   14.7543 H         1 UNK         0.0766 
    103 H103      -58.7696  -26.9267   14.4117 H         1 UNK         0.0798 
    104 H104      -58.4540  -26.3628   16.0438 H         1 UNK         0.0798 
    105 H105      -58.8258  -28.0616   15.7538 H         1 UNK         0.0798 
    106 H106      -55.5517  -26.9860   16.8076 H         1 UNK         0.3198 
    107 H107      -55.8771  -28.0111   19.1811 H         1 UNK         0.0843 
    108 H108      -56.6000  -30.3519   19.5740 H         1 UNK         0.0831 
    109 H109      -55.0216  -30.0710   20.2876 H         1 UNK         0.0831 
    110 H110      -55.1602  -30.9638   18.7722 H         1 UNK         0.0831 
    111 H111      -53.4242  -29.3059   18.1967 H         1 UNK         0.3133 
    112 H112      -51.5237  -26.6999   18.5387 H         1 UNK         0.0566 
    113 H113      -50.3052  -28.4188   17.1867 H         1 UNK         0.0814 
    114 H114      -51.3539  -29.1705   18.3685 H         1 UNK         0.0814 
    115 H115      -51.8297  -29.1225   16.6691 H         1 UNK         0.0814 
    116 H116      -51.3433  -25.4630   16.6935 H         1 UNK         0.3091 
    117 H117      -52.2429  -25.8721   13.3116 H         1 UNK         0.0702 
    118 H118      -53.2286  -23.7191   15.2525 H         1 UNK         0.0785 
    119 H119      -54.2358  -24.6957   14.1942 H         1 UNK         0.0785 
    120 H120      -53.0935  -23.5541   13.5013 H         1 UNK         0.0785 
    121 H121      -50.2594  -25.0360   13.4722 H         1 UNK         0.2998 
    122 H122      -48.5435  -22.7768   15.6403 H         1 UNK         0.0697 
    123 H123      -47.9226  -25.5280   14.4387 H         1 UNK         0.0825 
    124 H124      -47.8514  -25.1279   16.1501 H         1 UNK         0.0825 
    125 H125      -46.7450  -24.3566   15.0252 H         1 UNK         0.0825 
    126 H126      -48.0412  -23.5371   12.9402 H         1 UNK         0.3029 
    127 H127      -49.8153  -20.7904   11.4304 H         1 UNK         0.0897 
    128 H128      -47.5676  -20.4474   10.4579 H         1 UNK         0.0792 
    129 H129      -47.5647  -19.9567   12.1443 H         1 UNK         0.0792 
    130 H130      -46.8410  -21.4906   11.6783 H         1 UNK         0.0792 
    131 H131      -48.3239  -22.8856   10.2346 H         1 UNK         0.3086 
    132 H132      -51.0577  -25.2103    9.9071 H         1 UNK         0.0583 
    133 H133      -49.4065  -23.6364    7.8655 H         1 UNK         0.1020 
    134 H134      -50.1785  -25.1627    7.5711 H         1 UNK         0.1020 
    135 H135      -53.1481  -24.0426    9.4070 H         1 UNK         0.0694 
    136 H136      -54.0917  -23.8146    7.9642 H         1 UNK         0.0694 
    137 H137      -48.3492  -25.4978    9.1920 H         1 UNK         0.2989 
    138 H138      -47.1974  -26.8495   12.2916 H         1 UNK         0.1055 
    139 H139      -48.2021  -28.7101   10.9886 H         1 UNK         0.0806 
    140 H140      -46.4812  -28.5974   10.6603 H         1 UNK         0.0806 
    141 H141      -47.6505  -27.9998    9.4810 H         1 UNK         0.0806 
    142 H142      -45.9189  -26.1851    9.7966 H         1 UNK         0.3061 
    143 H143      -44.8505  -22.9147   10.7650 H         1 UNK         0.0734 
    144 H144      -43.2382  -24.5092   11.8163 H         1 UNK         0.0832 
    145 H145      -43.3238  -25.5528   10.4046 H         1 UNK         0.0832 
    146 H146      -42.6440  -23.9304   10.2698 H         1 UNK         0.0832 
    147 H147      -44.3707  -24.4522    8.4126 H         1 UNK         0.3156 
    148 H148      -47.2396  -23.4028    6.5711 H         1 UNK         0.0589 
    149 H149      -44.2665  -22.6938    6.3139 H         1 UNK         0.0808 
    150 H150      -45.4727  -22.6165    5.0289 H         1 UNK         0.0808 
    151 H151      -45.5851  -21.5349    6.4061 H         1 UNK         0.0808 
    152 H152      -45.0884  -25.0182    5.7590 H         1 UNK         0.3098 
    153 H153      -45.4075  -27.1764    5.3250 H         1 UNK         0.0720 
    154 H154      -44.6274  -28.9840    6.8509 H         1 UNK         0.0791 
    155 H155      -45.5377  -28.2867    8.1881 H         1 UNK         0.0791 
    156 H156      -44.1791  -27.4137    7.4933 H         1 UNK         0.0791 
    157 H157      -47.2992  -28.9780    6.6107 H         1 UNK         0.3028 
@<TRIPOS>BOND
     1    1    2 1    
     2    1   82 1    
     3    1   83 1    
     4    1   84 1    
     5    2    3 2    
     6    2    4 am   BACKBONE|DICT|INTERRES
     7    4    5 1    
     8    4   85 1    
     9    5    6 1    
    10    5   80 1    
    11    5   86 1    
    12    6    7 1    
    13    6   87 1    
    14    6   88 1    
    15    7    8 1    
    16    8    9 1    
    17    8   89 1    
    18    8   90 1    
    19    9   10 ar   
    20    9   14 ar   
    21   10   11 ar   
    22   10   91 1    
    23   11   12 ar   
    24   11   58 1    
    25   12   13 ar   
    26   12   92 1    
    27   13   14 ar   
    28   13   15 1    
    29   14   93 1    
    30   15   16 1    
    31   15   94 1    
    32   15   95 1    
    33   16   17 1    
    34   17   18 1    
    35   17   96 1    
    36   17   97 1    
    37   18   19 1    
    38   18   22 1    
    39   18   98 1    
    40   19   20 am   BACKBONE|DICT|INTERRES
    41   19   21 2    
    42   20   99 1    
    43   20  100 1    
    44   22   23 am   BACKBONE|DICT|INTERRES
    45   22  101 1    
    46   23   24 2    
    47   23   25 1    
    48   25   26 1    
    49   25   27 1    
    50   25  102 1    
    51   26  103 1    
    52   26  104 1    
    53   26  105 1    
    54   27   28 am   BACKBONE|DICT|INTERRES
    55   27  106 1    
    56   28   29 2    
    57   28   30 1    
    58   30   31 1    
    59   30   32 1    
    60   30  107 1    
    61   31  108 1    
    62   31  109 1    
    63   31  110 1    
    64   32   33 am   BACKBONE|DICT|INTERRES
    65   32  111 1    
    66   33   34 2    
    67   33   35 1    
    68   35   36 1    
    69   35   37 1    
    70   35  112 1    
    71   36  113 1    
    72   36  114 1    
    73   36  115 1    
    74   37   38 am   BACKBONE|DICT|INTERRES
    75   37  116 1    
    76   38   39 2    
    77   38   40 1    
    78   40   41 1    
    79   40   42 1    
    80   40  117 1    
    81   41  118 1    
    82   41  119 1    
    83   41  120 1    
    84   42   43 am   BACKBONE|DICT|INTERRES
    85   42  121 1    
    86   43   44 2    
    87   43   45 1    
    88   45   46 1    
    89   45   47 1    
    90   45  122 1    
    91   46  123 1    
    92   46  124 1    
    93   46  125 1    
    94   47   48 am   BACKBONE|DICT|INTERRES
    95   47  126 1    
    96   48   49 2    
    97   48   50 1    
    98   50   51 1    
    99   50   52 1    
   100   50  127 1    
   101   51  128 1    
   102   51  129 1    
   103   51  130 1    
   104   52   53 am   BACKBONE|DICT|INTERRES
   105   52  131 1    
   106   53   54 2    
   107   53   55 1    
   108   55   56 1    
   109   55   59 1    
   110   55  132 1    
   111   56   57 1    
   112   56  133 1    
   113   56  134 1    
   114   57   58 1    
   115   58  135 1    
   116   58  136 1    
   117   59   60 am   BACKBONE|DICT|INTERRES
   118   59  137 1    
   119   60   61 2    
   120   60   62 1    
   121   62   63 1    
   122   62   64 1    
   123   62  138 1    
   124   63  139 1    
   125   63  140 1    
   126   63  141 1    
   127   64   65 am   BACKBONE|DICT|INTERRES
   128   64  142 1    
   129   65   66 2    
   130   65   67 1    
   131   67   68 1    
   132   67   69 1    
   133   67  143 1    
   134   68  144 1    
   135   68  145 1    
   136   68  146 1    
   137   69   70 am   BACKBONE|DICT|INTERRES
   138   69  147 1    
   139   70   71 2    
   140   70   72 1    
   141   72   73 1    
   142   72   74 1    
   143   72  148 1    
   144   73  149 1    
   145   73  150 1    
   146   73  151 1    
   147   74   75 am   BACKBONE|DICT|INTERRES
   148   74  152 1    
   149   75   76 2    
   150   75   77 1    
   151   77   78 1    
   152   77   79 1    
   153   77  153 1    
   154   78  154 1    
   155   78  155 1    
   156   78  156 1    
   157   79   80 am   BACKBONE|DICT|INTERRES
   158   79  157 1    
   159   80   81 2    
@<TRIPOS>SUBSTRUCTURE
     1 UNK         1 GROUP             0       ****    0 ROOT    
