@<TRIPOS>MOLECULE
3R207
157   159    1
SMALL
USER_CHARGES


@<TRIPOS>ATOM
      1 CA        -53.3571  -27.7681    7.7823 C.3       0 UNK        -0.1975 
      2 C         -51.8665  -28.0024    7.5867 C.2       0 UNK         0.4852 
      3 O         -51.0688  -27.1196    7.8973 O.2       0 UNK        -0.5216 
      4 N         -51.4877  -29.1859    7.0837 N.am      1 UNK        -0.4461 
      5 CA        -50.0967  -29.5790    6.8395 C.3       1 UNK         0.0864 
      6 C6        -49.9778  -31.1072    6.5874 C.3       14 UNK        -0.0898 
      7 S7        -48.2848  -31.7520    6.8382 S.3       14 UNK        -0.2598 
      8 C8        -48.3362  -32.3123    8.5751 C.3       14 UNK         0.0286 
      9 C9        -48.6675  -31.1562    9.5042 C.ar      14 UNK        -0.0844 
     10 C10       -47.7180  -30.1602    9.7465 C.ar      14 UNK        -0.0881 
     11 C11       -48.0662  -29.0188   10.4709 C.ar      14 UNK        -0.0643 
     12 C12       -49.3673  -28.8859   10.9634 C.ar      14 UNK        -0.0930 
     13 C13       -50.3130  -29.9027   10.7796 C.ar      14 UNK        -0.0827 
     14 C14       -49.9496  -31.0371   10.0490 C.ar      14 UNK        -0.1249 
     15 C15       -51.7473  -29.7934   11.2953 C.3       14 UNK         0.0141 
     16 S16       -51.9645  -28.6535   12.7005 S.3       14 UNK        -0.2313 
     17 C17       -53.7343  -28.8889   13.0662 C.3       14 UNK        -0.0915 
     18 CA        -54.6925  -28.0030   12.2280 C.3       13 UNK         0.0968 
     19 C         -56.1649  -28.2299   12.6841 C.2       13 UNK         0.5732 
     20 N         -56.8369  -27.2594   13.2955 N.am      13 UNK        -0.7310 
     21 O         -56.7079  -29.3120   12.4756 O.2       13 UNK        -0.5035 
     22 N         -54.2879  -26.5890   12.2002 N.am      13 UNK        -0.4233 
     23 C         -54.7556  -25.7019   11.3093 C.2       13 UNK         0.4989 
     24 O         -55.4467  -26.0216   10.3404 O.2       13 UNK        -0.4996 
     25 CA        -54.4104  -24.2125   11.5222 C.3       12 UNK         0.0216 
     26 CB        -55.5376  -23.2783   11.0309 C.3       12 UNK        -0.1964 
     27 N         -54.0212  -23.8637   12.8947 N.am      12 UNK        -0.4276 
     28 C         -54.7535  -24.0289   14.0057 C.2       12 UNK         0.5020 
     29 O         -55.8933  -24.5013   14.0255 O.2       12 UNK        -0.5489 
     30 CA        -54.0637  -23.6705   15.3335 C.3       11 UNK         0.0294 
     31 CB        -54.8326  -22.5601   16.0681 C.3       11 UNK        -0.2019 
     32 N         -53.9443  -24.8423   16.2071 N.am      11 UNK        -0.4493 
     33 C         -53.3426  -25.9916   15.8726 C.2       11 UNK         0.4932 
     34 O         -52.7578  -26.1745   14.8013 O.2       11 UNK        -0.5029 
     35 CA        -53.4449  -27.1382   16.8848 C.3       10 UNK         0.0280 
     36 CB        -54.8955  -27.6640   16.9544 C.3       10 UNK        -0.1976 
     37 N         -52.5296  -28.1952   16.4617 N.am      10 UNK        -0.4242 
     38 C         -52.2080  -29.3014   17.1415 C.2       10 UNK         0.5072 
     39 O         -52.6212  -29.5575   18.2733 O.2       10 UNK        -0.5224 
     40 CA        -51.2725  -30.3017   16.4438 C.3       9 UNK         0.0343 
     41 CB        -52.0789  -31.3167   15.6175 C.3       9 UNK        -0.2003 
     42 N         -50.2854  -29.6450   15.5826 N.am      9 UNK        -0.4272 
     43 C         -49.0885  -29.2257   16.0146 C.2       9 UNK         0.4988 
     44 O         -48.6993  -29.3346   17.1783 O.2       9 UNK        -0.5108 
     45 CA        -48.1547  -28.5989   14.9666 C.3       8 UNK         0.0248 
     46 CB        -47.5729  -29.6848   14.0449 C.3       8 UNK        -0.2001 
     47 N         -48.7819  -27.5408   14.1683 N.am      8 UNK        -0.4140 
     48 C         -49.2247  -26.3755   14.6626 C.2       8 UNK         0.5028 
     49 O         -49.2012  -26.0944   15.8630 O.2       8 UNK        -0.5428 
     50 CA        -49.7439  -25.3404   13.6388 C.3       7 UNK         0.0264 
     51 CB        -50.1344  -24.0056   14.3076 C.3       7 UNK        -0.1988 
     52 N         -48.8369  -25.0570   12.5145 N.am      7 UNK        -0.4454 
     53 C         -47.5216  -24.7778   12.5601 C.2       7 UNK         0.5027 
     54 O         -46.8138  -24.9081   13.5596 O.2       7 UNK        -0.5083 
     55 CA        -46.8925  -24.1867   11.2778 C.3       6 UNK         0.0844 
     56 C56       -46.2597  -25.2472   10.3378 C.3       14 UNK        -0.0967 
     57 S57       -47.4031  -26.4854    9.6415 S.3       14 UNK        -0.2604 
     58 C58       -47.0503  -27.9142   10.7013 C.3       14 UNK         0.0134 
     59 N         -47.7902  -23.2349   10.6025 N.am      6 UNK        -0.4116 
     60 C         -48.0596  -22.0151   11.1068 C.2       5 UNK         0.5034 
     61 O         -47.5784  -21.5993   12.1622 O.2       5 UNK        -0.5045 
     62 CA        -48.9869  -21.0640   10.3259 C.3       5 UNK         0.0224 
     63 CB        -48.1563  -20.0380    9.5371 C.3       5 UNK        -0.1978 
     64 N         -49.9112  -21.7251    9.4096 N.am      5 UNK        -0.4737 
     65 C         -50.9377  -22.5039    9.7708 C.2       4 UNK         0.5027 
     66 O         -51.2562  -22.7171   10.9407 O.2       4 UNK        -0.5211 
     67 CA        -51.7364  -23.1714    8.6321 C.3       4 UNK         0.0297 
     68 CB        -53.0250  -22.3792    8.3565 C.3       4 UNK        -0.1993 
     69 N         -51.0131  -23.3549    7.3636 N.am      4 UNK        -0.4486 
     70 C         -49.8302  -23.9671    7.2238 C.2       3 UNK         0.4961 
     71 O         -49.1315  -24.3345    8.1681 O.2       3 UNK        -0.5105 
     72 CA        -49.3033  -24.1537    5.8010 C.3       3 UNK         0.0299 
     73 CB        -48.3715  -22.9871    5.4176 C.3       3 UNK        -0.1972 
     74 N         -48.5903  -25.4256    5.7847 N.am      3 UNK        -0.4305 
     75 C         -48.1301  -26.0754    4.7110 C.2       2 UNK         0.5006 
     76 O         -48.2109  -25.6516    3.5572 O.2       2 UNK        -0.5106 
     77 CA        -47.4839  -27.4474    4.9696 C.3       2 UNK         0.0296 
     78 CB        -46.0418  -27.2827    5.4776 C.3       2 UNK        -0.2002 
     79 N         -48.2429  -28.2663    5.9183 N.am      2 UNK        -0.4032 
     80 C         -49.4733  -28.7521    5.6978 C.2       1 UNK         0.5000 
     81 O         -50.1028  -28.5939    4.6476 O.2       1 UNK        -0.5238 
     82 H82       -53.6782  -26.8976    7.2110 H         1 UNK         0.0889 
     83 H83       -53.5695  -27.5800    8.8344 H         1 UNK         0.0889 
     84 H84       -53.9518  -28.6237    7.4633 H         1 UNK         0.0889 
     85 H85       -52.1891  -29.8578    6.8088 H         1 UNK         0.3028 
     86 H86       -49.5562  -29.3315    7.7533 H         1 UNK         0.0864 
     87 H87       -50.6464  -31.6532    7.2546 H         1 UNK         0.0720 
     88 H88       -50.3039  -31.3617    5.5770 H         1 UNK         0.0720 
     89 H89       -47.3677  -32.7352    8.8460 H         1 UNK         0.0814 
     90 H90       -49.0645  -33.1184    8.6771 H         1 UNK         0.0814 
     91 H91       -46.7254  -30.2521    9.3269 H         1 UNK         0.1469 
     92 H92       -49.6418  -27.9729   11.4683 H         1 UNK         0.1381 
     93 H93       -50.6844  -31.8078    9.8601 H         1 UNK         0.1206 
     94 H94       -52.0983  -30.7813   11.5976 H         1 UNK         0.0813 
     95 H95       -52.3873  -29.4682   10.4745 H         1 UNK         0.0813 
     96 H96       -53.9810  -29.9438   12.9332 H         1 UNK         0.0638 
     97 H97       -53.8751  -28.6840   14.1264 H         1 UNK         0.0638 
     98 H98       -54.6393  -28.3673   11.2006 H         1 UNK         0.0568 
     99 H99       -56.4134  -26.3539   13.4740 H         1 UNK         0.3450 
    100 H100      -57.7887  -27.4274   13.5781 H         1 UNK         0.3450 
    101 H101      -53.7201  -26.2753   12.9798 H         1 UNK         0.2987 
    102 H102      -53.5331  -24.0296   10.9049 H         1 UNK         0.0766 
    103 H103      -56.4738  -23.4638   11.5586 H         1 UNK         0.0798 
    104 H104      -55.2754  -22.2300   11.1734 H         1 UNK         0.0798 
    105 H105      -55.7321  -23.4199    9.9670 H         1 UNK         0.0798 
    106 H106      -53.0808  -23.5030   12.9888 H         1 UNK         0.3198 
    107 H107      -53.0571  -23.3041   15.1263 H         1 UNK         0.0843 
    108 H108      -55.8423  -22.8761   16.3343 H         1 UNK         0.0831 
    109 H109      -54.9251  -21.6715   15.4422 H         1 UNK         0.0831 
    110 H110      -54.3215  -22.2589   16.9827 H         1 UNK         0.0831 
    111 H111      -54.4254  -24.7908   17.0932 H         1 UNK         0.3133 
    112 H112      -53.1307  -26.7708   17.8635 H         1 UNK         0.0566 
    113 H113      -55.5878  -26.8786   17.2592 H         1 UNK         0.0814 
    114 H114      -55.2375  -28.0368   15.9885 H         1 UNK         0.0814 
    115 H115      -55.0002  -28.4717   17.6783 H         1 UNK         0.0814 
    116 H116      -52.1180  -28.0245   15.5515 H         1 UNK         0.3091 
    117 H117      -50.7523  -30.8608   17.2249 H         1 UNK         0.0702 
    118 H118      -51.4289  -32.0710   15.1738 H         1 UNK         0.0785 
    119 H119      -52.6340  -30.8389   14.8120 H         1 UNK         0.0785 
    120 H120      -52.8021  -31.8409   16.2438 H         1 UNK         0.0785 
    121 H121      -50.5304  -29.5152   14.6103 H         1 UNK         0.2998 
    122 H122      -47.3223  -28.1431   15.5073 H         1 UNK         0.0697 
    123 H123      -48.3345  -30.1296   13.4033 H         1 UNK         0.0825 
    124 H124      -47.1302  -30.4937   14.6279 H         1 UNK         0.0825 
    125 H125      -46.7834  -29.2874   13.4083 H         1 UNK         0.0825 
    126 H126      -48.8292  -27.6894   13.1730 H         1 UNK         0.3029 
    127 H127      -50.6490  -25.7699   13.2066 H         1 UNK         0.0897 
    128 H128      -49.2646  -23.4990   14.7272 H         1 UNK         0.0792 
    129 H129      -50.8410  -24.1653   15.1220 H         1 UNK         0.0792 
    130 H130      -50.6044  -23.3272   13.5958 H         1 UNK         0.0792 
    131 H131      -49.2903  -24.9274   11.6199 H         1 UNK         0.3086 
    132 H132      -46.0433  -23.5938   11.6267 H         1 UNK         0.0583 
    133 H133      -45.7815  -24.7387    9.4992 H         1 UNK         0.1020 
    134 H134      -45.4477  -25.7610   10.8558 H         1 UNK         0.1020 
    135 H135      -46.0377  -28.2694   10.5039 H         1 UNK         0.0694 
    136 H136      -47.0736  -27.6083   11.7466 H         1 UNK         0.0694 
    137 H137      -48.2311  -23.5432    9.7390 H         1 UNK         0.2989 
    138 H138      -49.5838  -20.5253   11.0655 H         1 UNK         0.1055 
    139 H139      -47.4747  -19.4972   10.1954 H         1 UNK         0.0806 
    140 H140      -48.7935  -19.2958    9.0558 H         1 UNK         0.0806 
    141 H141      -47.5522  -20.5159    8.7647 H         1 UNK         0.0806 
    142 H142      -49.7215  -21.6304    8.4228 H         1 UNK         0.3061 
    143 H143      -52.0111  -24.1675    8.9854 H         1 UNK         0.0734 
    144 H144      -52.8144  -21.4246    7.8729 H         1 UNK         0.0832 
    145 H145      -53.7076  -22.9391    7.7171 H         1 UNK         0.0832 
    146 H146      -53.5586  -22.1561    9.2803 H         1 UNK         0.0832 
    147 H147      -51.4979  -23.0585    6.5284 H         1 UNK         0.3156 
    148 H148      -50.1426  -24.2097    5.1051 H         1 UNK         0.0589 
    149 H149      -47.5060  -22.9315    6.0794 H         1 UNK         0.0808 
    150 H150      -48.0046  -23.0823    4.3959 H         1 UNK         0.0808 
    151 H151      -48.8938  -22.0317    5.4813 H         1 UNK         0.0808 
    152 H152      -48.4973  -25.8445    6.7040 H         1 UNK         0.3098 
    153 H153      -47.4513  -27.9835    4.0187 H         1 UNK         0.0720 
    154 H154      -45.5440  -28.2475    5.5777 H         1 UNK         0.0791 
    155 H155      -46.0074  -26.7849    6.4480 H         1 UNK         0.0791 
    156 H156      -45.4500  -26.6847    4.7831 H         1 UNK         0.0791 
    157 H157      -47.8029  -28.4527    6.8082 H         1 UNK         0.3028 
@<TRIPOS>BOND
     1    1    2 1    
     2    1   82 1    
     3    1   83 1    
     4    1   84 1    
     5    2    3 2    
     6    2    4 am   BACKBONE|DICT|INTERRES
     7    4    5 1    
     8    4   85 1    
     9    5    6 1    
    10    5   80 1    
    11    5   86 1    
    12    6    7 1    
    13    6   87 1    
    14    6   88 1    
    15    7    8 1    
    16    8    9 1    
    17    8   89 1    
    18    8   90 1    
    19    9   10 ar   
    20    9   14 ar   
    21   10   11 ar   
    22   10   91 1    
    23   11   12 ar   
    24   11   58 1    
    25   12   13 ar   
    26   12   92 1    
    27   13   14 ar   
    28   13   15 1    
    29   14   93 1    
    30   15   16 1    
    31   15   94 1    
    32   15   95 1    
    33   16   17 1    
    34   17   18 1    
    35   17   96 1    
    36   17   97 1    
    37   18   19 1    
    38   18   22 1    
    39   18   98 1    
    40   19   20 am   BACKBONE|DICT|INTERRES
    41   19   21 2    
    42   20   99 1    
    43   20  100 1    
    44   22   23 am   BACKBONE|DICT|INTERRES
    45   22  101 1    
    46   23   24 2    
    47   23   25 1    
    48   25   26 1    
    49   25   27 1    
    50   25  102 1    
    51   26  103 1    
    52   26  104 1    
    53   26  105 1    
    54   27   28 am   BACKBONE|DICT|INTERRES
    55   27  106 1    
    56   28   29 2    
    57   28   30 1    
    58   30   31 1    
    59   30   32 1    
    60   30  107 1    
    61   31  108 1    
    62   31  109 1    
    63   31  110 1    
    64   32   33 am   BACKBONE|DICT|INTERRES
    65   32  111 1    
    66   33   34 2    
    67   33   35 1    
    68   35   36 1    
    69   35   37 1    
    70   35  112 1    
    71   36  113 1    
    72   36  114 1    
    73   36  115 1    
    74   37   38 am   BACKBONE|DICT|INTERRES
    75   37  116 1    
    76   38   39 2    
    77   38   40 1    
    78   40   41 1    
    79   40   42 1    
    80   40  117 1    
    81   41  118 1    
    82   41  119 1    
    83   41  120 1    
    84   42   43 am   BACKBONE|DICT|INTERRES
    85   42  121 1    
    86   43   44 2    
    87   43   45 1    
    88   45   46 1    
    89   45   47 1    
    90   45  122 1    
    91   46  123 1    
    92   46  124 1    
    93   46  125 1    
    94   47   48 am   BACKBONE|DICT|INTERRES
    95   47  126 1    
    96   48   49 2    
    97   48   50 1    
    98   50   51 1    
    99   50   52 1    
   100   50  127 1    
   101   51  128 1    
   102   51  129 1    
   103   51  130 1    
   104   52   53 am   BACKBONE|DICT|INTERRES
   105   52  131 1    
   106   53   54 2    
   107   53   55 1    
   108   55   56 1    
   109   55   59 1    
   110   55  132 1    
   111   56   57 1    
   112   56  133 1    
   113   56  134 1    
   114   57   58 1    
   115   58  135 1    
   116   58  136 1    
   117   59   60 am   BACKBONE|DICT|INTERRES
   118   59  137 1    
   119   60   61 2    
   120   60   62 1    
   121   62   63 1    
   122   62   64 1    
   123   62  138 1    
   124   63  139 1    
   125   63  140 1    
   126   63  141 1    
   127   64   65 am   BACKBONE|DICT|INTERRES
   128   64  142 1    
   129   65   66 2    
   130   65   67 1    
   131   67   68 1    
   132   67   69 1    
   133   67  143 1    
   134   68  144 1    
   135   68  145 1    
   136   68  146 1    
   137   69   70 am   BACKBONE|DICT|INTERRES
   138   69  147 1    
   139   70   71 2    
   140   70   72 1    
   141   72   73 1    
   142   72   74 1    
   143   72  148 1    
   144   73  149 1    
   145   73  150 1    
   146   73  151 1    
   147   74   75 am   BACKBONE|DICT|INTERRES
   148   74  152 1    
   149   75   76 2    
   150   75   77 1    
   151   77   78 1    
   152   77   79 1    
   153   77  153 1    
   154   78  154 1    
   155   78  155 1    
   156   78  156 1    
   157   79   80 am   BACKBONE|DICT|INTERRES
   158   79  157 1    
   159   80   81 2    
@<TRIPOS>SUBSTRUCTURE
     1 UNK         1 GROUP             0       ****    0 ROOT    
