@<TRIPOS>MOLECULE
3R207
157   159    1
SMALL
USER_CHARGES


@<TRIPOS>ATOM
      1 CA        -45.0261  -30.1469    2.6918 C.3       0 UNK        -0.1975 
      2 C         -46.3983  -29.7180    3.1900 C.2       0 UNK         0.4852 
      3 O         -47.1947  -29.1952    2.4096 O.2       0 UNK        -0.5216 
      4 N         -46.6792  -29.9388    4.4824 N.am      1 UNK        -0.4461 
      5 CA        -47.9366  -29.5736    5.1491 C.3       1 UNK         0.0864 
      6 C6        -48.0522  -30.2838    6.5209 C.3       14 UNK        -0.0898 
      7 S7        -49.7703  -30.3951    7.1154 S.3       14 UNK        -0.2598 
      8 C8        -49.6596  -29.3850    8.6198 C.3       14 UNK         0.0286 
      9 C9        -51.0363  -28.9956    9.1210 C.ar      14 UNK        -0.0844 
     10 C10       -51.5785  -27.7655    8.7476 C.ar      14 UNK        -0.0881 
     11 C11       -52.8277  -27.3656    9.2260 C.ar      14 UNK        -0.0643 
     12 C12       -53.5570  -28.2305   10.0477 C.ar      14 UNK        -0.0930 
     13 C13       -53.0350  -29.4790   10.4066 C.ar      14 UNK        -0.0827 
     14 C14       -51.7652  -29.8501    9.9526 C.ar      14 UNK        -0.1249 
     15 C15       -53.8664  -30.4472   11.2354 C.3       14 UNK         0.0141 
     16 S16       -54.2928  -29.7763   12.8725 S.3       14 UNK        -0.2313 
     17 C17       -55.6524  -30.9042   13.3313 C.3       14 UNK        -0.0915 
     18 CA        -57.0189  -30.4711   12.7308 C.3       13 UNK         0.0968 
     19 C         -58.1301  -31.5208   13.0207 C.2       13 UNK         0.5732 
     20 N         -59.2467  -31.1589   13.6420 N.am      13 UNK        -0.7310 
     21 O         -57.9829  -32.6866   12.6614 O.2       13 UNK        -0.5035 
     22 N         -57.3704  -29.0991   13.1270 N.am      13 UNK        -0.4233 
     23 C         -58.0233  -28.2134   12.3640 C.2       13 UNK         0.4989 
     24 O         -58.4295  -28.4585   11.2273 O.2       13 UNK        -0.4996 
     25 CA        -58.2839  -26.8168   12.9656 C.3       12 UNK         0.0216 
     26 CB        -59.7899  -26.5991   13.1937 C.3       12 UNK        -0.1964 
     27 N         -57.5726  -26.5778   14.2272 N.am      12 UNK        -0.4276 
     28 C         -56.2642  -26.3117   14.3279 C.2       12 UNK         0.5020 
     29 O         -55.5098  -26.1709   13.3625 O.2       12 UNK        -0.5489 
     30 CA        -55.7065  -26.2332   15.7523 C.3       11 UNK         0.0294 
     31 CB        -55.6181  -27.6346   16.3888 C.3       11 UNK        -0.2019 
     32 N         -54.3763  -25.6362   15.7132 N.am      11 UNK        -0.4493 
     33 C         -53.8036  -24.9619   16.7154 C.2       11 UNK         0.4932 
     34 O         -54.3631  -24.7360   17.7907 O.2       11 UNK        -0.5029 
     35 CA        -52.3624  -24.4721   16.4738 C.3       10 UNK         0.0280 
     36 CB        -51.6975  -23.9170   17.7516 C.3       10 UNK        -0.1976 
     37 N         -51.5061  -25.4893   15.8517 N.am      10 UNK        -0.4242 
     38 C         -51.2186  -26.7155   16.3179 C.2       10 UNK         0.5072 
     39 O         -51.6811  -27.1965   17.3536 O.2       10 UNK        -0.5224 
     40 CA        -50.2109  -27.5388   15.4970 C.3       9 UNK         0.0343 
     41 CB        -50.8885  -28.1717   14.2691 C.3       9 UNK        -0.2003 
     42 N         -49.0507  -26.7466   15.0778 N.am      9 UNK        -0.4272 
     43 C         -48.1372  -26.2299   15.9152 C.2       9 UNK         0.4988 
     44 O         -48.1250  -26.4358   17.1295 O.2       9 UNK        -0.5108 
     45 CA        -47.0551  -25.3225   15.3030 C.3       8 UNK         0.0248 
     46 CB        -45.9154  -26.1613   14.7034 C.3       8 UNK        -0.2001 
     47 N         -47.5907  -24.4053   14.2934 N.am      8 UNK        -0.4140 
     48 C         -48.4271  -23.3915   14.5625 C.2       8 UNK         0.5028 
     49 O         -48.7593  -23.0617   15.7008 O.2       8 UNK        -0.5428 
     50 CA        -49.0154  -22.6244   13.3652 C.3       7 UNK         0.0264 
     51 CB        -48.0772  -21.4884   12.9283 C.3       7 UNK        -0.1988 
     52 N         -49.3174  -23.4822   12.2169 N.am      7 UNK        -0.4454 
     53 C         -50.2184  -24.4762   12.2182 C.2       7 UNK         0.5027 
     54 O         -50.9171  -24.7603   13.1916 O.2       7 UNK        -0.5083 
     55 CA        -50.3117  -25.3260   10.9322 C.3       6 UNK         0.0844 
     56 C56       -51.1143  -24.5923    9.8246 C.3       14 UNK        -0.0967 
     57 S57       -52.9198  -24.7267   10.0682 S.3       14 UNK        -0.2604 
     58 C58       -53.3839  -26.0006    8.8515 C.3       14 UNK         0.0134 
     59 N         -48.9826  -25.7561   10.4753 N.am      6 UNK        -0.4116 
     60 C         -48.1395  -26.5155   11.1931 C.2       5 UNK         0.5034 
     61 O         -48.4354  -27.0386   12.2660 O.2       5 UNK        -0.5045 
     62 CA        -46.6956  -26.6514   10.6792 C.3       5 UNK         0.0224 
     63 CB        -46.5152  -27.8664    9.7562 C.3       5 UNK        -0.1978 
     64 N         -46.2353  -25.4349   10.0080 N.am      5 UNK        -0.4737 
     65 C         -45.9118  -24.3056   10.6537 C.2       4 UNK         0.5027 
     66 O         -45.9046  -24.2030   11.8793 O.2       4 UNK        -0.5211 
     67 CA        -45.5922  -23.0740    9.7883 C.3       4 UNK         0.0297 
     68 CB        -44.1173  -23.0857    9.3576 C.3       4 UNK        -0.1993 
     69 N         -46.4501  -22.9792    8.6038 N.am      4 UNK        -0.4486 
     70 C         -47.7784  -22.7991    8.6419 C.2       3 UNK         0.4961 
     71 O         -48.4084  -22.6063    9.6801 O.2       3 UNK        -0.5105 
     72 CA        -48.5440  -22.9118    7.3107 C.3       3 UNK         0.0299 
     73 CB        -48.7036  -21.5268    6.6655 C.3       3 UNK        -0.1972 
     74 N         -47.9227  -23.8334    6.3524 N.am      3 UNK        -0.4305 
     75 C         -47.7230  -25.1430    6.5606 C.2       2 UNK         0.5006 
     76 O         -48.0730  -25.7335    7.5853 O.2       2 UNK        -0.5106 
     77 CA        -46.9048  -25.8668    5.4772 C.3       2 UNK         0.0296 
     78 CB        -45.4163  -25.4963    5.6065 C.3       2 UNK        -0.2002 
     79 N         -47.0153  -27.3266    5.5100 N.am      2 UNK        -0.4032 
     80 C         -48.1206  -28.0391    5.2466 C.2       1 UNK         0.5000 
     81 O         -49.2229  -27.5379    5.0149 O.2       1 UNK        -0.5238 
     82 H82       -45.1299  -30.8734    1.8863 H         1 UNK         0.0889 
     83 H83       -44.4275  -30.6003    3.4816 H         1 UNK         0.0889 
     84 H84       -44.4815  -29.2856    2.3059 H         1 UNK         0.0889 
     85 H85       -45.9865  -30.3890    5.0641 H         1 UNK         0.3028 
     86 H86       -48.7416  -29.9466    4.5112 H         1 UNK         0.0864 
     87 H87       -47.6962  -31.3119    6.4354 H         1 UNK         0.0720 
     88 H88       -47.4097  -29.8129    7.2671 H         1 UNK         0.0720 
     89 H89       -49.0898  -28.4812    8.4035 H         1 UNK         0.0814 
     90 H90       -49.1124  -29.9280    9.3917 H         1 UNK         0.0814 
     91 H91       -51.0154  -27.1150    8.0925 H         1 UNK         0.1469 
     92 H92       -54.5322  -27.9333   10.4098 H         1 UNK         0.1381 
     93 H93       -51.3511  -30.8111   10.2255 H         1 UNK         0.1206 
     94 H94       -53.3445  -31.3959   11.3699 H         1 UNK         0.0813 
     95 H95       -54.7766  -30.6735   10.6796 H         1 UNK         0.0813 
     96 H96       -55.3860  -31.9133   13.0111 H         1 UNK         0.0638 
     97 H97       -55.7109  -30.9370   14.4206 H         1 UNK         0.0638 
     98 H98       -56.9081  -30.4838   11.6456 H         1 UNK         0.0568 
     99 H99       -59.9591  -31.8500   13.8165 H         1 UNK         0.3450 
    100 H100      -59.3861  -30.2051   13.9322 H         1 UNK         0.3450 
    101 H101      -57.0699  -28.8150   14.0455 H         1 UNK         0.2987 
    102 H102      -57.9410  -26.0836   12.2321 H         1 UNK         0.0766 
    103 H103      -59.9952  -25.5903   13.5526 H         1 UNK         0.0798 
    104 H104      -60.1967  -27.3042   13.9195 H         1 UNK         0.0798 
    105 H105      -60.3494  -26.7284   12.2660 H         1 UNK         0.0798 
    106 H106      -58.1177  -26.6634   15.0741 H         1 UNK         0.3198 
    107 H107      -56.3724  -25.5997   16.3428 H         1 UNK         0.0843 
    108 H108      -54.9811  -28.3006   15.8045 H         1 UNK         0.0831 
    109 H109      -56.6002  -28.1017   16.4671 H         1 UNK         0.0831 
    110 H110      -55.2070  -27.5862   17.3974 H         1 UNK         0.0831 
    111 H111      -53.8993  -25.7324   14.8241 H         1 UNK         0.3133 
    112 H112      -52.4311  -23.6543   15.7551 H         1 UNK         0.0566 
    113 H113      -50.6889  -23.5572   17.5494 H         1 UNK         0.0814 
    114 H114      -52.2647  -23.0780   18.1560 H         1 UNK         0.0814 
    115 H115      -51.6310  -24.6738   18.5339 H         1 UNK         0.0814 
    116 H116      -51.1201  -25.2299   14.9442 H         1 UNK         0.3091 
    117 H117      -49.8465  -28.3477   16.1336 H         1 UNK         0.0702 
    118 H118      -51.7417  -28.7829   14.5662 H         1 UNK         0.0785 
    119 H119      -51.2563  -27.4195   13.5707 H         1 UNK         0.0785 
    120 H120      -50.1999  -28.8187   13.7254 H         1 UNK         0.0785 
    121 H121      -48.9421  -26.5940   14.0789 H         1 UNK         0.2998 
    122 H122      -46.6356  -24.7160   16.1085 H         1 UNK         0.0697 
    123 H123      -46.2731  -26.8293   13.9208 H         1 UNK         0.0825 
    124 H124      -45.4477  -26.7819   15.4688 H         1 UNK         0.0825 
    125 H125      -45.1361  -25.5291   14.2773 H         1 UNK         0.0825 
    126 H126      -47.2844  -24.5415   13.3356 H         1 UNK         0.3029 
    127 H127      -49.9566  -22.1794   13.6952 H         1 UNK         0.0897 
    128 H128      -48.5169  -20.8978   12.1243 H         1 UNK         0.0792 
    129 H129      -47.1179  -21.8686   12.5770 H         1 UNK         0.0792 
    130 H130      -47.8751  -20.8092   13.7576 H         1 UNK         0.0792 
    131 H131      -48.8295  -23.2699   11.3483 H         1 UNK         0.3086 
    132 H132      -50.8460  -26.2430   11.1913 H         1 UNK         0.0583 
    133 H133      -50.8561  -23.5332    9.7768 H         1 UNK         0.1020 
    134 H134      -50.8619  -24.9861    8.8406 H         1 UNK         0.1020 
    135 H135      -54.4723  -26.0496    8.7933 H         1 UNK         0.0694 
    136 H136      -53.0397  -25.7045    7.8593 H         1 UNK         0.0694 
    137 H137      -48.6646  -25.4116    9.5772 H         1 UNK         0.2989 
    138 H138      -46.0628  -26.8154   11.5539 H         1 UNK         0.1055 
    139 H139      -46.9357  -28.7670   10.2058 H         1 UNK         0.0806 
    140 H140      -45.4587  -28.0624    9.5730 H         1 UNK         0.0806 
    141 H141      -46.9922  -27.7231    8.7891 H         1 UNK         0.0806 
    142 H142      -46.2870  -25.4257    8.9988 H         1 UNK         0.3061 
    143 H143      -45.7639  -22.1855   10.3997 H         1 UNK         0.0734 
    144 H144      -43.8557  -22.1795    8.8110 H         1 UNK         0.0832 
    145 H145      -43.4596  -23.1383   10.2266 H         1 UNK         0.0832 
    146 H146      -43.8854  -23.9415    8.7223 H         1 UNK         0.0832 
    147 H147      -46.0097  -23.1100    7.7054 H         1 UNK         0.3156 
    148 H148      -49.5399  -23.2969    7.5363 H         1 UNK         0.0589 
    149 H149      -49.1868  -20.8306    7.3529 H         1 UNK         0.0808 
    150 H150      -47.7413  -21.0947    6.3880 H         1 UNK         0.0808 
    151 H151      -49.3227  -21.5744    5.7694 H         1 UNK         0.0808 
    152 H152      -47.5980  -23.4276    5.4859 H         1 UNK         0.3098 
    153 H153      -47.2673  -25.5334    4.5025 H         1 UNK         0.0720 
    154 H154      -45.2625  -24.4197    5.5234 H         1 UNK         0.0791 
    155 H155      -44.8227  -25.9607    4.8185 H         1 UNK         0.0791 
    156 H156      -45.0031  -25.8122    6.5657 H         1 UNK         0.0791 
    157 H157      -46.1621  -27.8340    5.6884 H         1 UNK         0.3028 
@<TRIPOS>BOND
     1    1    2 1    
     2    1   82 1    
     3    1   83 1    
     4    1   84 1    
     5    2    3 2    
     6    2    4 am   BACKBONE|DICT|INTERRES
     7    4    5 1    
     8    4   85 1    
     9    5    6 1    
    10    5   80 1    
    11    5   86 1    
    12    6    7 1    
    13    6   87 1    
    14    6   88 1    
    15    7    8 1    
    16    8    9 1    
    17    8   89 1    
    18    8   90 1    
    19    9   10 ar   
    20    9   14 ar   
    21   10   11 ar   
    22   10   91 1    
    23   11   12 ar   
    24   11   58 1    
    25   12   13 ar   
    26   12   92 1    
    27   13   14 ar   
    28   13   15 1    
    29   14   93 1    
    30   15   16 1    
    31   15   94 1    
    32   15   95 1    
    33   16   17 1    
    34   17   18 1    
    35   17   96 1    
    36   17   97 1    
    37   18   19 1    
    38   18   22 1    
    39   18   98 1    
    40   19   20 am   BACKBONE|DICT|INTERRES
    41   19   21 2    
    42   20   99 1    
    43   20  100 1    
    44   22   23 am   BACKBONE|DICT|INTERRES
    45   22  101 1    
    46   23   24 2    
    47   23   25 1    
    48   25   26 1    
    49   25   27 1    
    50   25  102 1    
    51   26  103 1    
    52   26  104 1    
    53   26  105 1    
    54   27   28 am   BACKBONE|DICT|INTERRES
    55   27  106 1    
    56   28   29 2    
    57   28   30 1    
    58   30   31 1    
    59   30   32 1    
    60   30  107 1    
    61   31  108 1    
    62   31  109 1    
    63   31  110 1    
    64   32   33 am   BACKBONE|DICT|INTERRES
    65   32  111 1    
    66   33   34 2    
    67   33   35 1    
    68   35   36 1    
    69   35   37 1    
    70   35  112 1    
    71   36  113 1    
    72   36  114 1    
    73   36  115 1    
    74   37   38 am   BACKBONE|DICT|INTERRES
    75   37  116 1    
    76   38   39 2    
    77   38   40 1    
    78   40   41 1    
    79   40   42 1    
    80   40  117 1    
    81   41  118 1    
    82   41  119 1    
    83   41  120 1    
    84   42   43 am   BACKBONE|DICT|INTERRES
    85   42  121 1    
    86   43   44 2    
    87   43   45 1    
    88   45   46 1    
    89   45   47 1    
    90   45  122 1    
    91   46  123 1    
    92   46  124 1    
    93   46  125 1    
    94   47   48 am   BACKBONE|DICT|INTERRES
    95   47  126 1    
    96   48   49 2    
    97   48   50 1    
    98   50   51 1    
    99   50   52 1    
   100   50  127 1    
   101   51  128 1    
   102   51  129 1    
   103   51  130 1    
   104   52   53 am   BACKBONE|DICT|INTERRES
   105   52  131 1    
   106   53   54 2    
   107   53   55 1    
   108   55   56 1    
   109   55   59 1    
   110   55  132 1    
   111   56   57 1    
   112   56  133 1    
   113   56  134 1    
   114   57   58 1    
   115   58  135 1    
   116   58  136 1    
   117   59   60 am   BACKBONE|DICT|INTERRES
   118   59  137 1    
   119   60   61 2    
   120   60   62 1    
   121   62   63 1    
   122   62   64 1    
   123   62  138 1    
   124   63  139 1    
   125   63  140 1    
   126   63  141 1    
   127   64   65 am   BACKBONE|DICT|INTERRES
   128   64  142 1    
   129   65   66 2    
   130   65   67 1    
   131   67   68 1    
   132   67   69 1    
   133   67  143 1    
   134   68  144 1    
   135   68  145 1    
   136   68  146 1    
   137   69   70 am   BACKBONE|DICT|INTERRES
   138   69  147 1    
   139   70   71 2    
   140   70   72 1    
   141   72   73 1    
   142   72   74 1    
   143   72  148 1    
   144   73  149 1    
   145   73  150 1    
   146   73  151 1    
   147   74   75 am   BACKBONE|DICT|INTERRES
   148   74  152 1    
   149   75   76 2    
   150   75   77 1    
   151   77   78 1    
   152   77   79 1    
   153   77  153 1    
   154   78  154 1    
   155   78  155 1    
   156   78  156 1    
   157   79   80 am   BACKBONE|DICT|INTERRES
   158   79  157 1    
   159   80   81 2    
@<TRIPOS>SUBSTRUCTURE
     1 UNK         1 GROUP             0       ****    0 ROOT    
