@<TRIPOS>MOLECULE
3R207
157   159    1
SMALL
USER_CHARGES


@<TRIPOS>ATOM
      1 CA        -48.7938  -27.4926    1.5359 C.3       0 UNK        -0.1975 
      2 C         -48.1337  -28.2104    2.7041 C.2       0 UNK         0.4852 
      3 O         -47.3607  -29.1428    2.4825 O.2       0 UNK        -0.5216 
      4 N         -48.4391  -27.7750    3.9352 N.am      1 UNK        -0.4461 
      5 CA        -47.9323  -28.2970    5.2133 C.3       1 UNK         0.0864 
      6 C6        -48.5062  -29.7026    5.5532 C.3       14 UNK        -0.0898 
      7 S7        -50.2930  -29.6316    5.9075 S.3       14 UNK        -0.2598 
      8 C8        -50.2249  -29.4732    7.7190 C.3       14 UNK         0.0286 
      9 C9        -51.5432  -29.0016    8.3069 C.ar      14 UNK        -0.0844 
     10 C10       -51.9758  -27.6931    8.0789 C.ar      14 UNK        -0.0881 
     11 C11       -53.1467  -27.2175    8.6751 C.ar      14 UNK        -0.0643 
     12 C12       -53.8991  -28.0690    9.4888 C.ar      14 UNK        -0.0930 
     13 C13       -53.4780  -29.3822    9.7188 C.ar      14 UNK        -0.0827 
     14 C14       -52.3007  -29.8453    9.1235 C.ar      14 UNK        -0.1249 
     15 C15       -54.2738  -30.2878   10.6421 C.3       14 UNK         0.0141 
     16 S16       -53.8338  -29.9548   12.3715 S.3       14 UNK        -0.2313 
     17 C17       -54.7674  -31.2567   13.2400 C.3       14 UNK        -0.0915 
     18 CA        -56.1622  -30.7902   13.7320 C.3       13 UNK         0.0968 
     19 C         -56.8678  -31.9462   14.4945 C.2       13 UNK         0.5732 
     20 N         -57.6781  -32.7406   13.8082 N.am      13 UNK        -0.7310 
     21 O         -56.6487  -32.1553   15.6867 O.2       13 UNK        -0.5035 
     22 N         -56.0658  -29.5438   14.5061 N.am      13 UNK        -0.4233 
     23 C         -57.0831  -28.8758   15.0637 C.2       13 UNK         0.4989 
     24 O         -58.2644  -29.2185   14.9964 O.2       13 UNK        -0.4996 
     25 CA        -56.7162  -27.5806   15.8027 C.3       12 UNK         0.0216 
     26 CB        -56.1947  -27.8866   17.2162 C.3       12 UNK        -0.1964 
     27 N         -55.7318  -26.7729   15.0757 N.am      12 UNK        -0.4276 
     28 C         -56.0103  -26.0598   13.9714 C.2       12 UNK         0.5020 
     29 O         -57.1139  -26.0781   13.4225 O.2       12 UNK        -0.5489 
     30 CA        -54.8941  -25.1662   13.3803 C.3       11 UNK         0.0294 
     31 CB        -55.4518  -23.8871   12.7225 C.3       11 UNK        -0.2019 
     32 N         -53.8249  -24.8249   14.3253 N.am      11 UNK        -0.4493 
     33 C         -53.9334  -24.2306   15.5242 C.2       11 UNK         0.4932 
     34 O         -54.9814  -23.7521   15.9604 O.2       11 UNK        -0.5029 
     35 CA        -52.6626  -24.2128   16.4020 C.3       10 UNK         0.0280 
     36 CB        -52.9912  -24.2040   17.9095 C.3       10 UNK        -0.1976 
     37 N         -51.7136  -25.2945   16.0966 N.am      10 UNK        -0.4242 
     38 C         -51.9489  -26.6183   16.0951 C.2       10 UNK         0.5072 
     39 O         -53.0391  -27.1110   16.3925 O.2       10 UNK        -0.5224 
     40 CA        -50.8177  -27.5579   15.6287 C.3       9 UNK         0.0343 
     41 CB        -51.2890  -28.4216   14.4474 C.3       9 UNK        -0.2003 
     42 N         -49.5994  -26.8514   15.2278 N.am      9 UNK        -0.4272 
     43 C         -48.6376  -26.4438   16.0664 C.2       9 UNK         0.4988 
     44 O         -48.6342  -26.6822   17.2743 O.2       9 UNK        -0.5108 
     45 CA        -47.5064  -25.5914   15.4625 C.3       8 UNK         0.0248 
     46 CB        -46.3891  -26.4933   14.9153 C.3       8 UNK        -0.2001 
     47 N         -47.9633  -24.6717   14.4127 N.am      8 UNK        -0.4140 
     48 C         -48.8628  -23.6931   14.5980 C.2       8 UNK         0.5028 
     49 O         -49.3810  -23.4405   15.6855 O.2       8 UNK        -0.5428 
     50 CA        -49.3084  -22.8967   13.3611 C.3       7 UNK         0.0264 
     51 CB        -48.2660  -21.8317   12.9865 C.3       7 UNK        -0.1988 
     52 N         -49.5880  -23.7443   12.2010 N.am      7 UNK        -0.4454 
     53 C         -50.5270  -24.7023   12.1496 C.2       7 UNK         0.5027 
     54 O         -51.2805  -24.9814   13.0820 O.2       7 UNK        -0.5083 
     55 CA        -50.5915  -25.5229   10.8467 C.3       6 UNK         0.0844 
     56 C56       -51.2673  -24.7181    9.7044 C.3       14 UNK        -0.0967 
     57 S57       -53.0881  -24.7068    9.8419 S.3       14 UNK        -0.2604 
     58 C58       -53.5877  -25.7789    8.4574 C.3       14 UNK         0.0134 
     59 N         -49.2573  -26.0099   10.4788 N.am      6 UNK        -0.4116 
     60 C         -48.5175  -26.8496   11.2209 C.2       5 UNK         0.5034 
     61 O         -48.9140  -27.3891   12.2536 O.2       5 UNK        -0.5045 
     62 CA        -47.0657  -27.0791   10.7691 C.3       5 UNK         0.0224 
     63 CB        -46.9704  -28.2457    9.7737 C.3       5 UNK        -0.1978 
     64 N         -46.4699  -25.8748   10.1837 N.am      5 UNK        -0.4737 
     65 C         -46.1168  -24.7937   10.8958 C.2       4 UNK         0.5027 
     66 O         -46.2100  -24.7293   12.1205 O.2       4 UNK        -0.5211 
     67 CA        -45.6310  -23.5578   10.1141 C.3       4 UNK         0.0297 
     68 CB        -44.1176  -23.6420    9.8637 C.3       4 UNK        -0.1993 
     69 N         -46.3288  -23.3724    8.8388 N.am      4 UNK        -0.4486 
     70 C         -47.6524  -23.2058    8.7129 C.2       3 UNK         0.4961 
     71 O         -48.4096  -23.0678    9.6732 O.2       3 UNK        -0.5105 
     72 CA        -48.2552  -23.2602    7.2953 C.3       3 UNK         0.0299 
     73 CB        -48.5875  -21.8412    6.8084 C.3       3 UNK        -0.1972 
     74 N         -47.4500  -23.9462    6.2727 N.am      3 UNK        -0.4305 
     75 C         -46.9562  -25.1917    6.3429 C.2       2 UNK         0.5006 
     76 O         -47.0519  -25.9063    7.3421 O.2       2 UNK        -0.5106 
     77 CA        -46.2221  -25.7044    5.0882 C.3       2 UNK         0.0296 
     78 CB        -45.0208  -24.7994    4.7549 C.3       2 UNK        -0.2002 
     79 N         -45.7205  -27.0792    5.2170 N.am      2 UNK        -0.4032 
     80 C         -46.3828  -28.2456    5.3168 C.2       1 UNK         0.5000 
     81 O         -45.7585  -29.2962    5.4725 O.2       1 UNK        -0.5238 
     82 H82       -49.4549  -26.6921    1.8674 H         1 UNK         0.0889 
     83 H83       -49.3832  -28.1965    0.9488 H         1 UNK         0.0889 
     84 H84       -48.0350  -27.0580    0.8858 H         1 UNK         0.0889 
     85 H85       -49.1000  -27.0161    4.0226 H         1 UNK         0.3028 
     86 H86       -48.3070  -27.6250    5.9826 H         1 UNK         0.0864 
     87 H87       -48.3358  -30.4025    4.7337 H         1 UNK         0.0720 
     88 H88       -48.0066  -30.1357    6.4222 H         1 UNK         0.0720 
     89 H89       -49.9208  -30.4271    8.1531 H         1 UNK         0.0814 
     90 H90       -49.4560  -28.7508    7.9901 H         1 UNK         0.0814 
     91 H91       -51.3871  -27.0423    7.4477 H         1 UNK         0.1469 
     92 H92       -54.7988  -27.7014    9.9634 H         1 UNK         0.1381 
     93 H93       -51.9632  -30.8546    9.3163 H         1 UNK         0.1206 
     94 H94       -54.0784  -31.3352   10.4066 H         1 UNK         0.0813 
     95 H95       -55.3434  -30.1277   10.4984 H         1 UNK         0.0813 
     96 H96       -54.1579  -31.5809   14.0859 H         1 UNK         0.0638 
     97 H97       -54.8606  -32.1258   12.5861 H         1 UNK         0.0638 
     98 H98       -56.7659  -30.5539   12.8538 H         1 UNK         0.0568 
     99 H99       -57.8544  -32.5870   12.8277 H         1 UNK         0.3450 
    100 H100      -58.1305  -33.5057   14.2838 H         1 UNK         0.3450 
    101 H101      -55.1342  -29.1729   14.6140 H         1 UNK         0.2987 
    102 H102      -57.6279  -26.9878   15.9051 H         1 UNK         0.0766 
    103 H103      -55.9766  -26.9701   17.7650 H         1 UNK         0.0798 
    104 H104      -55.2834  -28.4855   17.1923 H         1 UNK         0.0798 
    105 H105      -56.9349  -28.4429   17.7928 H         1 UNK         0.0798 
    106 H106      -54.7971  -26.7235   15.4729 H         1 UNK         0.3198 
    107 H107      -54.4198  -25.7604   12.5972 H         1 UNK         0.0843 
    108 H108      -54.6522  -23.2801   12.2980 H         1 UNK         0.0831 
    109 H109      -55.9995  -23.2719   13.4369 H         1 UNK         0.0831 
    110 H110      -56.1355  -24.1305   11.9084 H         1 UNK         0.0831 
    111 H111      -52.8883  -25.0969   14.0293 H         1 UNK         0.3133 
    112 H112      -52.1463  -23.2813   16.1669 H         1 UNK         0.0566 
    113 H113      -53.5630  -25.0854   18.2023 H         1 UNK         0.0814 
    114 H114      -52.0834  -24.1770   18.5123 H         1 UNK         0.0814 
    115 H115      -53.5823  -23.3279   18.1786 H         1 UNK         0.0814 
    116 H116      -50.7938  -24.9760   15.8118 H         1 UNK         0.3091 
    117 H117      -50.5864  -28.2234   16.4628 H         1 UNK         0.0702 
    118 H118      -50.5057  -29.1025   14.1137 H         1 UNK         0.0785 
    119 H119      -51.5844  -27.8108   13.5929 H         1 UNK         0.0785 
    120 H120      -52.1479  -29.0322   14.7276 H         1 UNK         0.0785 
    121 H121      -49.5038  -26.6486   14.2388 H         1 UNK         0.2998 
    122 H122      -47.0884  -24.9835   16.2675 H         1 UNK         0.0697 
    123 H123      -46.7414  -27.1149   14.0919 H         1 UNK         0.0825 
    124 H124      -46.0115  -27.1616   15.6903 H         1 UNK         0.0825 
    125 H125      -45.5443  -25.9059   14.5551 H         1 UNK         0.0825 
    126 H126      -47.5272  -24.7703   13.4985 H         1 UNK         0.3029 
    127 H127      -50.2385  -22.3854   13.6187 H         1 UNK         0.0897 
    128 H128      -48.6039  -21.2240   12.1466 H         1 UNK         0.0792 
    129 H129      -48.0812  -21.1563   13.8229 H         1 UNK         0.0792 
    130 H130      -47.3108  -22.2788   12.7114 H         1 UNK         0.0792 
    131 H131      -49.0407  -23.5621   11.3618 H         1 UNK         0.3086 
    132 H132      -51.1961  -26.4116   11.0442 H         1 UNK         0.0583 
    133 H133      -50.9236  -23.6828    9.6799 H         1 UNK         0.1020 
    134 H134      -50.9897  -25.1288    8.7347 H         1 UNK         0.1020 
    135 H135      -54.6734  -25.7409    8.3570 H         1 UNK         0.0694 
    136 H136      -53.1817  -25.3851    7.5242 H         1 UNK         0.0694 
    137 H137      -48.8230  -25.5859    9.6730 H         1 UNK         0.2989 
    138 H138      -46.4884  -27.3487   11.6562 H         1 UNK         0.1055 
    139 H139      -47.4352  -29.1461   10.1781 H         1 UNK         0.0806 
    140 H140      -45.9315  -28.4892    9.5509 H         1 UNK         0.0806 
    141 H141      -47.4642  -28.0157    8.8312 H         1 UNK         0.0806 
    142 H142      -46.4239  -25.8370    9.1683 H         1 UNK         0.3061 
    143 H143      -45.8286  -22.6785   10.7303 H         1 UNK         0.0734 
    144 H144      -43.7421  -22.7365    9.3867 H         1 UNK         0.0832 
    145 H145      -43.5745  -23.7602   10.8025 H         1 UNK         0.0832 
    146 H146      -43.8585  -24.4904    9.2288 H         1 UNK         0.0832 
    147 H147      -45.7820  -23.4793    7.9975 H         1 UNK         0.3156 
    148 H148      -49.1922  -23.8139    7.3778 H         1 UNK         0.0589 
    149 H149      -47.6866  -21.2443    6.6600 H         1 UNK         0.0808 
    150 H150      -49.1382  -21.8607    5.8677 H         1 UNK         0.0808 
    151 H151      -49.2111  -21.3144    7.5327 H         1 UNK         0.0808 
    152 H152      -47.3083  -23.4311    5.4154 H         1 UNK         0.3098 
    153 H153      -46.9170  -25.6598    4.2498 H         1 UNK         0.0720 
    154 H154      -44.4933  -25.1540    3.8687 H         1 UNK         0.0791 
    155 H155      -44.3029  -24.7620    5.5757 H         1 UNK         0.0791 
    156 H156      -45.3289  -23.7748    4.5440 H         1 UNK         0.0791 
    157 H157      -44.7176  -27.1408    5.3035 H         1 UNK         0.3028 
@<TRIPOS>BOND
     1    1    2 1    
     2    1   82 1    
     3    1   83 1    
     4    1   84 1    
     5    2    3 2    
     6    2    4 am   BACKBONE|DICT|INTERRES
     7    4    5 1    
     8    4   85 1    
     9    5    6 1    
    10    5   80 1    
    11    5   86 1    
    12    6    7 1    
    13    6   87 1    
    14    6   88 1    
    15    7    8 1    
    16    8    9 1    
    17    8   89 1    
    18    8   90 1    
    19    9   10 ar   
    20    9   14 ar   
    21   10   11 ar   
    22   10   91 1    
    23   11   12 ar   
    24   11   58 1    
    25   12   13 ar   
    26   12   92 1    
    27   13   14 ar   
    28   13   15 1    
    29   14   93 1    
    30   15   16 1    
    31   15   94 1    
    32   15   95 1    
    33   16   17 1    
    34   17   18 1    
    35   17   96 1    
    36   17   97 1    
    37   18   19 1    
    38   18   22 1    
    39   18   98 1    
    40   19   20 am   BACKBONE|DICT|INTERRES
    41   19   21 2    
    42   20   99 1    
    43   20  100 1    
    44   22   23 am   BACKBONE|DICT|INTERRES
    45   22  101 1    
    46   23   24 2    
    47   23   25 1    
    48   25   26 1    
    49   25   27 1    
    50   25  102 1    
    51   26  103 1    
    52   26  104 1    
    53   26  105 1    
    54   27   28 am   BACKBONE|DICT|INTERRES
    55   27  106 1    
    56   28   29 2    
    57   28   30 1    
    58   30   31 1    
    59   30   32 1    
    60   30  107 1    
    61   31  108 1    
    62   31  109 1    
    63   31  110 1    
    64   32   33 am   BACKBONE|DICT|INTERRES
    65   32  111 1    
    66   33   34 2    
    67   33   35 1    
    68   35   36 1    
    69   35   37 1    
    70   35  112 1    
    71   36  113 1    
    72   36  114 1    
    73   36  115 1    
    74   37   38 am   BACKBONE|DICT|INTERRES
    75   37  116 1    
    76   38   39 2    
    77   38   40 1    
    78   40   41 1    
    79   40   42 1    
    80   40  117 1    
    81   41  118 1    
    82   41  119 1    
    83   41  120 1    
    84   42   43 am   BACKBONE|DICT|INTERRES
    85   42  121 1    
    86   43   44 2    
    87   43   45 1    
    88   45   46 1    
    89   45   47 1    
    90   45  122 1    
    91   46  123 1    
    92   46  124 1    
    93   46  125 1    
    94   47   48 am   BACKBONE|DICT|INTERRES
    95   47  126 1    
    96   48   49 2    
    97   48   50 1    
    98   50   51 1    
    99   50   52 1    
   100   50  127 1    
   101   51  128 1    
   102   51  129 1    
   103   51  130 1    
   104   52   53 am   BACKBONE|DICT|INTERRES
   105   52  131 1    
   106   53   54 2    
   107   53   55 1    
   108   55   56 1    
   109   55   59 1    
   110   55  132 1    
   111   56   57 1    
   112   56  133 1    
   113   56  134 1    
   114   57   58 1    
   115   58  135 1    
   116   58  136 1    
   117   59   60 am   BACKBONE|DICT|INTERRES
   118   59  137 1    
   119   60   61 2    
   120   60   62 1    
   121   62   63 1    
   122   62   64 1    
   123   62  138 1    
   124   63  139 1    
   125   63  140 1    
   126   63  141 1    
   127   64   65 am   BACKBONE|DICT|INTERRES
   128   64  142 1    
   129   65   66 2    
   130   65   67 1    
   131   67   68 1    
   132   67   69 1    
   133   67  143 1    
   134   68  144 1    
   135   68  145 1    
   136   68  146 1    
   137   69   70 am   BACKBONE|DICT|INTERRES
   138   69  147 1    
   139   70   71 2    
   140   70   72 1    
   141   72   73 1    
   142   72   74 1    
   143   72  148 1    
   144   73  149 1    
   145   73  150 1    
   146   73  151 1    
   147   74   75 am   BACKBONE|DICT|INTERRES
   148   74  152 1    
   149   75   76 2    
   150   75   77 1    
   151   77   78 1    
   152   77   79 1    
   153   77  153 1    
   154   78  154 1    
   155   78  155 1    
   156   78  156 1    
   157   79   80 am   BACKBONE|DICT|INTERRES
   158   79  157 1    
   159   80   81 2    
@<TRIPOS>SUBSTRUCTURE
     1 UNK         1 GROUP             0       ****    0 ROOT    
