@<TRIPOS>MOLECULE
3R207
157   159    1
SMALL
USER_CHARGES


@<TRIPOS>ATOM
      1 CA        -46.4807  -24.6603    2.6763 C.3       0 UNK        -0.1975 
      2 C         -47.2365  -25.1058    3.9185 C.2       0 UNK         0.4852 
      3 O         -46.8320  -24.7690    5.0324 O.2       0 UNK        -0.5216 
      4 N         -48.3224  -25.8737    3.7398 N.am      1 UNK        -0.4461 
      5 CA        -49.1979  -26.3706    4.8119 C.3       1 UNK         0.0864 
      6 C6        -50.4404  -27.1098    4.2464 C.3       14 UNK        -0.0898 
      7 S7        -51.9514  -26.8144    5.2228 S.3       14 UNK        -0.2598 
      8 C8        -51.9224  -28.2279    6.3752 C.3       14 UNK         0.0286 
      9 C9        -53.1794  -28.3277    7.2328 C.ar      14 UNK        -0.0844 
     10 C10       -53.7062  -27.2054    7.8808 C.ar      14 UNK        -0.0881 
     11 C11       -54.8392  -27.3145    8.6931 C.ar      14 UNK        -0.0643 
     12 C12       -55.4518  -28.5621    8.8540 C.ar      14 UNK        -0.0930 
     13 C13       -54.9288  -29.6945    8.2210 C.ar      14 UNK        -0.0827 
     14 C14       -53.7967  -29.5680    7.4105 C.ar      14 UNK        -0.1249 
     15 C15       -55.5633  -31.0668    8.4164 C.3       14 UNK         0.0141 
     16 S16       -55.5301  -31.6587   10.1443 S.3       14 UNK        -0.2313 
     17 C17       -53.8306  -31.2769   10.7128 C.3       14 UNK        -0.0915 
     18 CA        -53.7883  -30.6940   12.1539 C.3       13 UNK         0.0968 
     19 C         -52.3513  -30.2437   12.5506 C.2       13 UNK         0.5732 
     20 N         -52.1588  -29.0739   13.1487 N.am      13 UNK        -0.7310 
     21 O         -51.3894  -30.9701   12.3127 O.2       13 UNK        -0.5035 
     22 N         -54.7929  -29.6381   12.3598 N.am      13 UNK        -0.4233 
     23 C         -55.5849  -29.5416   13.4313 C.2       13 UNK         0.4989 
     24 O         -55.6189  -30.3591   14.3545 O.2       13 UNK        -0.4996 
     25 CA        -56.4944  -28.3035   13.4897 C.3       12 UNK         0.0216 
     26 CB        -57.9764  -28.7076   13.4196 C.3       12 UNK        -0.1964 
     27 N         -56.2580  -27.5069   14.6967 N.am      12 UNK        -0.4276 
     28 C         -55.0761  -26.9923   15.0625 C.2       12 UNK         0.5020 
     29 O         -54.0338  -27.1135   14.4112 O.2       12 UNK        -0.5489 
     30 CA        -55.0499  -26.2432   16.3989 C.3       11 UNK         0.0294 
     31 CB        -55.0017  -27.2436   17.5719 C.3       11 UNK        -0.2019 
     32 N         -53.8697  -25.3869   16.4147 N.am      11 UNK        -0.4493 
     33 C         -53.5817  -24.4334   17.3078 C.2       11 UNK         0.4932 
     34 O         -54.3437  -24.0926   18.2147 O.2       11 UNK        -0.5029 
     35 CA        -52.1998  -23.7639   17.1634 C.3       10 UNK         0.0280 
     36 CB        -51.7576  -22.9911   18.4239 C.3       10 UNK        -0.1976 
     37 N         -51.1698  -24.7176   16.7343 N.am      10 UNK        -0.4242 
     38 C         -50.7468  -25.8156   17.3812 C.2       10 UNK         0.5072 
     39 O         -51.0894  -26.1257   18.5229 O.2       10 UNK        -0.5224 
     40 CA        -49.8052  -26.7547   16.6073 C.3       9 UNK         0.0343 
     41 CB        -50.6206  -27.8829   15.9587 C.3       9 UNK        -0.2003 
     42 N         -49.0314  -26.0637   15.5725 N.am      9 UNK        -0.4272 
     43 C         -47.9748  -25.2786   15.8289 C.2       9 UNK         0.4988 
     44 O         -47.4921  -25.1224   16.9513 O.2       9 UNK        -0.5108 
     45 CA        -47.3686  -24.5173   14.6383 C.3       8 UNK         0.0248 
     46 CB        -46.4741  -25.4414   13.7970 C.3       8 UNK        -0.2001 
     47 N         -48.3844  -23.8969   13.7842 N.am      8 UNK        -0.4140 
     48 C         -49.2293  -22.9308   14.1747 C.2       8 UNK         0.5028 
     49 O         -49.2306  -22.4286   15.2983 O.2       8 UNK        -0.5428 
     50 CA        -50.2652  -22.4547   13.1462 C.3       7 UNK         0.0264 
     51 CB        -49.6646  -21.3781   12.2284 C.3       7 UNK        -0.1988 
     52 N         -50.7874  -23.5569   12.3377 N.am      7 UNK        -0.4454 
     53 C         -51.6723  -24.4648   12.7758 C.2       7 UNK         0.5027 
     54 O         -52.1475  -24.4594   13.9116 O.2       7 UNK        -0.5083 
     55 CA        -52.0660  -25.5755   11.7783 C.3       6 UNK         0.0844 
     56 C56       -53.1490  -25.0818   10.7747 C.3       14 UNK        -0.0967 
     57 S57       -54.7709  -25.8617   11.0661 S.3       14 UNK        -0.2604 
     58 C58       -55.4161  -26.0826    9.3769 C.3       14 UNK         0.0134 
     59 N         -50.8952  -26.1309   11.0926 N.am      6 UNK        -0.4116 
     60 C         -49.8761  -26.7624   11.6917 C.2       5 UNK         0.5034 
     61 O         -49.8107  -26.9843   12.9016 O.2       5 UNK        -0.5045 
     62 CA        -48.7072  -27.1824   10.7873 C.3       5 UNK         0.0224 
     63 CB        -48.9731  -28.5683   10.1811 C.3       5 UNK        -0.1978 
     64 N         -48.3876  -26.2279    9.7171 N.am      5 UNK        -0.4737 
     65 C         -48.0846  -24.9336    9.8926 C.2       4 UNK         0.5027 
     66 O         -48.1461  -24.3626   10.9828 O.2       4 UNK        -0.5211 
     67 CA        -47.6421  -24.1556    8.6377 C.3       4 UNK         0.0297 
     68 CB        -47.2663  -22.6912    8.9436 C.3       4 UNK        -0.1993 
     69 N         -46.5535  -24.8184    7.9101 N.am      4 UNK        -0.4486 
     70 C         -45.3607  -25.2097    8.3861 C.2       3 UNK         0.4961 
     71 O         -44.9746  -25.0233    9.5415 O.2       3 UNK        -0.5105 
     72 CA        -44.4513  -25.9367    7.3757 C.3       3 UNK         0.0299 
     73 CB        -43.1513  -26.4869    8.0020 C.3       3 UNK        -0.1972 
     74 N         -45.1765  -26.9801    6.6397 N.am      3 UNK        -0.4305 
     75 C         -45.7416  -28.0918    7.1390 C.2       2 UNK         0.5006 
     76 O         -45.6385  -28.4590    8.3102 O.2       2 UNK        -0.5106 
     77 CA        -46.5893  -28.9102    6.1413 C.3       2 UNK         0.0296 
     78 CB        -47.3560  -30.0785    6.7975 C.3       2 UNK        -0.2002 
     79 N         -47.5055  -28.0668    5.3610 N.am      2 UNK        -0.4032 
     80 C         -48.4482  -27.2393    5.8444 C.2       1 UNK         0.5000 
     81 O         -48.7017  -27.1039    7.0418 O.2       1 UNK        -0.5238 
     82 H82       -46.4596  -23.5722    2.6227 H         1 UNK         0.0889 
     83 H83       -46.9393  -25.0363    1.7620 H         1 UNK         0.0889 
     84 H84       -45.4527  -25.0194    2.7137 H         1 UNK         0.0889 
     85 H85       -48.5998  -26.1156    2.7987 H         1 UNK         0.3028 
     86 H86       -49.5376  -25.4791    5.3443 H         1 UNK         0.0864 
     87 H87       -50.6676  -26.7436    3.2438 H         1 UNK         0.0720 
     88 H88       -50.2674  -28.1813    4.1252 H         1 UNK         0.0720 
     89 H89       -51.7815  -29.1445    5.8004 H         1 UNK         0.0814 
     90 H90       -51.0646  -28.1425    7.0410 H         1 UNK         0.0814 
     91 H91       -53.2348  -26.2431    7.7424 H         1 UNK         0.1469 
     92 H92       -56.3287  -28.6561    9.4801 H         1 UNK         0.1381 
     93 H93       -53.3860  -30.4435    6.9260 H         1 UNK         0.1206 
     94 H94       -56.5993  -31.0312    8.0773 H         1 UNK         0.0813 
     95 H95       -55.0669  -31.8115    7.7923 H         1 UNK         0.0813 
     96 H96       -53.2513  -32.2004   10.6657 H         1 UNK         0.0638 
     97 H97       -53.3407  -30.5899   10.0243 H         1 UNK         0.0638 
     98 H98       -54.0151  -31.5245   12.8243 H         1 UNK         0.0568 
     99 H99       -51.2186  -28.7781   13.3613 H         1 UNK         0.3450 
    100 H100      -52.9379  -28.4807   13.4155 H         1 UNK         0.3450 
    101 H101      -54.8001  -28.9024   11.6686 H         1 UNK         0.2987 
    102 H102      -56.2836  -27.6675   12.6307 H         1 UNK         0.0766 
    103 H103      -58.6267  -27.8333   13.3875 H         1 UNK         0.0798 
    104 H104      -58.2707  -29.3161   14.2759 H         1 UNK         0.0798 
    105 H105      -58.1773  -29.2924   12.5207 H         1 UNK         0.0798 
    106 H106      -57.0477  -27.3856   15.3139 H         1 UNK         0.3198 
    107 H107      -55.9417  -25.6176   16.4735 H         1 UNK         0.0843 
    108 H108      -54.0983  -27.8544   17.5372 H         1 UNK         0.0831 
    109 H109      -55.8553  -27.9222   17.5495 H         1 UNK         0.0831 
    110 H110      -55.0232  -26.7360   18.5361 H         1 UNK         0.0831 
    111 H111      -53.2324  -25.5570   15.6407 H         1 UNK         0.3133 
    112 H112      -52.2953  -23.0404   16.3525 H         1 UNK         0.0566 
    113 H113      -50.7787  -22.5329   18.2821 H         1 UNK         0.0814 
    114 H114      -52.4599  -22.1896   18.6558 H         1 UNK         0.0814 
    115 H115      -51.7033  -23.6379   19.2999 H         1 UNK         0.0814 
    116 H116      -50.8517  -24.5897   15.7824 H         1 UNK         0.3091 
    117 H117      -49.1116  -27.2011   17.3231 H         1 UNK         0.0702 
    118 H118      -51.1653  -28.4559   16.7102 H         1 UNK         0.0785 
    119 H119      -51.3564  -27.4848   15.2591 H         1 UNK         0.0785 
    120 H120      -49.9799  -28.5795   15.4177 H         1 UNK         0.0785 
    121 H121      -49.3330  -26.1960   14.6101 H         1 UNK         0.2998 
    122 H122      -46.7452  -23.7149   15.0381 H         1 UNK         0.0697 
    123 H123      -47.0331  -26.2867   13.3971 H         1 UNK         0.0825 
    124 H124      -45.6587  -25.8460   14.3978 H         1 UNK         0.0825 
    125 H125      -46.0268  -24.9087   12.9570 H         1 UNK         0.0825 
    126 H126      -48.4087  -24.1944   12.8102 H         1 UNK         0.3029 
    127 H127      -51.0975  -22.0072   13.6946 H         1 UNK         0.0897 
    128 H128      -50.3991  -21.0097   11.5121 H         1 UNK         0.0792 
    129 H129      -48.8074  -21.7550   11.6698 H         1 UNK         0.0792 
    130 H130      -49.3209  -20.5213   12.8096 H         1 UNK         0.0792 
    131 H131      -50.3773  -23.6781   11.4220 H         1 UNK         0.3086 
    132 H132      -52.4746  -26.3925   12.3744 H         1 UNK         0.0583 
    133 H133      -53.2917  -23.9993   10.8097 H         1 UNK         0.1020 
    134 H134      -52.8430  -25.2825    9.7499 H         1 UNK         0.1020 
    135 H135      -56.5020  -26.1731    9.4309 H         1 UNK         0.0694 
    136 H136      -55.2190  -25.1862    8.7867 H         1 UNK         0.0694 
    137 H137      -50.8424  -26.0028   10.0937 H         1 UNK         0.2989 
    138 H138      -47.8226  -27.2581   11.4211 H         1 UNK         0.1055 
    139 H139      -49.2640  -29.2868   10.9494 H         1 UNK         0.0806 
    140 H140      -48.0766  -28.9584    9.7003 H         1 UNK         0.0806 
    141 H141      -49.7713  -28.5408    9.4383 H         1 UNK         0.0806 
    142 H142      -48.3524  -26.6031    8.7692 H         1 UNK         0.3061 
    143 H143      -48.4990  -24.1451    7.9625 H         1 UNK         0.0734 
    144 H144      -48.1130  -22.1528    9.3698 H         1 UNK         0.0832 
    145 H145      -46.4444  -22.6260    9.6576 H         1 UNK         0.0832 
    146 H146      -46.9689  -22.1604    8.0393 H         1 UNK         0.0832 
    147 H147      -46.7345  -24.9847    6.9222 H         1 UNK         0.3156 
    148 H148      -44.1639  -25.1884    6.6354 H         1 UNK         0.0589 
    149 H149      -43.3534  -27.2012    8.8007 H         1 UNK         0.0808 
    150 H150      -42.5300  -26.9830    7.2566 H         1 UNK         0.0808 
    151 H151      -42.5575  -25.6806    8.4341 H         1 UNK         0.0808 
    152 H152      -45.3594  -26.7638    5.6697 H         1 UNK         0.3098 
    153 H153      -45.8821  -29.3427    5.4319 H         1 UNK         0.0720 
    154 H154      -47.8570  -30.6904    6.0475 H         1 UNK         0.0791 
    155 H155      -48.1139  -29.7260    7.4960 H         1 UNK         0.0791 
    156 H156      -46.6805  -30.7333    7.3493 H         1 UNK         0.0791 
    157 H157      -47.3717  -28.0839    4.3594 H         1 UNK         0.3028 
@<TRIPOS>BOND
     1    1    2 1    
     2    1   82 1    
     3    1   83 1    
     4    1   84 1    
     5    2    3 2    
     6    2    4 am   BACKBONE|DICT|INTERRES
     7    4    5 1    
     8    4   85 1    
     9    5    6 1    
    10    5   80 1    
    11    5   86 1    
    12    6    7 1    
    13    6   87 1    
    14    6   88 1    
    15    7    8 1    
    16    8    9 1    
    17    8   89 1    
    18    8   90 1    
    19    9   10 ar   
    20    9   14 ar   
    21   10   11 ar   
    22   10   91 1    
    23   11   12 ar   
    24   11   58 1    
    25   12   13 ar   
    26   12   92 1    
    27   13   14 ar   
    28   13   15 1    
    29   14   93 1    
    30   15   16 1    
    31   15   94 1    
    32   15   95 1    
    33   16   17 1    
    34   17   18 1    
    35   17   96 1    
    36   17   97 1    
    37   18   19 1    
    38   18   22 1    
    39   18   98 1    
    40   19   20 am   BACKBONE|DICT|INTERRES
    41   19   21 2    
    42   20   99 1    
    43   20  100 1    
    44   22   23 am   BACKBONE|DICT|INTERRES
    45   22  101 1    
    46   23   24 2    
    47   23   25 1    
    48   25   26 1    
    49   25   27 1    
    50   25  102 1    
    51   26  103 1    
    52   26  104 1    
    53   26  105 1    
    54   27   28 am   BACKBONE|DICT|INTERRES
    55   27  106 1    
    56   28   29 2    
    57   28   30 1    
    58   30   31 1    
    59   30   32 1    
    60   30  107 1    
    61   31  108 1    
    62   31  109 1    
    63   31  110 1    
    64   32   33 am   BACKBONE|DICT|INTERRES
    65   32  111 1    
    66   33   34 2    
    67   33   35 1    
    68   35   36 1    
    69   35   37 1    
    70   35  112 1    
    71   36  113 1    
    72   36  114 1    
    73   36  115 1    
    74   37   38 am   BACKBONE|DICT|INTERRES
    75   37  116 1    
    76   38   39 2    
    77   38   40 1    
    78   40   41 1    
    79   40   42 1    
    80   40  117 1    
    81   41  118 1    
    82   41  119 1    
    83   41  120 1    
    84   42   43 am   BACKBONE|DICT|INTERRES
    85   42  121 1    
    86   43   44 2    
    87   43   45 1    
    88   45   46 1    
    89   45   47 1    
    90   45  122 1    
    91   46  123 1    
    92   46  124 1    
    93   46  125 1    
    94   47   48 am   BACKBONE|DICT|INTERRES
    95   47  126 1    
    96   48   49 2    
    97   48   50 1    
    98   50   51 1    
    99   50   52 1    
   100   50  127 1    
   101   51  128 1    
   102   51  129 1    
   103   51  130 1    
   104   52   53 am   BACKBONE|DICT|INTERRES
   105   52  131 1    
   106   53   54 2    
   107   53   55 1    
   108   55   56 1    
   109   55   59 1    
   110   55  132 1    
   111   56   57 1    
   112   56  133 1    
   113   56  134 1    
   114   57   58 1    
   115   58  135 1    
   116   58  136 1    
   117   59   60 am   BACKBONE|DICT|INTERRES
   118   59  137 1    
   119   60   61 2    
   120   60   62 1    
   121   62   63 1    
   122   62   64 1    
   123   62  138 1    
   124   63  139 1    
   125   63  140 1    
   126   63  141 1    
   127   64   65 am   BACKBONE|DICT|INTERRES
   128   64  142 1    
   129   65   66 2    
   130   65   67 1    
   131   67   68 1    
   132   67   69 1    
   133   67  143 1    
   134   68  144 1    
   135   68  145 1    
   136   68  146 1    
   137   69   70 am   BACKBONE|DICT|INTERRES
   138   69  147 1    
   139   70   71 2    
   140   70   72 1    
   141   72   73 1    
   142   72   74 1    
   143   72  148 1    
   144   73  149 1    
   145   73  150 1    
   146   73  151 1    
   147   74   75 am   BACKBONE|DICT|INTERRES
   148   74  152 1    
   149   75   76 2    
   150   75   77 1    
   151   77   78 1    
   152   77   79 1    
   153   77  153 1    
   154   78  154 1    
   155   78  155 1    
   156   78  156 1    
   157   79   80 am   BACKBONE|DICT|INTERRES
   158   79  157 1    
   159   80   81 2    
@<TRIPOS>SUBSTRUCTURE
     1 UNK         1 GROUP             0       ****    0 ROOT    
