@<TRIPOS>MOLECULE
3R207
157   159    1
SMALL
USER_CHARGES


@<TRIPOS>ATOM
      1 CA        -49.4424  -29.9449    8.5252 C.3       0 UNK        -0.1975 
      2 C         -49.3368  -29.5050    7.0742 C.2       0 UNK         0.4852 
      3 O         -48.3379  -29.7912    6.4144 O.2       0 UNK        -0.5216 
      4 N         -50.3637  -28.8070    6.5765 N.am      1 UNK        -0.4461 
      5 CA        -50.4757  -28.3531    5.1825 C.3       1 UNK         0.0864 
      6 C6        -51.9345  -28.4450    4.6599 C.3       14 UNK        -0.0898 
      7 S7        -52.6186  -30.1384    4.7686 S.3       14 UNK        -0.2598 
      8 C8        -54.0123  -29.9430    5.9283 C.3       14 UNK         0.0286 
      9 C9        -53.5428  -29.7011    7.3558 C.ar      14 UNK        -0.0844 
     10 C10       -53.4197  -28.3961    7.8393 C.ar      14 UNK        -0.0881 
     11 C11       -52.9587  -28.1626    9.1357 C.ar      14 UNK        -0.0643 
     12 C12       -52.6492  -29.2414    9.9644 C.ar      14 UNK        -0.0930 
     13 C13       -52.7929  -30.5527    9.5038 C.ar      14 UNK        -0.0827 
     14 C14       -53.2340  -30.7778    8.1948 C.ar      14 UNK        -0.1249 
     15 C15       -52.4627  -31.7183   10.4249 C.3       14 UNK         0.0141 
     16 S16       -53.5276  -31.7396   11.9032 S.3       14 UNK        -0.2313 
     17 C17       -55.1618  -32.0795   11.1676 C.3       14 UNK        -0.0915 
     18 CA        -55.9922  -30.8002   10.8764 C.3       13 UNK         0.0968 
     19 C         -57.3427  -31.1895   10.2147 C.2       13 UNK         0.5732 
     20 N         -57.3991  -31.2171    8.8900 N.am      13 UNK        -0.7310 
     21 O         -58.3185  -31.5121   10.8906 O.2       13 UNK        -0.5035 
     22 N         -56.1419  -29.9650   12.0781 N.am      13 UNK        -0.4233 
     23 C         -56.7841  -28.7907   12.1390 C.2       13 UNK         0.4989 
     24 O         -57.3178  -28.2377   11.1764 O.2       13 UNK        -0.4996 
     25 CA        -56.8328  -28.1066   13.5155 C.3       12 UNK         0.0216 
     26 CB        -57.9696  -28.6909   14.3711 C.3       12 UNK        -0.1964 
     27 N         -55.5678  -28.1888   14.2533 N.am      12 UNK        -0.4276 
     28 C         -54.4546  -27.5258   13.9123 C.2       12 UNK         0.5020 
     29 O         -54.3587  -26.8122   12.9118 O.2       12 UNK        -0.5489 
     30 CA        -53.2410  -27.6943   14.8459 C.3       11 UNK         0.0294 
     31 CB        -52.3237  -28.8154   14.3307 C.3       11 UNK        -0.2019 
     32 N         -52.4602  -26.4593   14.9675 N.am      11 UNK        -0.4493 
     33 C         -52.9191  -25.3022   15.4608 C.2       11 UNK         0.4932 
     34 O         -54.0390  -25.1615   15.9612 O.2       11 UNK        -0.5029 
     35 CA        -51.9667  -24.1010   15.3602 C.3       10 UNK         0.0280 
     36 CB        -51.8387  -23.6410   13.8952 C.3       10 UNK        -0.1976 
     37 N         -52.5133  -22.9912   16.1415 N.am      10 UNK        -0.4242 
     38 C         -51.9555  -22.2432   17.1059 C.2       10 UNK         0.5072 
     39 O         -52.6258  -21.4050   17.7078 O.2       10 UNK        -0.5224 
     40 CA        -50.4733  -22.3991   17.5189 C.3       9 UNK         0.0343 
     41 CB        -50.2999  -23.5659   18.5066 C.3       9 UNK        -0.2003 
     42 N         -49.4980  -22.5264   16.4360 N.am      9 UNK        -0.4272 
     43 C         -49.2987  -21.6871   15.4158 C.2       9 UNK         0.4988 
     44 O         -49.9319  -20.6424   15.2610 O.2       9 UNK        -0.5108 
     45 CA        -48.2139  -22.0569   14.3787 C.3       8 UNK         0.0248 
     46 CB        -46.9185  -21.2694   14.6527 C.3       8 UNK        -0.2001 
     47 N         -47.9100  -23.4889   14.1896 N.am      8 UNK        -0.4140 
     48 C         -47.4393  -24.3837   15.0744 C.2       8 UNK         0.5028 
     49 O         -47.2833  -24.1388   16.2714 O.2       8 UNK        -0.5428 
     50 CA        -47.0481  -25.7763   14.5475 C.3       7 UNK         0.0264 
     51 CB        -47.1941  -26.8852   15.6131 C.3       7 UNK        -0.1988 
     52 N         -47.6959  -26.1515   13.2870 N.am      7 UNK        -0.4454 
     53 C         -48.9717  -26.5150   13.0771 C.2       7 UNK         0.5027 
     54 O         -49.8277  -26.5307   13.9620 O.2       7 UNK        -0.5083 
     55 CA        -49.3832  -26.9099   11.6343 C.3       6 UNK         0.0844 
     56 C56       -50.4783  -25.9357   11.1257 C.3       14 UNK        -0.0967 
     57 S57       -51.0388  -26.2369    9.4153 S.3       14 UNK        -0.2604 
     58 C58       -52.7703  -26.7439    9.6321 C.3       14 UNK         0.0134 
     59 N         -48.2312  -26.9983   10.7253 N.am      6 UNK        -0.4116 
     60 C         -47.2720  -27.9364   10.7650 C.2       5 UNK         0.5034 
     61 O         -47.3268  -28.9406   11.4739 O.2       5 UNK        -0.5045 
     62 CA        -46.0015  -27.6723    9.9372 C.3       5 UNK         0.0224 
     63 CB        -46.0779  -28.3327    8.5533 C.3       5 UNK        -0.1978 
     64 N         -45.7386  -26.2399    9.7763 N.am      5 UNK        -0.4737 
     65 C         -45.1869  -25.4564   10.7118 C.2       4 UNK         0.5027 
     66 O         -44.7988  -25.8704   11.8031 O.2       4 UNK        -0.5211 
     67 CA        -45.0869  -23.9543   10.3935 C.3       4 UNK         0.0297 
     68 CB        -43.7995  -23.6543    9.6099 C.3       4 UNK        -0.1993 
     69 N         -46.2434  -23.4494    9.6483 N.am      4 UNK        -0.4486 
     70 C         -47.4808  -23.3511   10.1524 C.2       3 UNK         0.4961 
     71 O         -47.7739  -23.6443   11.3125 O.2       3 UNK        -0.5105 
     72 CA        -48.5895  -22.8801    9.1927 C.3       3 UNK         0.0299 
     73 CB        -48.6471  -21.3447    9.1639 C.3       3 UNK        -0.1972 
     74 N         -48.5192  -23.3978    7.8159 N.am      3 UNK        -0.4305 
     75 C         -48.3845  -24.6860    7.4695 C.2       2 UNK         0.5006 
     76 O         -48.0942  -25.5855    8.2585 O.2       2 UNK        -0.5106 
     77 CA        -48.5978  -25.0519    5.9996 C.3       2 UNK         0.0296 
     78 CB        -47.2595  -25.0566    5.2389 C.3       2 UNK        -0.2002 
     79 N         -49.2054  -26.3809    5.9768 N.am      2 UNK        -0.4032 
     80 C         -49.8753  -26.9420    4.9628 C.2       1 UNK         0.5000 
     81 O         -50.0316  -26.3843    3.8743 O.2       1 UNK        -0.5238 
     82 H82       -49.8747  -29.1590    9.1440 H         1 UNK         0.0889 
     83 H83       -50.0686  -30.8327    8.5994 H         1 UNK         0.0889 
     84 H84       -48.4628  -30.1920    8.9309 H         1 UNK         0.0889 
     85 H85       -51.1694  -28.6277    7.1622 H         1 UNK         0.3028 
     86 H86       -49.8788  -29.0185    4.5549 H         1 UNK         0.0864 
     87 H87       -52.5803  -27.7408    5.1840 H         1 UNK         0.0720 
     88 H88       -51.9778  -28.1569    3.6079 H         1 UNK         0.0720 
     89 H89       -54.6231  -30.8463    5.8947 H         1 UNK         0.0814 
     90 H90       -54.6582  -29.1307    5.5911 H         1 UNK         0.0814 
     91 H91       -53.6668  -27.5573    7.2033 H         1 UNK         0.1469 
     92 H92       -52.2971  -29.0597   10.9702 H         1 UNK         0.1381 
     93 H93       -53.3345  -31.7893    7.8255 H         1 UNK         0.1206 
     94 H94       -52.5499  -32.6717    9.9015 H         1 UNK         0.0813 
     95 H95       -51.4225  -31.6358   10.7425 H         1 UNK         0.0813 
     96 H96       -55.7026  -32.7314   11.8562 H         1 UNK         0.0638 
     97 H97       -55.0195  -32.6597   10.2539 H         1 UNK         0.0638 
     98 H98       -55.4450  -30.1904   10.1568 H         1 UNK         0.0568 
     99 H99       -58.2613  -31.4843    8.4418 H         1 UNK         0.3450 
    100 H100      -56.5993  -30.9649    8.3313 H         1 UNK         0.3450 
    101 H101      -55.7300  -30.3357   12.9200 H         1 UNK         0.2987 
    102 H102      -57.0506  -27.0495   13.3465 H         1 UNK         0.0766 
    103 H103      -58.9246  -28.6228   13.8479 H         1 UNK         0.0798 
    104 H104      -57.8029  -29.7428   14.6065 H         1 UNK         0.0798 
    105 H105      -58.0786  -28.1487   15.3106 H         1 UNK         0.0798 
    106 H106      -55.5634  -28.7541   15.0906 H         1 UNK         0.3198 
    107 H107      -53.5963  -27.9599   15.8437 H         1 UNK         0.0843 
    108 H108      -52.8606  -29.7619   14.2593 H         1 UNK         0.0831 
    109 H109      -51.4755  -28.9731   14.9972 H         1 UNK         0.0831 
    110 H110      -51.9303  -28.5871   13.3396 H         1 UNK         0.0831 
    111 H111      -51.5184  -26.4807   14.5771 H         1 UNK         0.3133 
    112 H112      -50.9977  -24.4239   15.7358 H         1 UNK         0.0566 
    113 H113      -51.4422  -22.6303   13.8129 H         1 UNK         0.0814 
    114 H114      -51.1609  -24.2900   13.3475 H         1 UNK         0.0814 
    115 H115      -52.7994  -23.6537   13.3776 H         1 UNK         0.0814 
    116 H116      -53.5084  -22.8786   16.0049 H         1 UNK         0.3091 
    117 H117      -50.2052  -21.4846   18.0516 H         1 UNK         0.0702 
    118 H118      -49.2920  -23.5853   18.9219 H         1 UNK         0.0785 
    119 H119      -50.4841  -24.5318   18.0358 H         1 UNK         0.0785 
    120 H120      -50.9921  -23.4749   19.3448 H         1 UNK         0.0785 
    121 H121      -48.8448  -23.3048   16.5014 H         1 UNK         0.2998 
    122 H122      -48.5996  -21.7223   13.4142 H         1 UNK         0.0697 
    123 H123      -46.4595  -21.5614   15.5979 H         1 UNK         0.0825 
    124 H124      -47.1149  -20.1976   14.7043 H         1 UNK         0.0825 
    125 H125      -46.1860  -21.4258   13.8606 H         1 UNK         0.0825 
    126 H126      -47.9776  -23.7928   13.2206 H         1 UNK         0.3029 
    127 H127      -45.9854  -25.7015   14.3121 H         1 UNK         0.0897 
    128 H128      -46.9133  -27.8597   15.2137 H         1 UNK         0.0792 
    129 H129      -46.5485  -26.6906   16.4704 H         1 UNK         0.0792 
    130 H130      -48.2148  -26.9562   15.9898 H         1 UNK         0.0792 
    131 H131      -47.0850  -26.1300   12.4811 H         1 UNK         0.3086 
    132 H132      -49.8270  -27.9056   11.6951 H         1 UNK         0.0583 
    133 H133      -51.3408  -25.9744   11.7921 H         1 UNK         0.1020 
    134 H134      -50.1201  -24.9071   11.1712 H         1 UNK         0.1020 
    135 H135      -53.0851  -26.6734   10.6717 H         1 UNK         0.0694 
    136 H136      -53.4109  -26.0568    9.0773 H         1 UNK         0.0694 
    137 H137      -48.1524  -26.2652   10.0253 H         1 UNK         0.2989 
    138 H138      -45.1636  -28.1205   10.4766 H         1 UNK         0.1055 
    139 H139      -45.1569  -28.1793    7.9909 H         1 UNK         0.0806 
    140 H140      -46.8996  -27.9354    7.9581 H         1 UNK         0.0806 
    141 H141      -46.2234  -29.4097    8.6407 H         1 UNK         0.0806 
    142 H142      -46.1338  -25.8044    8.9512 H         1 UNK         0.3061 
    143 H143      -45.0398  -23.4185   11.3444 H         1 UNK         0.0734 
    144 H144      -42.9217  -24.0023   10.1563 H         1 UNK         0.0832 
    145 H145      -43.7928  -24.1463    8.6364 H         1 UNK         0.0832 
    146 H146      -43.6736  -22.5837    9.4474 H         1 UNK         0.0832 
    147 H147      -46.0979  -23.1944    8.6822 H         1 UNK         0.3156 
    148 H148      -49.5349  -23.2363    9.6046 H         1 UNK         0.0589 
    149 H149      -47.7573  -20.9153    8.7018 H         1 UNK         0.0808 
    150 H150      -49.5177  -20.9892    8.6125 H         1 UNK         0.0808 
    151 H151      -48.7192  -20.9369   10.1735 H         1 UNK         0.0808 
    152 H152      -48.7230  -22.7313    7.0848 H         1 UNK         0.3098 
    153 H153      -49.2853  -24.3351    5.5459 H         1 UNK         0.0720 
    154 H154      -47.3996  -25.3086    4.1877 H         1 UNK         0.0791 
    155 H155      -46.5591  -25.7769    5.6642 H         1 UNK         0.0791 
    156 H156      -46.7842  -24.0756    5.2747 H         1 UNK         0.0791 
    157 H157      -49.1373  -26.8764    6.8576 H         1 UNK         0.3028 
@<TRIPOS>BOND
     1    1    2 1    
     2    1   82 1    
     3    1   83 1    
     4    1   84 1    
     5    2    3 2    
     6    2    4 am   BACKBONE|DICT|INTERRES
     7    4    5 1    
     8    4   85 1    
     9    5    6 1    
    10    5   80 1    
    11    5   86 1    
    12    6    7 1    
    13    6   87 1    
    14    6   88 1    
    15    7    8 1    
    16    8    9 1    
    17    8   89 1    
    18    8   90 1    
    19    9   10 ar   
    20    9   14 ar   
    21   10   11 ar   
    22   10   91 1    
    23   11   12 ar   
    24   11   58 1    
    25   12   13 ar   
    26   12   92 1    
    27   13   14 ar   
    28   13   15 1    
    29   14   93 1    
    30   15   16 1    
    31   15   94 1    
    32   15   95 1    
    33   16   17 1    
    34   17   18 1    
    35   17   96 1    
    36   17   97 1    
    37   18   19 1    
    38   18   22 1    
    39   18   98 1    
    40   19   20 am   BACKBONE|DICT|INTERRES
    41   19   21 2    
    42   20   99 1    
    43   20  100 1    
    44   22   23 am   BACKBONE|DICT|INTERRES
    45   22  101 1    
    46   23   24 2    
    47   23   25 1    
    48   25   26 1    
    49   25   27 1    
    50   25  102 1    
    51   26  103 1    
    52   26  104 1    
    53   26  105 1    
    54   27   28 am   BACKBONE|DICT|INTERRES
    55   27  106 1    
    56   28   29 2    
    57   28   30 1    
    58   30   31 1    
    59   30   32 1    
    60   30  107 1    
    61   31  108 1    
    62   31  109 1    
    63   31  110 1    
    64   32   33 am   BACKBONE|DICT|INTERRES
    65   32  111 1    
    66   33   34 2    
    67   33   35 1    
    68   35   36 1    
    69   35   37 1    
    70   35  112 1    
    71   36  113 1    
    72   36  114 1    
    73   36  115 1    
    74   37   38 am   BACKBONE|DICT|INTERRES
    75   37  116 1    
    76   38   39 2    
    77   38   40 1    
    78   40   41 1    
    79   40   42 1    
    80   40  117 1    
    81   41  118 1    
    82   41  119 1    
    83   41  120 1    
    84   42   43 am   BACKBONE|DICT|INTERRES
    85   42  121 1    
    86   43   44 2    
    87   43   45 1    
    88   45   46 1    
    89   45   47 1    
    90   45  122 1    
    91   46  123 1    
    92   46  124 1    
    93   46  125 1    
    94   47   48 am   BACKBONE|DICT|INTERRES
    95   47  126 1    
    96   48   49 2    
    97   48   50 1    
    98   50   51 1    
    99   50   52 1    
   100   50  127 1    
   101   51  128 1    
   102   51  129 1    
   103   51  130 1    
   104   52   53 am   BACKBONE|DICT|INTERRES
   105   52  131 1    
   106   53   54 2    
   107   53   55 1    
   108   55   56 1    
   109   55   59 1    
   110   55  132 1    
   111   56   57 1    
   112   56  133 1    
   113   56  134 1    
   114   57   58 1    
   115   58  135 1    
   116   58  136 1    
   117   59   60 am   BACKBONE|DICT|INTERRES
   118   59  137 1    
   119   60   61 2    
   120   60   62 1    
   121   62   63 1    
   122   62   64 1    
   123   62  138 1    
   124   63  139 1    
   125   63  140 1    
   126   63  141 1    
   127   64   65 am   BACKBONE|DICT|INTERRES
   128   64  142 1    
   129   65   66 2    
   130   65   67 1    
   131   67   68 1    
   132   67   69 1    
   133   67  143 1    
   134   68  144 1    
   135   68  145 1    
   136   68  146 1    
   137   69   70 am   BACKBONE|DICT|INTERRES
   138   69  147 1    
   139   70   71 2    
   140   70   72 1    
   141   72   73 1    
   142   72   74 1    
   143   72  148 1    
   144   73  149 1    
   145   73  150 1    
   146   73  151 1    
   147   74   75 am   BACKBONE|DICT|INTERRES
   148   74  152 1    
   149   75   76 2    
   150   75   77 1    
   151   77   78 1    
   152   77   79 1    
   153   77  153 1    
   154   78  154 1    
   155   78  155 1    
   156   78  156 1    
   157   79   80 am   BACKBONE|DICT|INTERRES
   158   79  157 1    
   159   80   81 2    
@<TRIPOS>SUBSTRUCTURE
     1 UNK         1 GROUP             0       ****    0 ROOT    
