@<TRIPOS>MOLECULE
3R207
157   159    1
SMALL
USER_CHARGES


@<TRIPOS>ATOM
      1 CA        -46.9637  -27.1139    1.7792 C.3       0 UNK        -0.1975 
      2 C         -48.3633  -27.0125    2.3672 C.2       0 UNK         0.4852 
      3 O         -49.1802  -26.2367    1.8698 O.2       0 UNK        -0.5216 
      4 N         -48.6456  -27.7909    3.4216 N.am      1 UNK        -0.4461 
      5 CA        -49.9347  -27.8166    4.1252 C.3       1 UNK         0.0864 
      6 C6        -50.0367  -29.0563    5.0530 C.3       14 UNK        -0.0898 
      7 S7        -51.7597  -29.5096    5.4471 S.3       14 UNK        -0.2598 
      8 C8        -51.5433  -31.1565    6.1914 C.3       14 UNK         0.0286 
      9 C9        -51.0250  -31.0739    7.6203 C.ar      14 UNK        -0.0844 
     10 C10       -49.6507  -31.1045    7.8759 C.ar      14 UNK        -0.0881 
     11 C11       -49.1697  -31.0395    9.1870 C.ar      14 UNK        -0.0643 
     12 C12       -50.0782  -30.9713   10.2480 C.ar      14 UNK        -0.0930 
     13 C13       -51.4558  -30.9540   10.0080 C.ar      14 UNK        -0.0827 
     14 C14       -51.9224  -30.9940    8.6904 C.ar      14 UNK        -0.1249 
     15 C15       -52.4375  -30.9124   11.1716 C.3       14 UNK         0.0141 
     16 S16       -52.6215  -29.2234   11.8089 S.3       14 UNK        -0.2313 
     17 C17       -53.9272  -29.4163   13.0657 C.3       14 UNK        -0.0915 
     18 CA        -55.3121  -28.9300   12.5630 C.3       13 UNK         0.0968 
     19 C         -56.3974  -29.1367   13.6537 C.2       13 UNK         0.5732 
     20 N         -57.0025  -30.3155   13.7088 N.am      13 UNK        -0.7310 
     21 O         -56.6662  -28.2591   14.4725 O.2       13 UNK        -0.5035 
     22 N         -55.2540  -27.5445   12.0788 N.am      13 UNK        -0.4233 
     23 C         -56.1989  -26.9248   11.3670 C.2       13 UNK         0.4989 
     24 O         -57.2612  -27.4517   11.0300 O.2       13 UNK        -0.4996 
     25 CA        -55.8866  -25.4735   10.9467 C.3       12 UNK         0.0216 
     26 CB        -56.8711  -24.9405    9.8885 C.3       12 UNK        -0.1964 
     27 N         -55.8534  -24.5396   12.0765 N.am      12 UNK        -0.4276 
     28 C         -54.8839  -24.4735   12.9958 C.2       12 UNK         0.5020 
     29 O         -53.9251  -25.2498   13.0411 O.2       12 UNK        -0.5489 
     30 CA        -54.9933  -23.3545   14.0367 C.3       11 UNK         0.0294 
     31 CB        -55.9386  -23.7554   15.1832 C.3       11 UNK        -0.2019 
     32 N         -53.6532  -23.1168   14.5572 N.am      11 UNK        -0.4493 
     33 C         -53.1944  -22.0013   15.1357 C.2       11 UNK         0.4932 
     34 O         -53.8808  -20.9923   15.3035 O.2       11 UNK        -0.5029 
     35 CA        -51.7151  -22.0118   15.5874 C.3       10 UNK         0.0280 
     36 CB        -51.4516  -21.0786   16.7886 C.3       10 UNK        -0.1976 
     37 N         -51.1912  -23.3632   15.8374 N.am      10 UNK        -0.4242 
     38 C         -51.6255  -24.2314   16.7676 C.2       10 UNK         0.5072 
     39 O         -52.4862  -23.9701   17.6088 O.2       10 UNK        -0.5224 
     40 CA        -51.0403  -25.6508   16.7350 C.3       9 UNK         0.0343 
     41 CB        -52.0245  -26.6141   16.0471 C.3       9 UNK        -0.2003 
     42 N         -49.7551  -25.7293   16.0463 N.am      9 UNK        -0.4272 
     43 C         -48.5651  -25.4031   16.5696 C.2       9 UNK         0.4988 
     44 O         -48.4198  -24.9397   17.7019 O.2       9 UNK        -0.5108 
     45 CA        -47.3361  -25.6536   15.6679 C.3       8 UNK         0.0248 
     46 CB        -46.0331  -25.8674   16.4664 C.3       8 UNK        -0.2001 
     47 N         -47.5602  -26.7435   14.7064 N.am      8 UNK        -0.4140 
     48 C         -47.8247  -28.0317   14.9796 C.2       8 UNK         0.5028 
     49 O         -47.7607  -28.5266   16.1054 O.2       8 UNK        -0.5428 
     50 CA        -48.3137  -28.9065   13.8126 C.3       7 UNK         0.0264 
     51 CB        -49.8174  -29.1833   13.9682 C.3       7 UNK        -0.1988 
     52 N         -48.0700  -28.3015   12.4988 N.am      7 UNK        -0.4454 
     53 C         -46.8978  -28.3851   11.8528 C.2       7 UNK         0.5027 
     54 O         -45.9346  -29.0332   12.2655 O.2       7 UNK        -0.5083 
     55 CA        -46.7672  -27.5763   10.5470 C.3       6 UNK         0.0844 
     56 C56       -47.5712  -28.2213    9.3906 C.3       14 UNK        -0.0967 
     57 S57       -46.7700  -29.6912    8.6672 S.3       14 UNK        -0.2604 
     58 C58       -47.6710  -31.0638    9.4642 C.3       14 UNK         0.0134 
     59 N         -47.1364  -26.1693   10.7304 N.am      6 UNK        -0.4116 
     60 C         -46.5804  -25.2973   11.5843 C.2       5 UNK         0.5034 
     61 O         -45.6585  -25.5731   12.3503 O.2       5 UNK        -0.5045 
     62 CA        -47.1648  -23.8768   11.6051 C.3       5 UNK         0.0224 
     63 CB        -46.4788  -22.9996   10.5452 C.3       5 UNK        -0.1978 
     64 N         -48.6077  -23.8855   11.3624 N.am      5 UNK        -0.4737 
     65 C         -49.5432  -23.9389   12.3186 C.2       4 UNK         0.5027 
     66 O         -49.3044  -23.9272   13.5271 O.2       4 UNK        -0.5211 
     67 CA        -51.0046  -24.0402   11.8551 C.3       4 UNK         0.0297 
     68 CB        -51.6033  -22.6402   11.6475 C.3       4 UNK        -0.1993 
     69 N         -51.2080  -24.8253   10.6363 N.am      4 UNK        -0.4486 
     70 C         -50.8615  -26.1075   10.4625 C.2       3 UNK         0.4961 
     71 O         -50.2653  -26.7890   11.2994 O.2       3 UNK        -0.5105 
     72 CA        -51.1737  -26.6979    9.0759 C.3       3 UNK         0.0299 
     73 CB        -52.6855  -26.9202    8.8954 C.3       3 UNK        -0.1972 
     74 N         -50.6889  -25.9168    7.9299 N.am      3 UNK        -0.4305 
     75 C         -49.5315  -25.2548    7.7857 C.2       2 UNK         0.5006 
     76 O         -48.7165  -25.0772    8.6909 O.2       2 UNK        -0.5106 
     77 CA        -49.2146  -24.7520    6.3636 C.3       2 UNK         0.0296 
     78 CB        -47.8925  -23.9639    6.2968 C.3       2 UNK        -0.2002 
     79 N         -49.1460  -25.8787    5.4288 N.am      2 UNK        -0.4032 
     80 C         -50.2078  -26.5168    4.9139 C.2       1 UNK         0.5000 
     81 O         -51.3676  -26.1336    5.0831 O.2       1 UNK        -0.5238 
     82 H82       -46.4658  -26.1458    1.8269 H         1 UNK         0.0889 
     83 H83       -47.0173  -27.4185    0.7343 H         1 UNK         0.0889 
     84 H84       -46.3479  -27.8384    2.3118 H         1 UNK         0.0889 
     85 H85       -47.9367  -28.4190    3.7740 H         1 UNK         0.3028 
     86 H86       -50.7105  -27.8961    3.3600 H         1 UNK         0.0864 
     87 H87       -49.5834  -29.9201    4.5640 H         1 UNK         0.0720 
     88 H88       -49.4793  -28.9065    5.9801 H         1 UNK         0.0720 
     89 H89       -50.8745  -31.7589    5.5747 H         1 UNK         0.0814 
     90 H90       -52.5050  -31.6718    6.1807 H         1 UNK         0.0814 
     91 H91       -48.9508  -31.1713    7.0543 H         1 UNK         0.1469 
     92 H92       -49.7127  -30.9359   11.2639 H         1 UNK         0.1381 
     93 H93       -52.9863  -30.9742    8.4968 H         1 UNK         0.1206 
     94 H94       -52.0917  -31.5669   11.9729 H         1 UNK         0.0813 
     95 H95       -53.4131  -31.2889   10.8605 H         1 UNK         0.0813 
     96 H96       -53.9720  -30.4617   13.3762 H         1 UNK         0.0638 
     97 H97       -53.6231  -28.8488   13.9475 H         1 UNK         0.0638 
     98 H98       -55.5884  -29.5478   11.7062 H         1 UNK         0.0568 
     99 H99       -56.7832  -31.0475   13.0514 H         1 UNK         0.3450 
    100 H100      -57.6992  -30.4739   14.4199 H         1 UNK         0.3450 
    101 H101      -54.4628  -26.9894   12.3919 H         1 UNK         0.2987 
    102 H102      -54.8943  -25.4826   10.4913 H         1 UNK         0.0766 
    103 H103      -56.5787  -23.9511    9.5362 H         1 UNK         0.0798 
    104 H104      -57.8876  -24.8723   10.2782 H         1 UNK         0.0798 
    105 H105      -56.8994  -25.5958    9.0167 H         1 UNK         0.0798 
    106 H106      -56.6248  -23.8906   12.1408 H         1 UNK         0.3198 
    107 H107      -55.3573  -22.4484   13.5476 H         1 UNK         0.0843 
    108 H108      -56.0133  -22.9660   15.9313 H         1 UNK         0.0831 
    109 H109      -55.5956  -24.6606   15.6866 H         1 UNK         0.0831 
    110 H110      -56.9467  -23.9481   14.8144 H         1 UNK         0.0831 
    111 H111      -53.0266  -23.8974   14.4044 H         1 UNK         0.3133 
    112 H112      -51.1370  -21.6212   14.7504 H         1 UNK         0.0566 
    113 H113      -50.4052  -21.1082   17.0923 H         1 UNK         0.0814 
    114 H114      -51.6853  -20.0433   16.5376 H         1 UNK         0.0814 
    115 H115      -52.0601  -21.3457   17.6530 H         1 UNK         0.0814 
    116 H116      -50.4708  -23.6764   15.1923 H         1 UNK         0.3091 
    117 H117      -50.9043  -25.9767   17.7685 H         1 UNK         0.0702 
    118 H118      -51.6711  -27.6441   16.0973 H         1 UNK         0.0785 
    119 H119      -52.1747  -26.3622   14.9960 H         1 UNK         0.0785 
    120 H120      -53.0027  -26.5864   16.5295 H         1 UNK         0.0785 
    121 H121      -49.7711  -26.0634   15.0942 H         1 UNK         0.2998 
    122 H122      -47.2085  -24.7481   15.0733 H         1 UNK         0.0697 
    123 H123      -46.1082  -26.7143   17.1489 H         1 UNK         0.0825 
    124 H124      -45.7947  -24.9886   17.0666 H         1 UNK         0.0825 
    125 H125      -45.1873  -26.0441   15.8019 H         1 UNK         0.0825 
    126 H126      -47.6099  -26.4605   13.7384 H         1 UNK         0.3029 
    127 H127      -47.7851  -29.8602   13.8783 H         1 UNK         0.0897 
    128 H128      -50.1538  -29.9347   13.2573 H         1 UNK         0.0792 
    129 H129      -50.0515  -29.5644   14.9632 H         1 UNK         0.0792 
    130 H130      -50.4143  -28.2835   13.8135 H         1 UNK         0.0792 
    131 H131      -48.8318  -27.7639   12.0852 H         1 UNK         0.3086 
    132 H132      -45.7115  -27.5738   10.2677 H         1 UNK         0.0583 
    133 H133      -48.5941  -28.4460    9.6936 H         1 UNK         0.1020 
    134 H134      -47.6636  -27.5105    8.5694 H         1 UNK         0.1020 
    135 H135      -47.2624  -32.0072    9.1000 H         1 UNK         0.0694 
    136 H136      -47.4728  -31.0408   10.5367 H         1 UNK         0.0694 
    137 H137      -47.8566  -25.8158   10.1049 H         1 UNK         0.2989 
    138 H138      -46.9607  -23.4459   12.5883 H         1 UNK         0.1055 
    139 H139      -45.4009  -22.9615   10.7083 H         1 UNK         0.0806 
    140 H140      -46.8480  -21.9746   10.5817 H         1 UNK         0.0806 
    141 H141      -46.6432  -23.3785    9.5354 H         1 UNK         0.0806 
    142 H142      -48.9010  -23.9747   10.3952 H         1 UNK         0.3061 
    143 H143      -51.5458  -24.5386   12.6586 H         1 UNK         0.0734 
    144 H144      -52.6808  -22.6895   11.4895 H         1 UNK         0.0832 
    145 H145      -51.4340  -22.0022   12.5133 H         1 UNK         0.0832 
    146 H146      -51.1595  -22.1358   10.7884 H         1 UNK         0.0832 
    147 H147      -51.6581  -24.3540    9.8659 H         1 UNK         0.3156 
    148 H148      -50.6906  -27.6749    9.0261 H         1 UNK         0.0589 
    149 H149      -53.2153  -25.9828    8.7250 H         1 UNK         0.0808 
    150 H150      -52.8854  -27.5754    8.0469 H         1 UNK         0.0808 
    151 H151      -53.1337  -27.3868    9.7704 H         1 UNK         0.0808 
    152 H152      -51.2478  -25.9993    7.0858 H         1 UNK         0.3098 
    153 H153      -50.0213  -24.0805    6.0622 H         1 UNK         0.0720 
    154 H154      -47.7055  -23.5881    5.2908 H         1 UNK         0.0791 
    155 H155      -47.0392  -24.5767    6.5908 H         1 UNK         0.0791 
    156 H156      -47.9187  -23.1013    6.9641 H         1 UNK         0.0791 
    157 H157      -48.2297  -26.2647    5.2538 H         1 UNK         0.3028 
@<TRIPOS>BOND
     1    1    2 1    
     2    1   82 1    
     3    1   83 1    
     4    1   84 1    
     5    2    3 2    
     6    2    4 am   BACKBONE|DICT|INTERRES
     7    4    5 1    
     8    4   85 1    
     9    5    6 1    
    10    5   80 1    
    11    5   86 1    
    12    6    7 1    
    13    6   87 1    
    14    6   88 1    
    15    7    8 1    
    16    8    9 1    
    17    8   89 1    
    18    8   90 1    
    19    9   10 ar   
    20    9   14 ar   
    21   10   11 ar   
    22   10   91 1    
    23   11   12 ar   
    24   11   58 1    
    25   12   13 ar   
    26   12   92 1    
    27   13   14 ar   
    28   13   15 1    
    29   14   93 1    
    30   15   16 1    
    31   15   94 1    
    32   15   95 1    
    33   16   17 1    
    34   17   18 1    
    35   17   96 1    
    36   17   97 1    
    37   18   19 1    
    38   18   22 1    
    39   18   98 1    
    40   19   20 am   BACKBONE|DICT|INTERRES
    41   19   21 2    
    42   20   99 1    
    43   20  100 1    
    44   22   23 am   BACKBONE|DICT|INTERRES
    45   22  101 1    
    46   23   24 2    
    47   23   25 1    
    48   25   26 1    
    49   25   27 1    
    50   25  102 1    
    51   26  103 1    
    52   26  104 1    
    53   26  105 1    
    54   27   28 am   BACKBONE|DICT|INTERRES
    55   27  106 1    
    56   28   29 2    
    57   28   30 1    
    58   30   31 1    
    59   30   32 1    
    60   30  107 1    
    61   31  108 1    
    62   31  109 1    
    63   31  110 1    
    64   32   33 am   BACKBONE|DICT|INTERRES
    65   32  111 1    
    66   33   34 2    
    67   33   35 1    
    68   35   36 1    
    69   35   37 1    
    70   35  112 1    
    71   36  113 1    
    72   36  114 1    
    73   36  115 1    
    74   37   38 am   BACKBONE|DICT|INTERRES
    75   37  116 1    
    76   38   39 2    
    77   38   40 1    
    78   40   41 1    
    79   40   42 1    
    80   40  117 1    
    81   41  118 1    
    82   41  119 1    
    83   41  120 1    
    84   42   43 am   BACKBONE|DICT|INTERRES
    85   42  121 1    
    86   43   44 2    
    87   43   45 1    
    88   45   46 1    
    89   45   47 1    
    90   45  122 1    
    91   46  123 1    
    92   46  124 1    
    93   46  125 1    
    94   47   48 am   BACKBONE|DICT|INTERRES
    95   47  126 1    
    96   48   49 2    
    97   48   50 1    
    98   50   51 1    
    99   50   52 1    
   100   50  127 1    
   101   51  128 1    
   102   51  129 1    
   103   51  130 1    
   104   52   53 am   BACKBONE|DICT|INTERRES
   105   52  131 1    
   106   53   54 2    
   107   53   55 1    
   108   55   56 1    
   109   55   59 1    
   110   55  132 1    
   111   56   57 1    
   112   56  133 1    
   113   56  134 1    
   114   57   58 1    
   115   58  135 1    
   116   58  136 1    
   117   59   60 am   BACKBONE|DICT|INTERRES
   118   59  137 1    
   119   60   61 2    
   120   60   62 1    
   121   62   63 1    
   122   62   64 1    
   123   62  138 1    
   124   63  139 1    
   125   63  140 1    
   126   63  141 1    
   127   64   65 am   BACKBONE|DICT|INTERRES
   128   64  142 1    
   129   65   66 2    
   130   65   67 1    
   131   67   68 1    
   132   67   69 1    
   133   67  143 1    
   134   68  144 1    
   135   68  145 1    
   136   68  146 1    
   137   69   70 am   BACKBONE|DICT|INTERRES
   138   69  147 1    
   139   70   71 2    
   140   70   72 1    
   141   72   73 1    
   142   72   74 1    
   143   72  148 1    
   144   73  149 1    
   145   73  150 1    
   146   73  151 1    
   147   74   75 am   BACKBONE|DICT|INTERRES
   148   74  152 1    
   149   75   76 2    
   150   75   77 1    
   151   77   78 1    
   152   77   79 1    
   153   77  153 1    
   154   78  154 1    
   155   78  155 1    
   156   78  156 1    
   157   79   80 am   BACKBONE|DICT|INTERRES
   158   79  157 1    
   159   80   81 2    
@<TRIPOS>SUBSTRUCTURE
     1 UNK         1 GROUP             0       ****    0 ROOT    
