@<TRIPOS>MOLECULE
3R207
157   159    1
SMALL
USER_CHARGES


@<TRIPOS>ATOM
      1 CA        -48.3856  -30.2910   11.8433 C.3       0 UNK        -0.1975 
      2 C         -48.3648  -29.7637   10.4172 C.2       0 UNK         0.4852 
      3 O         -47.9544  -28.6256   10.1980 O.2       0 UNK        -0.5216 
      4 N         -48.7863  -30.5998    9.4563 N.am      1 UNK        -0.4461 
      5 CA        -48.9279  -30.3944    8.0006 C.3       1 UNK         0.0864 
      6 C6        -50.1401  -29.5032    7.6012 C.3       14 UNK        -0.0898 
      7 S7        -49.8928  -27.6937    7.7229 S.3       14 UNK        -0.2598 
      8 C8        -51.1055  -27.0701    6.5154 C.3       14 UNK         0.0286 
      9 C9        -52.3156  -26.4619    7.2075 C.ar      14 UNK        -0.0844 
     10 C10       -52.5092  -25.0777    7.1920 C.ar      14 UNK        -0.0881 
     11 C11       -53.6117  -24.5035    7.8340 C.ar      14 UNK        -0.0643 
     12 C12       -54.5306  -25.3336    8.4849 C.ar      14 UNK        -0.0930 
     13 C13       -54.3539  -26.7208    8.5013 C.ar      14 UNK        -0.0827 
     14 C14       -53.2473  -27.2791    7.8540 C.ar      14 UNK        -0.1249 
     15 C15       -55.3725  -27.6168    9.1927 C.3       14 UNK         0.0141 
     16 S16       -55.3706  -27.3968   11.0009 S.3       14 UNK        -0.2313 
     17 C17       -56.6093  -28.6470   11.4933 C.3       14 UNK        -0.0915 
     18 CA        -56.0787  -29.7357   12.4713 C.3       13 UNK         0.0968 
     19 C         -54.9529  -30.6419   11.9019 C.2       13 UNK         0.5732 
     20 N         -55.1137  -31.1536   10.6884 N.am      13 UNK        -0.7310 
     21 O         -53.9489  -30.9195   12.5542 O.2       13 UNK        -0.5035 
     22 N         -55.7336  -29.1751   13.7837 N.am      13 UNK        -0.4233 
     23 C         -56.6023  -28.9980   14.7866 C.2       13 UNK         0.4989 
     24 O         -57.8006  -29.2757   14.7013 O.2       13 UNK        -0.4996 
     25 CA        -56.0611  -28.3925   16.0982 C.3       12 UNK         0.0216 
     26 CB        -56.9519  -28.7032   17.3205 C.3       12 UNK        -0.1964 
     27 N         -54.6613  -28.7302   16.3730 N.am      12 UNK        -0.4276 
     28 C         -54.1227  -29.9426   16.5800 C.2       12 UNK         0.5020 
     29 O         -54.7770  -30.9853   16.6247 O.2       12 UNK        -0.5489 
     30 CA        -52.5918  -30.0127   16.7588 C.3       11 UNK         0.0294 
     31 CB        -51.9578  -30.9299   15.6980 C.3       11 UNK        -0.2019 
     32 N         -51.9644  -28.6917   16.6672 N.am      11 UNK        -0.4493 
     33 C         -51.6806  -27.8946   17.7069 C.2       11 UNK         0.4932 
     34 O         -51.8249  -28.2261   18.8834 O.2       11 UNK        -0.5029 
     35 CA        -51.1790  -26.4741   17.3822 C.3       10 UNK         0.0280 
     36 CB        -49.6443  -26.4209   17.4353 C.3       10 UNK        -0.1976 
     37 N         -51.6465  -25.9850   16.0795 N.am      10 UNK        -0.4242 
     38 C         -52.9257  -25.6727   15.8089 C.2       10 UNK         0.5072 
     39 O         -53.8226  -25.7082   16.6508 O.2       10 UNK        -0.5224 
     40 CA        -53.2961  -25.3362   14.3518 C.3       9 UNK         0.0343 
     41 CB        -53.3092  -23.8160   14.1351 C.3       9 UNK        -0.2003 
     42 N         -52.4175  -25.9734   13.3675 N.am      9 UNK        -0.4272 
     43 C         -52.2933  -27.3027   13.2226 C.2       9 UNK         0.4988 
     44 O         -52.9719  -28.1102   13.8572 O.2       9 UNK        -0.5108 
     45 CA        -51.2059  -27.8392   12.2732 C.3       8 UNK         0.0248 
     46 CB        -51.8348  -28.2672   10.9440 C.3       8 UNK        -0.2001 
     47 N         -50.1144  -26.9031   11.9938 N.am      8 UNK        -0.4140 
     48 C         -49.3254  -26.3114   12.9014 C.2       8 UNK         0.5028 
     49 O         -49.3731  -26.5523   14.1082 O.2       8 UNK        -0.5428 
     50 CA        -48.3939  -25.1965   12.3887 C.3       7 UNK         0.0264 
     51 CB        -46.9843  -25.7382   12.1110 C.3       7 UNK        -0.1988 
     52 N         -48.8963  -24.4969   11.1976 N.am      7 UNK        -0.4454 
     53 C         -50.0683  -23.8465   11.1287 C.2       7 UNK         0.5027 
     54 O         -50.8532  -23.7687   12.0752 O.2       7 UNK        -0.5083 
     55 CA        -50.4271  -23.2052    9.7740 C.3       6 UNK         0.0844 
     56 C56       -51.8445  -22.5646    9.7724 C.3       14 UNK        -0.0967 
     57 S57       -52.3417  -22.0009    8.1093 S.3       14 UNK        -0.2604 
     58 C58       -53.8436  -22.9944    7.8061 C.3       14 UNK         0.0134 
     59 N         -49.3675  -22.2957    9.3235 N.am      6 UNK        -0.4116 
     60 C         -48.9952  -21.1397    9.8927 C.2       5 UNK         0.5034 
     61 O         -49.5081  -20.6691   10.9097 O.2       5 UNK        -0.5045 
     62 CA        -47.8595  -20.3774    9.1788 C.3       5 UNK         0.0224 
     63 CB        -47.2932  -19.2067   10.0125 C.3       5 UNK        -0.1978 
     64 N         -46.7845  -21.2651    8.7114 N.am      5 UNK        -0.4737 
     65 C         -45.9847  -22.0328    9.4677 C.2       4 UNK         0.5027 
     66 O         -46.0099  -22.0580   10.6989 O.2       4 UNK        -0.5211 
     67 CA        -45.0158  -22.9467    8.6905 C.3       4 UNK         0.0297 
     68 CB        -44.2075  -23.8877    9.6083 C.3       4 UNK        -0.1993 
     69 N         -45.6756  -23.7263    7.6326 N.am      4 UNK        -0.4486 
     70 C         -46.7318  -24.5427    7.7695 C.2       3 UNK         0.4961 
     71 O         -47.3757  -24.6759    8.8107 O.2       3 UNK        -0.5105 
     72 CA        -47.1552  -25.3676    6.5443 C.3       3 UNK         0.0299 
     73 CB        -46.6430  -24.8317    5.1874 C.3       3 UNK        -0.1972 
     74 N         -46.8032  -26.7746    6.7537 N.am      3 UNK        -0.4305 
     75 C         -45.5742  -27.3079    6.8521 C.2       2 UNK         0.5006 
     76 O         -44.5371  -26.6802    6.6325 O.2       2 UNK        -0.5106 
     77 CA        -45.4713  -28.7834    7.2878 C.3       2 UNK         0.0296 
     78 CB        -44.3673  -28.9761    8.3441 C.3       2 UNK        -0.2002 
     79 N         -46.7292  -29.2805    7.8452 N.am      2 UNK        -0.4032 
     80 C         -47.6354  -30.0401    7.2229 C.2       1 UNK         0.5000 
     81 O         -47.4913  -30.4632    6.0744 O.2       1 UNK        -0.5238 
     82 H82       -48.4285  -29.4658   12.5538 H         1 UNK         0.0889 
     83 H83       -47.4816  -30.8645   12.0461 H         1 UNK         0.0889 
     84 H84       -49.2509  -30.9305   12.0169 H         1 UNK         0.0889 
     85 H85       -49.0590  -31.5273    9.7516 H         1 UNK         0.3028 
     86 H86       -49.1774  -31.3960    7.6456 H         1 UNK         0.0864 
     87 H87       -50.4072  -29.7389    6.5699 H         1 UNK         0.0720 
     88 H88       -51.0156  -29.7757    8.1912 H         1 UNK         0.0720 
     89 H89       -51.4322  -27.8603    5.8390 H         1 UNK         0.0814 
     90 H90       -50.6122  -26.3267    5.8876 H         1 UNK         0.0814 
     91 H91       -51.7990  -24.4427    6.6806 H         1 UNK         0.1469 
     92 H92       -55.3911  -24.9035    8.9792 H         1 UNK         0.1381 
     93 H93       -53.1011  -28.3505    7.8616 H         1 UNK         0.1206 
     94 H94       -56.3674  -27.3957    8.8037 H         1 UNK         0.0813 
     95 H95       -55.1744  -28.6647    8.9626 H         1 UNK         0.0813 
     96 H96       -57.4429  -28.1172   11.9564 H         1 UNK         0.0638 
     97 H97       -57.0337  -29.1154   10.6044 H         1 UNK         0.0638 
     98 H98       -56.8974  -30.4392   12.6333 H         1 UNK         0.0568 
     99 H99       -54.3961  -31.7557   10.3181 H         1 UNK         0.3450 
    100 H100      -55.9418  -30.9685   10.1464 H         1 UNK         0.3450 
    101 H101      -54.7498  -28.9483   13.9096 H         1 UNK         0.2987 
    102 H102      -56.0801  -27.3119   15.9498 H         1 UNK         0.0766 
    103 H103      -57.9611  -28.3139   17.1800 H         1 UNK         0.0798 
    104 H104      -56.5547  -28.2459   18.2267 H         1 UNK         0.0798 
    105 H105      -57.0394  -29.7758   17.4958 H         1 UNK         0.0798 
    106 H106      -54.0287  -27.9408   16.3670 H         1 UNK         0.3198 
    107 H107      -52.4002  -30.4471   17.7422 H         1 UNK         0.0843 
    108 H108      -52.1478  -30.5696   14.6861 H         1 UNK         0.0831 
    109 H109      -52.3629  -31.9406   15.7617 H         1 UNK         0.0831 
    110 H110      -50.8786  -31.0055   15.8310 H         1 UNK         0.0831 
    111 H111      -51.8477  -28.3283   15.7290 H         1 UNK         0.3133 
    112 H112      -51.5665  -25.8026   18.1514 H         1 UNK         0.0566 
    113 H113      -49.2722  -25.4183   17.2243 H         1 UNK         0.0814 
    114 H114      -49.1908  -27.1054   16.7174 H         1 UNK         0.0814 
    115 H115      -49.2797  -26.7010   18.4245 H         1 UNK         0.0814 
    116 H116      -50.9628  -25.9741   15.3281 H         1 UNK         0.3091 
    117 H117      -54.3064  -25.7119   14.1754 H         1 UNK         0.0702 
    118 H118      -53.6084  -23.5623   13.1178 H         1 UNK         0.0785 
    119 H119      -52.3282  -23.3749   14.3159 H         1 UNK         0.0785 
    120 H120      -54.0144  -23.3317   14.8119 H         1 UNK         0.0785 
    121 H121      -51.8196  -25.3537   12.8288 H         1 UNK         0.2998 
    122 H122      -50.7732  -28.7192   12.7510 H         1 UNK         0.0697 
    123 H123      -52.2401  -27.4094   10.4083 H         1 UNK         0.0825 
    124 H124      -52.6504  -28.9725   11.0993 H         1 UNK         0.0825 
    125 H125      -51.1077  -28.7545   10.2994 H         1 UNK         0.0825 
    126 H126      -49.9669  -26.6619   11.0238 H         1 UNK         0.3029 
    127 H127      -48.3197  -24.4576   13.1892 H         1 UNK         0.0897 
    128 H128      -46.9639  -26.3795   11.2293 H         1 UNK         0.0792 
    129 H129      -46.6119  -26.3227   12.9533 H         1 UNK         0.0792 
    130 H130      -46.2818  -24.9214   11.9482 H         1 UNK         0.0792 
    131 H131      -48.3052  -24.5297   10.3661 H         1 UNK         0.3086 
    132 H132      -50.4399  -24.0287    9.0580 H         1 UNK         0.0583 
    133 H133      -52.5828  -23.2795   10.1410 H         1 UNK         0.1020 
    134 H134      -51.8918  -21.7168   10.4574 H         1 UNK         0.1020 
    135 H135      -54.5972  -22.7083    8.5416 H         1 UNK         0.0694 
    136 H136      -54.2482  -22.7245    6.8300 H         1 UNK         0.0694 
    137 H137      -48.8401  -22.6135    8.5242 H         1 UNK         0.2989 
    138 H138      -48.3122  -19.9460    8.2843 H         1 UNK         0.1055 
    139 H139      -46.8814  -19.5455   10.9636 H         1 UNK         0.0806 
    140 H140      -48.0720  -18.4776   10.2398 H         1 UNK         0.0806 
    141 H141      -46.5057  -18.6797    9.4740 H         1 UNK         0.0806 
    142 H142      -46.6757  -21.3301    7.7080 H         1 UNK         0.3061 
    143 H143      -44.3054  -22.2833    8.1948 H         1 UNK         0.0734 
    144 H144      -44.8519  -24.6014   10.1206 H         1 UNK         0.0832 
    145 H145      -43.4712  -24.4562    9.0401 H         1 UNK         0.0832 
    146 H146      -43.6659  -23.3270   10.3712 H         1 UNK         0.0832 
    147 H147      -45.2255  -23.7040    6.7279 H         1 UNK         0.3156 
    148 H148      -48.2448  -25.3264    6.5144 H         1 UNK         0.0589 
    149 H149      -45.5568  -24.8556    5.1008 H         1 UNK         0.0808 
    150 H150      -47.0471  -25.4193    4.3630 H         1 UNK         0.0808 
    151 H151      -46.9631  -23.8010    5.0294 H         1 UNK         0.0808 
    152 H152      -47.5829  -27.3682    7.0061 H         1 UNK         0.3098 
    153 H153      -45.2016  -29.3618    6.4020 H         1 UNK         0.0720 
    154 H154      -44.5583  -28.3791    9.2371 H         1 UNK         0.0791 
    155 H155      -43.3917  -28.6816    7.9552 H         1 UNK         0.0791 
    156 H156      -44.2891  -30.0197    8.6492 H         1 UNK         0.0791 
    157 H157      -46.9901  -28.9381    8.7715 H         1 UNK         0.3028 
@<TRIPOS>BOND
     1    1    2 1    
     2    1   82 1    
     3    1   83 1    
     4    1   84 1    
     5    2    3 2    
     6    2    4 am   BACKBONE|DICT|INTERRES
     7    4    5 1    
     8    4   85 1    
     9    5    6 1    
    10    5   80 1    
    11    5   86 1    
    12    6    7 1    
    13    6   87 1    
    14    6   88 1    
    15    7    8 1    
    16    8    9 1    
    17    8   89 1    
    18    8   90 1    
    19    9   10 ar   
    20    9   14 ar   
    21   10   11 ar   
    22   10   91 1    
    23   11   12 ar   
    24   11   58 1    
    25   12   13 ar   
    26   12   92 1    
    27   13   14 ar   
    28   13   15 1    
    29   14   93 1    
    30   15   16 1    
    31   15   94 1    
    32   15   95 1    
    33   16   17 1    
    34   17   18 1    
    35   17   96 1    
    36   17   97 1    
    37   18   19 1    
    38   18   22 1    
    39   18   98 1    
    40   19   20 am   BACKBONE|DICT|INTERRES
    41   19   21 2    
    42   20   99 1    
    43   20  100 1    
    44   22   23 am   BACKBONE|DICT|INTERRES
    45   22  101 1    
    46   23   24 2    
    47   23   25 1    
    48   25   26 1    
    49   25   27 1    
    50   25  102 1    
    51   26  103 1    
    52   26  104 1    
    53   26  105 1    
    54   27   28 am   BACKBONE|DICT|INTERRES
    55   27  106 1    
    56   28   29 2    
    57   28   30 1    
    58   30   31 1    
    59   30   32 1    
    60   30  107 1    
    61   31  108 1    
    62   31  109 1    
    63   31  110 1    
    64   32   33 am   BACKBONE|DICT|INTERRES
    65   32  111 1    
    66   33   34 2    
    67   33   35 1    
    68   35   36 1    
    69   35   37 1    
    70   35  112 1    
    71   36  113 1    
    72   36  114 1    
    73   36  115 1    
    74   37   38 am   BACKBONE|DICT|INTERRES
    75   37  116 1    
    76   38   39 2    
    77   38   40 1    
    78   40   41 1    
    79   40   42 1    
    80   40  117 1    
    81   41  118 1    
    82   41  119 1    
    83   41  120 1    
    84   42   43 am   BACKBONE|DICT|INTERRES
    85   42  121 1    
    86   43   44 2    
    87   43   45 1    
    88   45   46 1    
    89   45   47 1    
    90   45  122 1    
    91   46  123 1    
    92   46  124 1    
    93   46  125 1    
    94   47   48 am   BACKBONE|DICT|INTERRES
    95   47  126 1    
    96   48   49 2    
    97   48   50 1    
    98   50   51 1    
    99   50   52 1    
   100   50  127 1    
   101   51  128 1    
   102   51  129 1    
   103   51  130 1    
   104   52   53 am   BACKBONE|DICT|INTERRES
   105   52  131 1    
   106   53   54 2    
   107   53   55 1    
   108   55   56 1    
   109   55   59 1    
   110   55  132 1    
   111   56   57 1    
   112   56  133 1    
   113   56  134 1    
   114   57   58 1    
   115   58  135 1    
   116   58  136 1    
   117   59   60 am   BACKBONE|DICT|INTERRES
   118   59  137 1    
   119   60   61 2    
   120   60   62 1    
   121   62   63 1    
   122   62   64 1    
   123   62  138 1    
   124   63  139 1    
   125   63  140 1    
   126   63  141 1    
   127   64   65 am   BACKBONE|DICT|INTERRES
   128   64  142 1    
   129   65   66 2    
   130   65   67 1    
   131   67   68 1    
   132   67   69 1    
   133   67  143 1    
   134   68  144 1    
   135   68  145 1    
   136   68  146 1    
   137   69   70 am   BACKBONE|DICT|INTERRES
   138   69  147 1    
   139   70   71 2    
   140   70   72 1    
   141   72   73 1    
   142   72   74 1    
   143   72  148 1    
   144   73  149 1    
   145   73  150 1    
   146   73  151 1    
   147   74   75 am   BACKBONE|DICT|INTERRES
   148   74  152 1    
   149   75   76 2    
   150   75   77 1    
   151   77   78 1    
   152   77   79 1    
   153   77  153 1    
   154   78  154 1    
   155   78  155 1    
   156   78  156 1    
   157   79   80 am   BACKBONE|DICT|INTERRES
   158   79  157 1    
   159   80   81 2    
@<TRIPOS>SUBSTRUCTURE
     1 UNK         1 GROUP             0       ****    0 ROOT    
