@<TRIPOS>MOLECULE
3R207
157   159    1
SMALL
USER_CHARGES


@<TRIPOS>ATOM
      1 CA        -47.9311  -28.5721    8.8660 C.3       0 UNK        -0.1975 
      2 C         -48.4907  -28.2597    7.4958 C.2       0 UNK         0.4852 
      3 O         -48.1108  -27.2659    6.8752 O.2       0 UNK        -0.5216 
      4 N         -49.3790  -29.1301    7.0095 N.am      1 UNK        -0.4461 
      5 CA        -49.8237  -29.2234    5.6161 C.3       1 UNK         0.0864 
      6 C6        -50.2856  -30.6656    5.2565 C.3       14 UNK        -0.0898 
      7 S7        -49.1792  -31.9758    5.9053 S.3       14 UNK        -0.2598 
      8 C8        -50.2239  -32.8161    7.1473 C.3       14 UNK         0.0286 
      9 C9        -50.5514  -31.9428    8.3552 C.ar      14 UNK        -0.0844 
     10 C10       -49.7411  -31.9582    9.4983 C.ar      14 UNK        -0.0881 
     11 C11       -50.0758  -31.1861   10.6189 C.ar      14 UNK        -0.0643 
     12 C12       -51.2193  -30.3804   10.5783 C.ar      14 UNK        -0.0930 
     13 C13       -52.0267  -30.3443    9.4375 C.ar      14 UNK        -0.0827 
     14 C14       -51.6997  -31.1464    8.3440 C.ar      14 UNK        -0.1249 
     15 C15       -53.2580  -29.4513    9.3689 C.3       14 UNK         0.0141 
     16 S16       -52.9251  -27.9718    8.3612 S.3       14 UNK        -0.2313 
     17 C17       -54.5951  -27.2962    8.0863 C.3       14 UNK        -0.0915 
     18 CA        -54.8935  -26.0677    8.9868 C.3       13 UNK         0.0968 
     19 C         -56.0513  -25.2018    8.4091 C.2       13 UNK         0.5732 
     20 N         -57.1529  -24.9926    9.1206 N.am      13 UNK        -0.7310 
     21 O         -55.9398  -24.6953    7.2956 O.2       13 UNK        -0.5035 
     22 N         -55.0867  -26.4632   10.3922 N.am      13 UNK        -0.4233 
     23 C         -54.7777  -25.6975   11.4459 C.2       13 UNK         0.4989 
     24 O         -54.2368  -24.5934   11.3497 O.2       13 UNK        -0.4996 
     25 CA        -55.1431  -26.2640   12.8305 C.3       12 UNK         0.0216 
     26 CB        -54.7089  -27.7351   12.9900 C.3       12 UNK        -0.1964 
     27 N         -54.4889  -25.4797   13.8743 N.am      12 UNK        -0.4276 
     28 C         -55.0816  -24.7378   14.8153 C.2       12 UNK         0.5020 
     29 O         -56.3030  -24.6262   14.9429 O.2       12 UNK        -0.5489 
     30 CA        -54.1208  -24.0218   15.7870 C.3       11 UNK         0.0294 
     31 CB        -54.8365  -23.2945   16.9457 C.3       11 UNK        -0.2019 
     32 N         -53.0799  -24.9371   16.2742 N.am      11 UNK        -0.4493 
     33 C         -53.2439  -26.0285   17.0371 C.2       11 UNK         0.4932 
     34 O         -54.3001  -26.3318   17.5928 O.2       11 UNK        -0.5029 
     35 CA        -52.0405  -26.9797   17.1781 C.3       10 UNK         0.0280 
     36 CB        -52.2533  -28.2193   16.2928 C.3       10 UNK        -0.1976 
     37 N         -50.7469  -26.3727   16.8461 N.am      10 UNK        -0.4242 
     38 C         -50.0912  -25.5006   17.6262 C.2       10 UNK         0.5072 
     39 O         -50.5049  -25.1155   18.7206 O.2       10 UNK        -0.5224 
     40 CA        -48.7510  -24.9574   17.0954 C.3       9 UNK         0.0343 
     41 CB        -47.6227  -25.9801   17.3058 C.3       9 UNK        -0.2003 
     42 N         -48.8087  -24.5755   15.6830 N.am      9 UNK        -0.4272 
     43 C         -49.5500  -23.5698   15.1945 C.2       9 UNK         0.4988 
     44 O         -50.2145  -22.8023   15.8906 O.2       9 UNK        -0.5108 
     45 CA        -49.5997  -23.4281   13.6640 C.3       8 UNK         0.0248 
     46 CB        -48.3958  -22.6328   13.1358 C.3       8 UNK        -0.2001 
     47 N         -49.6821  -24.7276   12.9937 N.am      8 UNK        -0.4140 
     48 C         -50.7296  -25.5560   13.1024 C.2       8 UNK         0.5028 
     49 O         -51.7514  -25.2903   13.7300 O.2       8 UNK        -0.5428 
     50 CA        -50.6049  -26.9291   12.4384 C.3       7 UNK         0.0264 
     51 CB        -50.9687  -26.8267   10.9552 C.3       7 UNK        -0.1988 
     52 N         -49.2631  -27.4853   12.5891 N.am      7 UNK        -0.4454 
     53 C         -48.7787  -27.9625   13.7448 C.2       7 UNK         0.5027 
     54 O         -49.4248  -27.9876   14.7919 O.2       7 UNK        -0.5083 
     55 CA        -47.3174  -28.4568   13.7517 C.3       6 UNK         0.0844 
     56 C56       -47.2239  -29.9748   13.4405 C.3       14 UNK        -0.0967 
     57 S57       -47.6284  -30.4122   11.7096 S.3       14 UNK        -0.2604 
     58 C58       -49.2369  -31.2480   11.8923 C.3       14 UNK         0.0134 
     59 N         -46.4353  -27.6554   12.8976 N.am      6 UNK        -0.4116 
     60 C         -46.2138  -26.3376   13.0172 C.2       5 UNK         0.5034 
     61 O         -46.7198  -25.6366   13.8952 O.2       5 UNK        -0.5045 
     62 CA        -45.3057  -25.6741   11.9591 C.3       5 UNK         0.0224 
     63 CB        -44.5015  -26.6848   11.1096 C.3       5 UNK        -0.1978 
     64 N         -46.0236  -24.7484   11.0671 N.am      5 UNK        -0.4737 
     65 C         -47.1591  -24.9927   10.3979 C.2       4 UNK         0.5027 
     66 O         -47.8327  -26.0127   10.5447 O.2       4 UNK        -0.5211 
     67 CA        -47.6112  -23.9301    9.3872 C.3       4 UNK         0.0297 
     68 CB        -46.7259  -23.9740    8.1307 C.3       4 UNK        -0.1993 
     69 N         -48.9942  -24.2003    8.9922 N.am      4 UNK        -0.4486 
     70 C         -50.0135  -23.3391    9.0822 C.2       3 UNK         0.4961 
     71 O         -49.8829  -22.1693    9.4472 O.2       3 UNK        -0.5105 
     72 CA        -51.4173  -23.8803    8.7272 C.3       3 UNK         0.0299 
     73 CB        -52.4422  -22.7499    8.4862 C.3       3 UNK        -0.1972 
     74 N         -51.4424  -24.8444    7.6133 N.am      3 UNK        -0.4305 
     75 C         -51.0892  -24.6039    6.3411 C.2       2 UNK         0.5006 
     76 O         -50.5459  -23.5659    5.9594 O.2       2 UNK        -0.5106 
     77 CA        -51.4126  -25.7128    5.3280 C.3       2 UNK         0.0296 
     78 CB        -51.2527  -25.2559    3.8625 C.3       2 UNK        -0.2002 
     79 N         -50.5747  -26.8804    5.5828 N.am      2 UNK        -0.4032 
     80 C         -50.8703  -28.1431    5.2499 C.2       1 UNK         0.5000 
     81 O         -51.9150  -28.4643    4.6781 O.2       1 UNK        -0.5238 
     82 H82       -48.6617  -28.3467    9.6400 H         1 UNK         0.0889 
     83 H83       -47.0275  -27.9945    9.0538 H         1 UNK         0.0889 
     84 H84       -47.6705  -29.6278    8.9306 H         1 UNK         0.0889 
     85 H85       -49.6890  -29.8949    7.5964 H         1 UNK         0.3028 
     86 H86       -48.9531  -29.0130    4.9907 H         1 UNK         0.0864 
     87 H87       -50.3242  -30.7743    4.1713 H         1 UNK         0.0720 
     88 H88       -51.3027  -30.8526    5.5962 H         1 UNK         0.0720 
     89 H89       -49.7084  -33.7185    7.4794 H         1 UNK         0.0814 
     90 H90       -51.1439  -33.1585    6.6707 H         1 UNK         0.0814 
     91 H91       -48.8587  -32.5832    9.5256 H         1 UNK         0.1469 
     92 H92       -51.4836  -29.7829   11.4396 H         1 UNK         0.1381 
     93 H93       -52.3486  -31.1398    7.4800 H         1 UNK         0.1206 
     94 H94       -53.5716  -29.1461   10.3678 H         1 UNK         0.0813 
     95 H95       -54.0875  -30.0131    8.9370 H         1 UNK         0.0813 
     96 H96       -54.6366  -27.0236    7.0300 H         1 UNK         0.0638 
     97 H97       -55.3481  -28.0739    8.2227 H         1 UNK         0.0638 
     98 H98       -54.0188  -25.4186    8.9396 H         1 UNK         0.0568 
     99 H99       -57.2590  -25.3928   10.0380 H         1 UNK         0.3450 
    100 H100      -57.8875  -24.4233    8.7308 H         1 UNK         0.3450 
    101 H101      -55.5483  -27.3470   10.5435 H         1 UNK         0.2987 
    102 H102      -56.2278  -26.2014   12.9368 H         1 UNK         0.0766 
    103 H103      -53.6543  -27.8736   12.7528 H         1 UNK         0.0798 
    104 H104      -54.8657  -28.0824   14.0117 H         1 UNK         0.0798 
    105 H105      -55.2832  -28.3974   12.3419 H         1 UNK         0.0798 
    106 H106      -53.4697  -25.4260   13.8070 H         1 UNK         0.3198 
    107 H107      -53.6018  -23.2643   15.1971 H         1 UNK         0.0843 
    108 H108      -55.5031  -22.5210   16.5628 H         1 UNK         0.0831 
    109 H109      -54.1220  -22.8081   17.6097 H         1 UNK         0.0831 
    110 H110      -55.4438  -23.9740   17.5438 H         1 UNK         0.0831 
    111 H111      -52.1845  -24.8406   15.8094 H         1 UNK         0.3133 
    112 H112      -52.0048  -27.3092   18.2186 H         1 UNK         0.0566 
    113 H113      -51.4574  -28.9506   16.4347 H         1 UNK         0.0814 
    114 H114      -53.1946  -28.7164   16.5309 H         1 UNK         0.0814 
    115 H115      -52.2825  -27.9559   15.2349 H         1 UNK         0.0814 
    116 H116      -50.3012  -26.6994   15.9932 H         1 UNK         0.3091 
    117 H117      -48.5059  -24.0617   17.6700 H         1 UNK         0.0702 
    118 H118      -46.6600  -25.5787   16.9881 H         1 UNK         0.0785 
    119 H119      -47.8001  -26.9003   16.7488 H         1 UNK         0.0785 
    120 H120      -47.5314  -26.2485   18.3591 H         1 UNK         0.0785 
    121 H121      -48.2353  -25.1107   15.0371 H         1 UNK         0.2998 
    122 H122      -50.5050  -22.8700   13.4151 H         1 UNK         0.0697 
    123 H123      -47.4532  -23.1526   13.3073 H         1 UNK         0.0825 
    124 H124      -48.3256  -21.6624   13.6291 H         1 UNK         0.0825 
    125 H125      -48.4890  -22.4423   12.0670 H         1 UNK         0.0825 
    126 H126      -48.8683  -25.0468   12.4856 H         1 UNK         0.3029 
    127 H127      -51.3087  -27.6088   12.9216 H         1 UNK         0.0897 
    128 H128      -50.8111  -27.7648   10.4320 H         1 UNK         0.0792 
    129 H129      -50.3723  -26.0757   10.4463 H         1 UNK         0.0792 
    130 H130      -52.0156  -26.5515   10.8336 H         1 UNK         0.0792 
    131 H131      -48.6416  -27.4023   11.7904 H         1 UNK         0.3086 
    132 H132      -46.9560  -28.3177   14.7727 H         1 UNK         0.0583 
    133 H133      -46.2065  -30.3174   13.6356 H         1 UNK         0.1020 
    134 H134      -47.8505  -30.5465   14.1282 H         1 UNK         0.1020 
    135 H135      -49.0686  -32.2895   12.1697 H         1 UNK         0.0694 
    136 H136      -49.7867  -30.7963   12.7196 H         1 UNK         0.0694 
    137 H137      -46.0146  -28.1431   12.1206 H         1 UNK         0.2989 
    138 H138      -44.5893  -25.0738   12.5224 H         1 UNK         0.1055 
    139 H139      -43.9216  -27.3623   11.7383 H         1 UNK         0.0806 
    140 H140      -43.7902  -26.1692   10.4642 H         1 UNK         0.0806 
    141 H141      -45.1434  -27.2878   10.4668 H         1 UNK         0.0806 
    142 H142      -45.5658  -23.8606   10.9118 H         1 UNK         0.3061 
    143 H143      -47.5227  -22.9490    9.8575 H         1 UNK         0.0734 
    144 H144      -47.0556  -23.2444    7.3908 H         1 UNK         0.0832 
    145 H145      -45.6863  -23.7463    8.3689 H         1 UNK         0.0832 
    146 H146      -46.7451  -24.9577    7.6590 H         1 UNK         0.0832 
    147 H147      -49.1817  -25.1622    8.7459 H         1 UNK         0.3156 
    148 H148      -51.7610  -24.4223    9.6076 H         1 UNK         0.0589 
    149 H149      -52.1379  -22.0952    7.6690 H         1 UNK         0.0808 
    150 H150      -53.4289  -23.1461    8.2478 H         1 UNK         0.0808 
    151 H151      -52.5541  -22.1291    9.3761 H         1 UNK         0.0808 
    152 H152      -51.8392  -25.7514    7.8249 H         1 UNK         0.3098 
    153 H153      -52.4584  -25.9870    5.4857 H         1 UNK         0.0720 
    154 H154      -51.5795  -26.0281    3.1660 H         1 UNK         0.0791 
    155 H155      -50.2159  -25.0112    3.6286 H         1 UNK         0.0791 
    156 H156      -51.8532  -24.3676    3.6623 H         1 UNK         0.0791 
    157 H157      -49.6873  -26.7187    6.0571 H         1 UNK         0.3028 
@<TRIPOS>BOND
     1    1    2 1    
     2    1   82 1    
     3    1   83 1    
     4    1   84 1    
     5    2    3 2    
     6    2    4 am   BACKBONE|DICT|INTERRES
     7    4    5 1    
     8    4   85 1    
     9    5    6 1    
    10    5   80 1    
    11    5   86 1    
    12    6    7 1    
    13    6   87 1    
    14    6   88 1    
    15    7    8 1    
    16    8    9 1    
    17    8   89 1    
    18    8   90 1    
    19    9   10 ar   
    20    9   14 ar   
    21   10   11 ar   
    22   10   91 1    
    23   11   12 ar   
    24   11   58 1    
    25   12   13 ar   
    26   12   92 1    
    27   13   14 ar   
    28   13   15 1    
    29   14   93 1    
    30   15   16 1    
    31   15   94 1    
    32   15   95 1    
    33   16   17 1    
    34   17   18 1    
    35   17   96 1    
    36   17   97 1    
    37   18   19 1    
    38   18   22 1    
    39   18   98 1    
    40   19   20 am   BACKBONE|DICT|INTERRES
    41   19   21 2    
    42   20   99 1    
    43   20  100 1    
    44   22   23 am   BACKBONE|DICT|INTERRES
    45   22  101 1    
    46   23   24 2    
    47   23   25 1    
    48   25   26 1    
    49   25   27 1    
    50   25  102 1    
    51   26  103 1    
    52   26  104 1    
    53   26  105 1    
    54   27   28 am   BACKBONE|DICT|INTERRES
    55   27  106 1    
    56   28   29 2    
    57   28   30 1    
    58   30   31 1    
    59   30   32 1    
    60   30  107 1    
    61   31  108 1    
    62   31  109 1    
    63   31  110 1    
    64   32   33 am   BACKBONE|DICT|INTERRES
    65   32  111 1    
    66   33   34 2    
    67   33   35 1    
    68   35   36 1    
    69   35   37 1    
    70   35  112 1    
    71   36  113 1    
    72   36  114 1    
    73   36  115 1    
    74   37   38 am   BACKBONE|DICT|INTERRES
    75   37  116 1    
    76   38   39 2    
    77   38   40 1    
    78   40   41 1    
    79   40   42 1    
    80   40  117 1    
    81   41  118 1    
    82   41  119 1    
    83   41  120 1    
    84   42   43 am   BACKBONE|DICT|INTERRES
    85   42  121 1    
    86   43   44 2    
    87   43   45 1    
    88   45   46 1    
    89   45   47 1    
    90   45  122 1    
    91   46  123 1    
    92   46  124 1    
    93   46  125 1    
    94   47   48 am   BACKBONE|DICT|INTERRES
    95   47  126 1    
    96   48   49 2    
    97   48   50 1    
    98   50   51 1    
    99   50   52 1    
   100   50  127 1    
   101   51  128 1    
   102   51  129 1    
   103   51  130 1    
   104   52   53 am   BACKBONE|DICT|INTERRES
   105   52  131 1    
   106   53   54 2    
   107   53   55 1    
   108   55   56 1    
   109   55   59 1    
   110   55  132 1    
   111   56   57 1    
   112   56  133 1    
   113   56  134 1    
   114   57   58 1    
   115   58  135 1    
   116   58  136 1    
   117   59   60 am   BACKBONE|DICT|INTERRES
   118   59  137 1    
   119   60   61 2    
   120   60   62 1    
   121   62   63 1    
   122   62   64 1    
   123   62  138 1    
   124   63  139 1    
   125   63  140 1    
   126   63  141 1    
   127   64   65 am   BACKBONE|DICT|INTERRES
   128   64  142 1    
   129   65   66 2    
   130   65   67 1    
   131   67   68 1    
   132   67   69 1    
   133   67  143 1    
   134   68  144 1    
   135   68  145 1    
   136   68  146 1    
   137   69   70 am   BACKBONE|DICT|INTERRES
   138   69  147 1    
   139   70   71 2    
   140   70   72 1    
   141   72   73 1    
   142   72   74 1    
   143   72  148 1    
   144   73  149 1    
   145   73  150 1    
   146   73  151 1    
   147   74   75 am   BACKBONE|DICT|INTERRES
   148   74  152 1    
   149   75   76 2    
   150   75   77 1    
   151   77   78 1    
   152   77   79 1    
   153   77  153 1    
   154   78  154 1    
   155   78  155 1    
   156   78  156 1    
   157   79   80 am   BACKBONE|DICT|INTERRES
   158   79  157 1    
   159   80   81 2    
@<TRIPOS>SUBSTRUCTURE
     1 UNK         1 GROUP             0       ****    0 ROOT    
