@<TRIPOS>MOLECULE
3R207
157   159    1
SMALL
USER_CHARGES


@<TRIPOS>ATOM
      1 CA        -50.0314  -27.4778   10.4506 C.3       0 UNK        -0.1975 
      2 C         -50.9193  -27.0912    9.2863 C.2       0 UNK         0.4852 
      3 O         -51.9296  -26.4182    9.5026 O.2       0 UNK        -0.5216 
      4 N         -50.5162  -27.4711    8.0628 N.am      1 UNK        -0.4461 
      5 CA        -51.1984  -27.2564    6.7740 C.3       1 UNK         0.0864 
      6 C6        -52.2780  -28.3331    6.4861 C.3       14 UNK        -0.0898 
      7 S7        -51.5250  -29.9597    6.1436 S.3       14 UNK        -0.2598 
      8 C8        -52.3237  -31.0482    7.3675 C.3       14 UNK         0.0286 
      9 C9        -51.7048  -30.9373    8.7547 C.ar      14 UNK        -0.0844 
     10 C10       -50.3541  -31.2417    8.9542 C.ar      14 UNK        -0.0881 
     11 C11       -49.7894  -31.1712   10.2315 C.ar      14 UNK        -0.0643 
     12 C12       -50.5950  -30.8241   11.3199 C.ar      14 UNK        -0.0930 
     13 C13       -51.9457  -30.5163   11.1355 C.ar      14 UNK        -0.0827 
     14 C14       -52.4922  -30.5711    9.8495 C.ar      14 UNK        -0.1249 
     15 C15       -52.8039  -30.0851   12.3159 C.3       14 UNK         0.0141 
     16 S16       -54.1934  -31.2261   12.6078 S.3       14 UNK        -0.2313 
     17 C17       -55.3557  -30.1511   13.5196 C.3       14 UNK        -0.0915 
     18 CA        -56.4125  -29.5045   12.5811 C.3       13 UNK         0.0968 
     19 C         -57.5554  -28.7987   13.3675 C.2       13 UNK         0.5732 
     20 N         -57.9316  -27.5643   13.0475 N.am      13 UNK        -0.7310 
     21 O         -58.1383  -29.3940   14.2710 O.2       13 UNK        -0.5035 
     22 N         -55.7694  -28.6136   11.6091 N.am      13 UNK        -0.4233 
     23 C         -55.8960  -28.6768   10.2797 C.2       13 UNK         0.4989 
     24 O         -56.5700  -29.5270    9.6958 O.2       13 UNK        -0.4996 
     25 CA        -55.1095  -27.6369    9.4534 C.3       12 UNK         0.0216 
     26 CB        -55.8336  -27.2416    8.1500 C.3       12 UNK        -0.1964 
     27 N         -54.6891  -26.4408   10.1944 N.am      12 UNK        -0.4276 
     28 C         -55.4801  -25.5720   10.8393 C.2       12 UNK         0.5020 
     29 O         -56.7053  -25.6906   10.9220 O.2       12 UNK        -0.5489 
     30 CA        -54.7653  -24.4134   11.5605 C.3       11 UNK         0.0294 
     31 CB        -55.7535  -23.4511   12.2502 C.3       11 UNK        -0.2019 
     32 N         -53.7416  -24.8337   12.5318 N.am      11 UNK        -0.4493 
     33 C         -53.8446  -25.7739   13.4851 C.2       11 UNK         0.4932 
     34 O         -54.7842  -26.5629   13.5779 O.2       11 UNK        -0.5029 
     35 CA        -52.7084  -25.8690   14.5201 C.3       10 UNK         0.0280 
     36 CB        -51.9206  -27.1700   14.3415 C.3       10 UNK        -0.1976 
     37 N         -51.7766  -24.7332   14.5219 N.am      10 UNK        -0.4242 
     38 C         -52.0354  -23.5570   15.1168 C.2       10 UNK         0.5072 
     39 O         -53.1224  -23.2945   15.6337 O.2       10 UNK        -0.5224 
     40 CA        -50.9298  -22.4776   15.1347 C.3       9 UNK         0.0343 
     41 CB        -50.8424  -21.7573   16.4979 C.3       9 UNK        -0.2003 
     42 N         -49.6063  -22.9362   14.6933 N.am      9 UNK        -0.4272 
     43 C         -48.7903  -23.8037   15.3078 C.2       9 UNK         0.4988 
     44 O         -49.0379  -24.3620   16.3784 O.2       9 UNK        -0.5108 
     45 CA        -47.4618  -24.0997   14.5907 C.3       8 UNK         0.0248 
     46 CB        -46.2875  -23.4165   15.3090 C.3       8 UNK        -0.2001 
     47 N         -47.2003  -25.5362   14.4797 N.am      8 UNK        -0.4140 
     48 C         -47.9949  -26.4001   13.8359 C.2       8 UNK         0.5028 
     49 O         -49.0081  -26.0639   13.2196 O.2       8 UNK        -0.5428 
     50 CA        -47.5720  -27.8731   13.8742 C.3       7 UNK         0.0264 
     51 CB        -48.7742  -28.8297   13.9844 C.3       7 UNK        -0.1988 
     52 N         -46.7861  -28.1817   12.6810 N.am      7 UNK        -0.4454 
     53 C         -45.9042  -29.1899   12.6060 C.2       7 UNK         0.5027 
     54 O         -45.6884  -29.9706   13.5351 O.2       7 UNK        -0.5083 
     55 CA        -45.1069  -29.3710   11.2951 C.3       6 UNK         0.0844 
     56 C56       -45.6488  -30.5363   10.4288 C.3       14 UNK        -0.0967 
     57 S57       -47.2680  -30.1908    9.6573 S.3       14 UNK        -0.2604 
     58 C58       -48.3106  -31.4638   10.4372 C.3       14 UNK         0.0134 
     59 N         -44.9503  -28.1403   10.5176 N.am      6 UNK        -0.4116 
     60 C         -44.2206  -27.0801   10.8852 C.2       5 UNK         0.5034 
     61 O         -43.6374  -26.9865   11.9660 O.2       5 UNK        -0.5045 
     62 CA        -44.1000  -25.9280    9.8739 C.3       5 UNK         0.0224 
     63 CB        -44.2493  -26.3695    8.3987 C.3       5 UNK        -0.1978 
     64 N         -45.0101  -24.8234   10.1899 N.am      5 UNK        -0.4737 
     65 C         -46.3491  -24.8540   10.2035 C.2       4 UNK         0.5027 
     66 O         -47.0233  -25.8611    9.9698 O.2       4 UNK        -0.5211 
     67 CA        -47.0430  -23.5200   10.5077 C.3       4 UNK         0.0297 
     68 CB        -46.6309  -22.4168    9.5118 C.3       4 UNK        -0.1993 
     69 N         -48.4878  -23.7034   10.4371 N.am      4 UNK        -0.4486 
     70 C         -49.4006  -23.0019   11.1147 C.2       3 UNK         0.4961 
     71 O         -49.1157  -22.1810   11.9895 O.2       3 UNK        -0.5105 
     72 CA        -50.8798  -23.2543   10.7529 C.3       3 UNK         0.0299 
     73 CB        -51.7857  -22.0714   11.1642 C.3       3 UNK        -0.1972 
     74 N         -51.0845  -23.5893    9.3347 N.am      3 UNK        -0.4305 
     75 C         -50.8122  -22.8095    8.2727 C.2       2 UNK         0.5006 
     76 O         -50.3559  -21.6687    8.3610 O.2       2 UNK        -0.5106 
     77 CA        -51.0774  -23.4089    6.8787 C.3       2 UNK         0.0296 
     78 CB        -50.2326  -22.7389    5.7774 C.3       2 UNK        -0.2002 
     79 N         -50.8106  -24.8478    6.8744 N.am      2 UNK        -0.4032 
     80 C         -51.7009  -25.8055    6.5838 C.2       1 UNK         0.5000 
     81 O         -52.8561  -25.5812    6.2159 O.2       1 UNK        -0.5238 
     82 H82       -49.3017  -28.2352   10.1747 H         1 UNK         0.0889 
     83 H83       -50.6364  -27.8683   11.2653 H         1 UNK         0.0889 
     84 H84       -49.4944  -26.6022   10.8071 H         1 UNK         0.0889 
     85 H85       -49.6697  -28.0192    7.9955 H         1 UNK         0.3028 
     86 H86       -50.4260  -27.3690    6.0111 H         1 UNK         0.0864 
     87 H87       -52.9809  -28.4051    7.3140 H         1 UNK         0.0720 
     88 H88       -52.8686  -28.0759    5.6050 H         1 UNK         0.0720 
     89 H89       -52.2244  -32.0803    7.0288 H         1 UNK         0.0814 
     90 H90       -53.3947  -30.8404    7.3932 H         1 UNK         0.0814 
     91 H91       -49.7368  -31.5218    8.1114 H         1 UNK         0.1469 
     92 H92       -50.1657  -30.7818   12.3104 H         1 UNK         0.1381 
     93 H93       -53.5394  -30.3477    9.7072 H         1 UNK         0.1206 
     94 H94       -53.1707  -29.0772   12.1233 H         1 UNK         0.0813 
     95 H95       -52.2075  -30.0287   13.2272 H         1 UNK         0.0813 
     96 H96       -54.8030  -29.3875   14.0697 H         1 UNK         0.0638 
     97 H97       -55.8419  -30.7748   14.2715 H         1 UNK         0.0638 
     98 H98       -56.9101  -30.3174   12.0500 H         1 UNK         0.0568 
     99 H99       -57.4639  -27.0489   12.3100 H         1 UNK         0.3450 
    100 H100      -58.6785  -27.1301   13.5647 H         1 UNK         0.3450 
    101 H101      -55.2633  -27.8378   12.0214 H         1 UNK         0.2987 
    102 H102      -54.1830  -28.1364    9.1769 H         1 UNK         0.0766 
    103 H103      -55.2328  -26.5487    7.5603 H         1 UNK         0.0798 
    104 H104      -56.7947  -26.7675    8.3511 H         1 UNK         0.0798 
    105 H105      -56.0233  -28.1137    7.5233 H         1 UNK         0.0798 
    106 H106      -53.6840  -26.2726   10.1770 H         1 UNK         0.3198 
    107 H107      -54.2538  -23.8584   10.7750 H         1 UNK         0.0843 
    108 H108      -56.3013  -23.9474   13.0523 H         1 UNK         0.0831 
    109 H109      -56.4883  -23.0667   11.5415 H         1 UNK         0.0831 
    110 H110      -55.2377  -22.5921   12.6794 H         1 UNK         0.0831 
    111 H111      -52.9027  -24.2753   12.5474 H         1 UNK         0.3133 
    112 H112      -53.1845  -25.9151   15.5021 H         1 UNK         0.0566 
    113 H113      -51.4596  -27.2292   13.3565 H         1 UNK         0.0814 
    114 H114      -51.1362  -27.2529   15.0924 H         1 UNK         0.0814 
    115 H115      -52.5723  -28.0354   14.4606 H         1 UNK         0.0814 
    116 H116      -50.8546  -24.8994   14.1356 H         1 UNK         0.3091 
    117 H117      -51.2347  -21.7272   14.4060 H         1 UNK         0.0702 
    118 H118      -50.0676  -20.9906   16.4933 H         1 UNK         0.0785 
    119 H119      -50.6258  -22.4499   17.3116 H         1 UNK         0.0785 
    120 H120      -51.7832  -21.2612   16.7399 H         1 UNK         0.0785 
    121 H121      -49.3110  -22.5670   13.7899 H         1 UNK         0.2998 
    122 H122      -47.5180  -23.7022   13.5782 H         1 UNK         0.0697 
    123 H123      -46.1611  -23.7943   16.3246 H         1 UNK         0.0825 
    124 H124      -46.4482  -22.3398   15.3802 H         1 UNK         0.0825 
    125 H125      -45.3501  -23.5680   14.7734 H         1 UNK         0.0825 
    126 H126      -46.3926  -25.8882   14.9727 H         1 UNK         0.3029 
    127 H127      -46.9468  -28.0194   14.7581 H         1 UNK         0.0897 
    128 H128      -48.4585  -29.8726   13.9979 H         1 UNK         0.0792 
    129 H129      -49.4664  -28.7005   13.1543 H         1 UNK         0.0792 
    130 H130      -49.3235  -28.6534   14.9084 H         1 UNK         0.0792 
    131 H131      -46.9134  -27.5683   11.8844 H         1 UNK         0.3086 
    132 H132      -44.1008  -29.6615   11.6057 H         1 UNK         0.0583 
    133 H133      -44.9403  -30.7483    9.6265 H         1 UNK         0.1020 
    134 H134      -45.6967  -31.4565   11.0147 H         1 UNK         0.1020 
    135 H135      -48.0671  -32.4406   10.0168 H         1 UNK         0.0694 
    136 H136      -48.0798  -31.5144   11.5027 H         1 UNK         0.0694 
    137 H137      -45.4507  -28.1013    9.6410 H         1 UNK         0.2989 
    138 H138      -43.0877  -25.5363    9.9889 H         1 UNK         0.1055 
    139 H139      -43.5600  -27.1810    8.1610 H         1 UNK         0.0806 
    140 H140      -44.0169  -25.5468    7.7224 H         1 UNK         0.0806 
    141 H141      -45.2560  -26.7125    8.1588 H         1 UNK         0.0806 
    142 H142      -44.5562  -23.9531   10.4313 H         1 UNK         0.3061 
    143 H143      -46.7539  -23.2189   11.5150 H         1 UNK         0.0734 
    144 H144      -45.5658  -22.1930    9.5740 H         1 UNK         0.0832 
    145 H145      -47.1619  -21.4856    9.7114 H         1 UNK         0.0832 
    146 H146      -46.8469  -22.7053    8.4822 H         1 UNK         0.0832 
    147 H147      -48.7820  -24.4493    9.8224 H         1 UNK         0.3156 
    148 H148      -51.1868  -24.1354   11.3172 H         1 UNK         0.0589 
    149 H149      -51.3863  -21.1198   10.8107 H         1 UNK         0.0808 
    150 H150      -52.7921  -22.1639   10.7612 H         1 UNK         0.0808 
    151 H151      -51.8738  -21.9990   12.2460 H         1 UNK         0.0808 
    152 H152      -51.4632  -24.5171    9.1631 H         1 UNK         0.3098 
    153 H153      -52.1297  -23.2157    6.6609 H         1 UNK         0.0720 
    154 H154      -50.4529  -21.6730    5.7053 H         1 UNK         0.0791 
    155 H155      -50.4394  -23.1755    4.8002 H         1 UNK         0.0791 
    156 H156      -49.1640  -22.8405    5.9713 H         1 UNK         0.0791 
    157 H157      -49.8889  -25.1323    7.1752 H         1 UNK         0.3028 
@<TRIPOS>BOND
     1    1    2 1    
     2    1   82 1    
     3    1   83 1    
     4    1   84 1    
     5    2    3 2    
     6    2    4 am   BACKBONE|DICT|INTERRES
     7    4    5 1    
     8    4   85 1    
     9    5    6 1    
    10    5   80 1    
    11    5   86 1    
    12    6    7 1    
    13    6   87 1    
    14    6   88 1    
    15    7    8 1    
    16    8    9 1    
    17    8   89 1    
    18    8   90 1    
    19    9   10 ar   
    20    9   14 ar   
    21   10   11 ar   
    22   10   91 1    
    23   11   12 ar   
    24   11   58 1    
    25   12   13 ar   
    26   12   92 1    
    27   13   14 ar   
    28   13   15 1    
    29   14   93 1    
    30   15   16 1    
    31   15   94 1    
    32   15   95 1    
    33   16   17 1    
    34   17   18 1    
    35   17   96 1    
    36   17   97 1    
    37   18   19 1    
    38   18   22 1    
    39   18   98 1    
    40   19   20 am   BACKBONE|DICT|INTERRES
    41   19   21 2    
    42   20   99 1    
    43   20  100 1    
    44   22   23 am   BACKBONE|DICT|INTERRES
    45   22  101 1    
    46   23   24 2    
    47   23   25 1    
    48   25   26 1    
    49   25   27 1    
    50   25  102 1    
    51   26  103 1    
    52   26  104 1    
    53   26  105 1    
    54   27   28 am   BACKBONE|DICT|INTERRES
    55   27  106 1    
    56   28   29 2    
    57   28   30 1    
    58   30   31 1    
    59   30   32 1    
    60   30  107 1    
    61   31  108 1    
    62   31  109 1    
    63   31  110 1    
    64   32   33 am   BACKBONE|DICT|INTERRES
    65   32  111 1    
    66   33   34 2    
    67   33   35 1    
    68   35   36 1    
    69   35   37 1    
    70   35  112 1    
    71   36  113 1    
    72   36  114 1    
    73   36  115 1    
    74   37   38 am   BACKBONE|DICT|INTERRES
    75   37  116 1    
    76   38   39 2    
    77   38   40 1    
    78   40   41 1    
    79   40   42 1    
    80   40  117 1    
    81   41  118 1    
    82   41  119 1    
    83   41  120 1    
    84   42   43 am   BACKBONE|DICT|INTERRES
    85   42  121 1    
    86   43   44 2    
    87   43   45 1    
    88   45   46 1    
    89   45   47 1    
    90   45  122 1    
    91   46  123 1    
    92   46  124 1    
    93   46  125 1    
    94   47   48 am   BACKBONE|DICT|INTERRES
    95   47  126 1    
    96   48   49 2    
    97   48   50 1    
    98   50   51 1    
    99   50   52 1    
   100   50  127 1    
   101   51  128 1    
   102   51  129 1    
   103   51  130 1    
   104   52   53 am   BACKBONE|DICT|INTERRES
   105   52  131 1    
   106   53   54 2    
   107   53   55 1    
   108   55   56 1    
   109   55   59 1    
   110   55  132 1    
   111   56   57 1    
   112   56  133 1    
   113   56  134 1    
   114   57   58 1    
   115   58  135 1    
   116   58  136 1    
   117   59   60 am   BACKBONE|DICT|INTERRES
   118   59  137 1    
   119   60   61 2    
   120   60   62 1    
   121   62   63 1    
   122   62   64 1    
   123   62  138 1    
   124   63  139 1    
   125   63  140 1    
   126   63  141 1    
   127   64   65 am   BACKBONE|DICT|INTERRES
   128   64  142 1    
   129   65   66 2    
   130   65   67 1    
   131   67   68 1    
   132   67   69 1    
   133   67  143 1    
   134   68  144 1    
   135   68  145 1    
   136   68  146 1    
   137   69   70 am   BACKBONE|DICT|INTERRES
   138   69  147 1    
   139   70   71 2    
   140   70   72 1    
   141   72   73 1    
   142   72   74 1    
   143   72  148 1    
   144   73  149 1    
   145   73  150 1    
   146   73  151 1    
   147   74   75 am   BACKBONE|DICT|INTERRES
   148   74  152 1    
   149   75   76 2    
   150   75   77 1    
   151   77   78 1    
   152   77   79 1    
   153   77  153 1    
   154   78  154 1    
   155   78  155 1    
   156   78  156 1    
   157   79   80 am   BACKBONE|DICT|INTERRES
   158   79  157 1    
   159   80   81 2    
@<TRIPOS>SUBSTRUCTURE
     1 UNK         1 GROUP             0       ****    0 ROOT    
