@<TRIPOS>MOLECULE
3R207
157   159    1
SMALL
USER_CHARGES


@<TRIPOS>ATOM
      1 CA        -48.6782  -30.8825    2.8689 C.3       0 UNK        -0.1975 
      2 C         -49.3012  -29.8475    3.7943 C.2       0 UNK         0.4852 
      3 O         -50.1919  -29.1106    3.3705 O.2       0 UNK        -0.5216 
      4 N         -48.8426  -29.7978    5.0522 N.am      1 UNK        -0.4461 
      5 CA        -49.2930  -28.8662    6.0918 C.3       1 UNK         0.0864 
      6 C6        -48.6978  -29.2319    7.4750 C.3       14 UNK        -0.0898 
      7 S7        -49.4619  -30.7177    8.1972 S.3       14 UNK        -0.2598 
      8 C8        -50.3392  -30.0054    9.6265 C.3       14 UNK         0.0286 
      9 C9        -51.6358  -29.3203    9.2179 C.ar      14 UNK        -0.0844 
     10 C10       -51.6393  -27.9838    8.8057 C.ar      14 UNK        -0.0881 
     11 C11       -52.8358  -27.3415    8.4755 C.ar      14 UNK        -0.0643 
     12 C12       -54.0377  -28.0507    8.5545 C.ar      14 UNK        -0.0930 
     13 C13       -54.0467  -29.3911    8.9506 C.ar      14 UNK        -0.0827 
     14 C14       -52.8428  -30.0216    9.2767 C.ar      14 UNK        -0.1249 
     15 C15       -55.3590  -30.1556    9.0248 C.3       14 UNK         0.0141 
     16 S16       -56.2081  -29.8714   10.6075 S.3       14 UNK        -0.2313 
     17 C17       -55.1587  -30.8341   11.7470 C.3       14 UNK        -0.0915 
     18 CA        -55.7647  -30.9043   13.1695 C.3       13 UNK         0.0968 
     19 C         -54.9714  -31.8945   14.0636 C.2       13 UNK         0.5732 
     20 N         -55.3324  -33.1705   14.0457 N.am      13 UNK        -0.7310 
     21 O         -54.0118  -31.5270   14.7395 O.2       13 UNK        -0.5035 
     22 N         -55.8502  -29.5686   13.7714 N.am      13 UNK        -0.4233 
     23 C         -56.6234  -29.2448   14.8129 C.2       13 UNK         0.4989 
     24 O         -57.4129  -30.0283   15.3437 O.2       13 UNK        -0.4996 
     25 CA        -56.5075  -27.8132   15.3674 C.3       12 UNK         0.0216 
     26 CB        -56.0831  -27.8359   16.8465 C.3       12 UNK        -0.1964 
     27 N         -55.5707  -26.9670   14.6189 N.am      12 UNK        -0.4276 
     28 C         -55.8939  -26.2341   13.5411 C.2       12 UNK         0.5020 
     29 O         -57.0074  -26.2732   13.0145 O.2       12 UNK        -0.5489 
     30 CA        -54.8074  -25.3011   12.9514 C.3       11 UNK         0.0294 
     31 CB        -55.4048  -24.0513   12.2732 C.3       11 UNK        -0.2019 
     32 N         -53.7644  -24.9111   13.9091 N.am      11 UNK        -0.4493 
     33 C         -53.9216  -24.3360   15.1126 C.2       11 UNK         0.4932 
     34 O         -54.9959  -23.8994   15.5288 O.2       11 UNK        -0.5029 
     35 CA        -52.6759  -24.2898   16.0246 C.3       10 UNK         0.0280 
     36 CB        -53.0449  -24.3192   17.5224 C.3       10 UNK        -0.1976 
     37 N         -51.6816  -25.3330   15.7293 N.am      10 UNK        -0.4242 
     38 C         -51.8662  -26.6640   15.6946 C.2       10 UNK         0.5072 
     39 O         -52.9443  -27.2026   15.9486 O.2       10 UNK        -0.5224 
     40 CA        -50.6897  -27.5521   15.2393 C.3       9 UNK         0.0343 
     41 CB        -51.0643  -28.3162   13.9559 C.3       9 UNK        -0.2003 
     42 N         -49.4500  -26.8098   14.9974 N.am      9 UNK        -0.4272 
     43 C         -48.6131  -26.3725   15.9482 C.2       9 UNK         0.4988 
     44 O         -48.7448  -26.6244   17.1461 O.2       9 UNK        -0.5108 
     45 CA        -47.4622  -25.4572   15.4895 C.3       8 UNK         0.0248 
     46 CB        -46.2588  -26.2898   15.0206 C.3       8 UNK        -0.2001 
     47 N         -47.8606  -24.5127   14.4371 N.am      8 UNK        -0.4140 
     48 C         -48.8023  -23.5680   14.5877 C.2       8 UNK         0.5028 
     49 O         -49.3982  -23.3634   15.6448 O.2       8 UNK        -0.5428 
     50 CA        -49.1925  -22.7475   13.3488 C.3       7 UNK         0.0264 
     51 CB        -48.1821  -21.6168   13.0996 C.3       7 UNK        -0.1988 
     52 N         -49.3338  -23.5666   12.1439 N.am      7 UNK        -0.4454 
     53 C         -50.2468  -24.5361   11.9761 C.2       7 UNK         0.5027 
     54 O         -51.1060  -24.8213   12.8105 O.2       7 UNK        -0.5083 
     55 CA        -50.1470  -25.3684   10.6819 C.3       6 UNK         0.0844 
     56 C56       -50.7495  -24.6241    9.4643 C.3       14 UNK        -0.0967 
     57 S57       -52.5708  -24.7310    9.3986 S.3       14 UNK        -0.2604 
     58 C58       -52.8342  -25.8898    8.0165 C.3       14 UNK         0.0134 
     59 N         -48.7728  -25.8050   10.4233 N.am      6 UNK        -0.4116 
     60 C         -48.0379  -26.5744   11.2380 C.2       5 UNK         0.5034 
     61 O         -48.4672  -27.0902   12.2685 O.2       5 UNK        -0.5045 
     62 CA        -46.5559  -26.7491   10.8717 C.3       5 UNK         0.0224 
     63 CB        -46.3504  -27.9069    9.8839 C.3       5 UNK        -0.1978 
     64 N         -45.9787  -25.5221   10.3191 N.am      5 UNK        -0.4737 
     65 C         -45.7189  -24.4228   11.0384 C.2       4 UNK         0.5027 
     66 O         -45.8966  -24.3454   12.2538 O.2       4 UNK        -0.5211 
     67 CA        -45.2164  -23.1941   10.2613 C.3       4 UNK         0.0297 
     68 CB        -43.7104  -23.3104    9.9783 C.3       4 UNK        -0.1993 
     69 N         -45.9412  -22.9799    9.0041 N.am      4 UNK        -0.4486 
     70 C         -47.2397  -22.6555    8.9320 C.2       3 UNK         0.4961 
     71 O         -47.9574  -22.4880    9.9165 O.2       3 UNK        -0.5105 
     72 CA        -47.8622  -22.5361    7.5300 C.3       3 UNK         0.0299 
     73 CB        -47.6160  -21.1328    6.9538 C.3       3 UNK        -0.1972 
     74 N         -47.4280  -23.5496    6.5597 N.am      3 UNK        -0.4305 
     75 C         -47.4608  -24.8764    6.7462 C.2       2 UNK         0.5006 
     76 O         -47.7262  -25.4130    7.8245 O.2       2 UNK        -0.5106 
     77 CA        -47.1083  -25.7480    5.5257 C.3       2 UNK         0.0296 
     78 CB        -45.5819  -25.8445    5.3665 C.3       2 UNK        -0.2002 
     79 N         -47.6574  -27.1033    5.6345 N.am      2 UNK        -0.4032 
     80 C         -48.9617  -27.4027    5.7393 C.2       1 UNK         0.5000 
     81 O         -49.8727  -26.5844    5.5974 O.2       1 UNK        -0.5238 
     82 H82       -47.9116  -31.4719    3.3717 H         1 UNK         0.0889 
     83 H83       -48.2195  -30.3910    2.0113 H         1 UNK         0.0889 
     84 H84       -49.4434  -31.5656    2.5011 H         1 UNK         0.0889 
     85 H85       -48.1304  -30.4544    5.3385 H         1 UNK         0.3028 
     86 H86       -50.3816  -28.9372    6.1543 H         1 UNK         0.0864 
     87 H87       -47.6242  -29.4119    7.3982 H         1 UNK         0.0720 
     88 H88       -48.8027  -28.4061    8.1787 H         1 UNK         0.0720 
     89 H89       -49.6914  -29.3077   10.1602 H         1 UNK         0.0814 
     90 H90       -50.5542  -30.8075   10.3342 H         1 UNK         0.0814 
     91 H91       -50.7129  -27.4339    8.7471 H         1 UNK         0.1469 
     92 H92       -54.9696  -27.5614    8.3059 H         1 UNK         0.1381 
     93 H93       -52.8474  -31.0569    9.5894 H         1 UNK         0.1206 
     94 H94       -56.0143  -29.8386    8.2120 H         1 UNK         0.0813 
     95 H95       -55.1933  -31.2244    8.8808 H         1 UNK         0.0813 
     96 H96       -55.0404  -31.8361   11.3301 H         1 UNK         0.0638 
     97 H97       -54.1629  -30.3883   11.7784 H         1 UNK         0.0638 
     98 H98       -56.7828  -31.2894   13.0798 H         1 UNK         0.0568 
     99 H99       -54.8200  -33.8313   14.6085 H         1 UNK         0.3450 
    100 H100      -56.1102  -33.4856   13.4869 H         1 UNK         0.3450 
    101 H101      -55.2210  -28.8720   13.4051 H         1 UNK         0.2987 
    102 H102      -57.5035  -27.3682   15.3147 H         1 UNK         0.0766 
    103 H103      -55.9859  -26.8268   17.2483 H         1 UNK         0.0798 
    104 H104      -55.1285  -28.3454   16.9843 H         1 UNK         0.0798 
    105 H105      -56.8203  -28.3581   17.4577 H         1 UNK         0.0798 
    106 H106      -54.6287  -26.9016   14.9999 H         1 UNK         0.3198 
    107 H107      -54.3015  -25.8827   12.1787 H         1 UNK         0.0843 
    108 H108      -55.9703  -23.4414   12.9782 H         1 UNK         0.0831 
    109 H109      -56.0816  -24.3290   11.4643 H         1 UNK         0.0831 
    110 H110      -54.6239  -23.4278   11.8374 H         1 UNK         0.0831 
    111 H111      -52.8109  -25.1364   13.6309 H         1 UNK         0.3133 
    112 H112      -52.1865  -23.3371   15.8191 H         1 UNK         0.0566 
    113 H113      -52.1550  -24.2708   18.1500 H         1 UNK         0.0814 
    114 H114      -53.6741  -23.4695   17.7901 H         1 UNK         0.0814 
    115 H115      -53.5922  -25.2256   17.7845 H         1 UNK         0.0814 
    116 H116      -50.7649  -24.9779   15.4826 H         1 UNK         0.3091 
    117 H117      -50.5107  -28.2824   16.0310 H         1 UNK         0.0702 
    118 H118      -51.9504  -28.9346   14.1082 H         1 UNK         0.0785 
    119 H119      -50.2590  -28.9798   13.6403 H         1 UNK         0.0785 
    120 H120      -51.2774  -27.6363   13.1299 H         1 UNK         0.0785 
    121 H121      -49.2227  -26.6196   14.0252 H         1 UNK         0.2998 
    122 H122      -47.1478  -24.8668   16.3526 H         1 UNK         0.0697 
    123 H123      -46.5103  -26.9176   14.1663 H         1 UNK         0.0825 
    124 H124      -45.9087  -26.9490   15.8160 H         1 UNK         0.0825 
    125 H125      -45.4212  -25.6532   14.7348 H         1 UNK         0.0825 
    126 H126      -47.3635  -24.5727   13.5523 H         1 UNK         0.3029 
    127 H127      -50.1652  -22.2934   13.5503 H         1 UNK         0.0897 
    128 H128      -48.5021  -20.9747   12.2786 H         1 UNK         0.0792 
    129 H129      -48.0762  -20.9854   13.9827 H         1 UNK         0.0792 
    130 H130      -47.1931  -22.0038   12.8531 H         1 UNK         0.0792 
    131 H131      -48.7017  -23.3496   11.3752 H         1 UNK         0.3086 
    132 H132      -50.7236  -26.2795   10.8519 H         1 UNK         0.0583 
    133 H133      -50.4622  -23.5710    9.4602 H         1 UNK         0.1020 
    134 H134      -50.3438  -25.0288    8.5361 H         1 UNK         0.1020 
    135 H135      -53.7893  -25.6460    7.5491 H         1 UNK         0.0694 
    136 H136      -52.0811  -25.7434    7.2409 H         1 UNK         0.0694 
    137 H137      -48.3380  -25.4722    9.5655 H         1 UNK         0.2989 
    138 H138      -46.0229  -26.9954   11.7925 H         1 UNK         0.1055 
    139 H139      -46.8773  -28.8053   10.2092 H         1 UNK         0.0806 
    140 H140      -45.2948  -28.1648    9.7981 H         1 UNK         0.0806 
    141 H141      -46.7079  -27.6530    8.8873 H         1 UNK         0.0806 
    142 H142      -45.8803  -25.4763    9.3142 H         1 UNK         0.3061 
    143 H143      -45.3764  -22.3177   10.8933 H         1 UNK         0.0734 
    144 H144      -43.3241  -22.4065    9.5070 H         1 UNK         0.0832 
    145 H145      -43.1513  -23.4547   10.9040 H         1 UNK         0.0832 
    146 H146      -43.4826  -24.1542    9.3258 H         1 UNK         0.0832 
    147 H147      -45.4278  -23.1053    8.1439 H         1 UNK         0.3156 
    148 H148      -48.9400  -22.6619    7.6494 H         1 UNK         0.0589 
    149 H149      -46.5585  -20.9571    6.7526 H         1 UNK         0.0808 
    150 H150      -48.1651  -20.9820    6.0242 H         1 UNK         0.0808 
    151 H151      -47.9475  -20.3608    7.6502 H         1 UNK         0.0808 
    152 H152      -47.1716  -23.2052    5.6454 H         1 UNK         0.3098 
    153 H153      -47.5343  -25.2848    4.6334 H         1 UNK         0.0720 
    154 H154      -45.3108  -26.4323    4.4891 H         1 UNK         0.0791 
    155 H155      -45.1137  -26.3060    6.2373 H         1 UNK         0.0791 
    156 H156      -45.1340  -24.8579    5.2407 H         1 UNK         0.0791 
    157 H157      -46.9870  -27.8465    5.7603 H         1 UNK         0.3028 
@<TRIPOS>BOND
     1    1    2 1    
     2    1   82 1    
     3    1   83 1    
     4    1   84 1    
     5    2    3 2    
     6    2    4 am   BACKBONE|DICT|INTERRES
     7    4    5 1    
     8    4   85 1    
     9    5    6 1    
    10    5   80 1    
    11    5   86 1    
    12    6    7 1    
    13    6   87 1    
    14    6   88 1    
    15    7    8 1    
    16    8    9 1    
    17    8   89 1    
    18    8   90 1    
    19    9   10 ar   
    20    9   14 ar   
    21   10   11 ar   
    22   10   91 1    
    23   11   12 ar   
    24   11   58 1    
    25   12   13 ar   
    26   12   92 1    
    27   13   14 ar   
    28   13   15 1    
    29   14   93 1    
    30   15   16 1    
    31   15   94 1    
    32   15   95 1    
    33   16   17 1    
    34   17   18 1    
    35   17   96 1    
    36   17   97 1    
    37   18   19 1    
    38   18   22 1    
    39   18   98 1    
    40   19   20 am   BACKBONE|DICT|INTERRES
    41   19   21 2    
    42   20   99 1    
    43   20  100 1    
    44   22   23 am   BACKBONE|DICT|INTERRES
    45   22  101 1    
    46   23   24 2    
    47   23   25 1    
    48   25   26 1    
    49   25   27 1    
    50   25  102 1    
    51   26  103 1    
    52   26  104 1    
    53   26  105 1    
    54   27   28 am   BACKBONE|DICT|INTERRES
    55   27  106 1    
    56   28   29 2    
    57   28   30 1    
    58   30   31 1    
    59   30   32 1    
    60   30  107 1    
    61   31  108 1    
    62   31  109 1    
    63   31  110 1    
    64   32   33 am   BACKBONE|DICT|INTERRES
    65   32  111 1    
    66   33   34 2    
    67   33   35 1    
    68   35   36 1    
    69   35   37 1    
    70   35  112 1    
    71   36  113 1    
    72   36  114 1    
    73   36  115 1    
    74   37   38 am   BACKBONE|DICT|INTERRES
    75   37  116 1    
    76   38   39 2    
    77   38   40 1    
    78   40   41 1    
    79   40   42 1    
    80   40  117 1    
    81   41  118 1    
    82   41  119 1    
    83   41  120 1    
    84   42   43 am   BACKBONE|DICT|INTERRES
    85   42  121 1    
    86   43   44 2    
    87   43   45 1    
    88   45   46 1    
    89   45   47 1    
    90   45  122 1    
    91   46  123 1    
    92   46  124 1    
    93   46  125 1    
    94   47   48 am   BACKBONE|DICT|INTERRES
    95   47  126 1    
    96   48   49 2    
    97   48   50 1    
    98   50   51 1    
    99   50   52 1    
   100   50  127 1    
   101   51  128 1    
   102   51  129 1    
   103   51  130 1    
   104   52   53 am   BACKBONE|DICT|INTERRES
   105   52  131 1    
   106   53   54 2    
   107   53   55 1    
   108   55   56 1    
   109   55   59 1    
   110   55  132 1    
   111   56   57 1    
   112   56  133 1    
   113   56  134 1    
   114   57   58 1    
   115   58  135 1    
   116   58  136 1    
   117   59   60 am   BACKBONE|DICT|INTERRES
   118   59  137 1    
   119   60   61 2    
   120   60   62 1    
   121   62   63 1    
   122   62   64 1    
   123   62  138 1    
   124   63  139 1    
   125   63  140 1    
   126   63  141 1    
   127   64   65 am   BACKBONE|DICT|INTERRES
   128   64  142 1    
   129   65   66 2    
   130   65   67 1    
   131   67   68 1    
   132   67   69 1    
   133   67  143 1    
   134   68  144 1    
   135   68  145 1    
   136   68  146 1    
   137   69   70 am   BACKBONE|DICT|INTERRES
   138   69  147 1    
   139   70   71 2    
   140   70   72 1    
   141   72   73 1    
   142   72   74 1    
   143   72  148 1    
   144   73  149 1    
   145   73  150 1    
   146   73  151 1    
   147   74   75 am   BACKBONE|DICT|INTERRES
   148   74  152 1    
   149   75   76 2    
   150   75   77 1    
   151   77   78 1    
   152   77   79 1    
   153   77  153 1    
   154   78  154 1    
   155   78  155 1    
   156   78  156 1    
   157   79   80 am   BACKBONE|DICT|INTERRES
   158   79  157 1    
   159   80   81 2    
@<TRIPOS>SUBSTRUCTURE
     1 UNK         1 GROUP             0       ****    0 ROOT    
