@<TRIPOS>MOLECULE
3R207
157   159    1
SMALL
USER_CHARGES


@<TRIPOS>ATOM
      1 CA        -47.9278  -27.9487   11.9400 C.3       0 UNK        -0.1975 
      2 C         -47.6206  -28.7425   10.6823 C.2       0 UNK         0.4852 
      3 O         -47.4120  -29.9543   10.7569 O.2       0 UNK        -0.5216 
      4 N         -47.5951  -28.0634    9.5333 N.am      1 UNK        -0.4461 
      5 CA        -47.3318  -28.6431    8.2162 C.3       1 UNK         0.0864 
      6 C6        -48.6326  -29.0448    7.4675 C.3       14 UNK        -0.0898 
      7 S7        -49.8980  -27.7307    7.3830 S.3       14 UNK        -0.2598 
      8 C8        -51.3560  -28.7206    6.9241 C.3       14 UNK         0.0286 
      9 C9        -52.6379  -28.0993    7.4539 C.ar      14 UNK        -0.0844 
     10 C10       -53.1963  -26.9900    6.8146 C.ar      14 UNK        -0.0881 
     11 C11       -54.3685  -26.4051    7.3039 C.ar      14 UNK        -0.0643 
     12 C12       -55.0073  -26.9683    8.4120 C.ar      14 UNK        -0.0930 
     13 C13       -54.4647  -28.0858    9.0538 C.ar      14 UNK        -0.0827 
     14 C14       -53.2734  -28.6406    8.5764 C.ar      14 UNK        -0.1249 
     15 C15       -55.2006  -28.7235   10.2232 C.3       14 UNK         0.0141 
     16 S16       -55.4143  -27.5828   11.6294 S.3       14 UNK        -0.2313 
     17 C17       -56.9514  -28.2640   12.3398 C.3       14 UNK        -0.0915 
     18 CA        -56.9995  -28.2571   13.8880 C.3       13 UNK         0.0968 
     19 C         -58.4009  -28.7378   14.3696 C.2       13 UNK         0.5732 
     20 N         -58.5459  -29.9529   14.8856 N.am      13 UNK        -0.7310 
     21 O         -59.3726  -27.9924   14.2697 O.2       13 UNK        -0.5035 
     22 N         -55.8544  -28.9718   14.4757 N.am      13 UNK        -0.4233 
     23 C         -55.5490  -29.0054   15.7780 C.2       13 UNK         0.4989 
     24 O         -56.2073  -28.4375   16.6502 O.2       13 UNK        -0.4996 
     25 CA        -54.2940  -29.7942   16.1885 C.3       12 UNK         0.0216 
     26 CB        -54.5826  -31.3055   16.2855 C.3       12 UNK        -0.1964 
     27 N         -53.1081  -29.5076   15.3684 N.am      12 UNK        -0.4276 
     28 C         -52.8566  -29.8286   14.0915 C.2       12 UNK         0.5020 
     29 O         -53.6481  -30.4496   13.3804 O.2       12 UNK        -0.5489 
     30 CA        -51.5193  -29.3549   13.4856 C.3       11 UNK         0.0294 
     31 CB        -51.7648  -28.4984   12.2295 C.3       11 UNK        -0.2019 
     32 N         -50.6695  -28.6035   14.4193 N.am      11 UNK        -0.4493 
     33 C         -49.8826  -29.1469   15.3607 C.2       11 UNK         0.4932 
     34 O         -49.8078  -30.3582   15.5640 O.2       11 UNK        -0.5029 
     35 CA        -49.0567  -28.1905   16.2384 C.3       10 UNK         0.0280 
     36 CB        -47.7330  -27.8204   15.5507 C.3       10 UNK        -0.1976 
     37 N         -49.7945  -26.9637   16.5423 N.am      10 UNK        -0.4242 
     38 C         -50.1760  -26.5664   17.7649 C.2       10 UNK         0.5072 
     39 O         -49.8945  -27.1666   18.8031 O.2       10 UNK        -0.5224 
     40 CA        -51.0295  -25.2826   17.8546 C.3       9 UNK         0.0343 
     41 CB        -50.1352  -24.0624   18.1265 C.3       9 UNK        -0.2003 
     42 N         -51.8351  -25.0298   16.6559 N.am      9 UNK        -0.4272 
     43 C         -52.7940  -25.8472   16.1983 C.2       9 UNK         0.4988 
     44 O         -53.1982  -26.8235   16.8258 O.2       9 UNK        -0.5108 
     45 CA        -53.3600  -25.5819   14.7888 C.3       8 UNK         0.0248 
     46 CB        -54.7717  -24.9820   14.8780 C.3       8 UNK        -0.2001 
     47 N         -52.5292  -24.7399   13.9150 N.am      8 UNK        -0.4140 
     48 C         -51.2477  -24.9506   13.5842 C.2       8 UNK         0.5028 
     49 O         -50.5750  -25.8868   14.0208 O.2       8 UNK        -0.5428 
     50 CA        -50.6204  -23.9518   12.6000 C.3       7 UNK         0.0264 
     51 CB        -49.0852  -23.9280   12.6971 C.3       7 UNK        -0.1988 
     52 N         -51.0089  -24.2649   11.2258 N.am      7 UNK        -0.4454 
     53 C         -52.2091  -23.9913   10.6905 C.2       7 UNK         0.5027 
     54 O         -53.1162  -23.4468   11.3249 O.2       7 UNK        -0.5083 
     55 CA        -52.4373  -24.3803    9.2113 C.3       6 UNK         0.0844 
     56 C56       -53.5415  -23.5073    8.5374 C.3       14 UNK        -0.0967 
     57 S57       -53.7377  -23.7659    6.7351 S.3       14 UNK        -0.2604 
     58 C58       -54.9252  -25.1457    6.6577 C.3       14 UNK         0.0134 
     59 N         -51.1907  -24.4666    8.4420 N.am      6 UNK        -0.4116 
     60 C         -50.3631  -23.4542    8.1590 C.2       5 UNK         0.5034 
     61 O         -50.5084  -22.2970    8.5595 O.2       5 UNK        -0.5045 
     62 CA        -49.1563  -23.8002    7.2772 C.3       5 UNK         0.0224 
     63 CB        -49.1244  -22.9052    6.0265 C.3       5 UNK        -0.1978 
     64 N         -47.8974  -23.6635    8.0069 N.am      5 UNK        -0.4737 
     65 C         -47.5340  -24.3743    9.0824 C.2       4 UNK         0.5027 
     66 O         -48.2392  -25.2408    9.6054 O.2       4 UNK        -0.5211 
     67 CA        -46.1154  -24.1024    9.6106 C.3       4 UNK         0.0297 
     68 CB        -45.7411  -24.9842   10.8163 C.3       4 UNK        -0.1993 
     69 N         -45.1577  -24.3435    8.5322 N.am      4 UNK        -0.4486 
     70 C         -44.6661  -23.4073    7.7093 C.2       3 UNK         0.4961 
     71 O         -44.8959  -22.2041    7.8327 O.2       3 UNK        -0.5105 
     72 CA        -43.8060  -23.8878    6.5257 C.3       3 UNK         0.0299 
     73 CB        -42.3146  -23.8506    6.8952 C.3       3 UNK        -0.1972 
     74 N         -44.1570  -25.2329    6.0622 N.am      3 UNK        -0.4305 
     75 C         -45.3130  -25.5687    5.4709 C.2       2 UNK         0.5006 
     76 O         -46.1946  -24.7612    5.1805 O.2       2 UNK        -0.5106 
     77 CA        -45.5356  -27.0605    5.1568 C.3       2 UNK         0.0296 
     78 CB        -44.2254  -27.8736    5.0421 C.3       2 UNK        -0.2002 
     79 N         -46.4528  -27.7059    6.1062 N.am      2 UNK        -0.4032 
     80 C         -46.3367  -27.7547    7.4430 C.2       1 UNK         0.5000 
     81 O         -45.4432  -27.1758    8.0688 O.2       1 UNK        -0.5238 
     82 H82       -48.5738  -27.0990   11.7226 H         1 UNK         0.0889 
     83 H83       -47.0057  -27.5807   12.3881 H         1 UNK         0.0889 
     84 H84       -48.4361  -28.5811   12.6658 H         1 UNK         0.0889 
     85 H85       -47.7702  -27.0598    9.5344 H         1 UNK         0.3028 
     86 H86       -46.7656  -29.5661    8.3584 H         1 UNK         0.0864 
     87 H87       -49.0714  -29.8869    8.0051 H         1 UNK         0.0720 
     88 H88       -48.4309  -29.4260    6.4656 H         1 UNK         0.0720 
     89 H89       -51.2580  -29.7382    7.3045 H         1 UNK         0.0814 
     90 H90       -51.4043  -28.8065    5.8376 H         1 UNK         0.0814 
     91 H91       -52.7018  -26.5603    5.9538 H         1 UNK         0.1469 
     92 H92       -55.9233  -26.5320    8.7867 H         1 UNK         0.1381 
     93 H93       -52.8497  -29.5067    9.0662 H         1 UNK         0.1206 
     94 H94       -54.6865  -29.6198   10.5742 H         1 UNK         0.0813 
     95 H95       -56.1757  -29.0499    9.8592 H         1 UNK         0.0813 
     96 H96       -57.0922  -29.2855   11.9815 H         1 UNK         0.0638 
     97 H97       -57.7785  -27.6817   11.9289 H         1 UNK         0.0638 
     98 H98       -56.9122  -27.2189   14.2126 H         1 UNK         0.0568 
     99 H99       -57.7549  -30.5704   14.9686 H         1 UNK         0.3450 
    100 H100      -59.4568  -30.2521   15.1957 H         1 UNK         0.3450 
    101 H101      -55.2454  -29.4723   13.8342 H         1 UNK         0.2987 
    102 H102      -54.0335  -29.4539   17.1921 H         1 UNK         0.0766 
    103 H103      -55.3929  -31.5003   16.9891 H         1 UNK         0.0798 
    104 H104      -53.7086  -31.8527   16.6387 H         1 UNK         0.0798 
    105 H105      -54.8792  -31.7314   15.3267 H         1 UNK         0.0798 
    106 H106      -52.4165  -28.9332   15.8308 H         1 UNK         0.3198 
    107 H107      -50.9788  -30.2522   13.1765 H         1 UNK         0.0843 
    108 H108      -52.3375  -27.5993   12.4545 H         1 UNK         0.0831 
    109 H109      -52.3272  -29.0571   11.4813 H         1 UNK         0.0831 
    110 H110      -50.8314  -28.1914   11.7604 H         1 UNK         0.0831 
    111 H111      -50.6442  -27.5921   14.2821 H         1 UNK         0.3133 
    112 H112      -48.8174  -28.7294   17.1574 H         1 UNK         0.0566 
    113 H113      -47.0699  -27.2947   16.2377 H         1 UNK         0.0814 
    114 H114      -47.8956  -27.1715   14.6901 H         1 UNK         0.0814 
    115 H115      -47.2029  -28.7088   15.2041 H         1 UNK         0.0814 
    116 H116      -50.0779  -26.4045   15.7408 H         1 UNK         0.3091 
    117 H117      -51.7145  -25.4023   18.6966 H         1 UNK         0.0702 
    118 H118      -50.7283  -23.1597   18.2740 H         1 UNK         0.0785 
    119 H119      -49.4405  -23.8796   17.3055 H         1 UNK         0.0785 
    120 H120      -49.5409  -24.2085   19.0297 H         1 UNK         0.0785 
    121 H121      -51.5667  -24.2433   16.0835 H         1 UNK         0.2998 
    122 H122      -53.4457  -26.5554   14.3031 H         1 UNK         0.0697 
    123 H123      -54.7572  -23.9767   15.3005 H         1 UNK         0.0825 
    124 H124      -55.4172  -25.5933   15.5108 H         1 UNK         0.0825 
    125 H125      -55.2421  -24.9301   13.8956 H         1 UNK         0.0825 
    126 H126      -53.0068  -23.9874   13.4323 H         1 UNK         0.3029 
    127 H127      -50.9828  -22.9528   12.8529 H         1 UNK         0.0897 
    128 H128      -48.7612  -23.6776   13.7080 H         1 UNK         0.0792 
    129 H129      -48.6559  -23.1860   12.0237 H         1 UNK         0.0792 
    130 H130      -48.6516  -24.8955   12.4484 H         1 UNK         0.0792 
    131 H131      -50.3097  -24.7164   10.6486 H         1 UNK         0.3086 
    132 H132      -52.8060  -25.4032    9.2627 H         1 UNK         0.0583 
    133 H133      -54.5044  -23.6766    9.0231 H         1 UNK         0.1020 
    134 H134      -53.3183  -22.4489    8.6844 H         1 UNK         0.1020 
    135 H135      -55.8602  -24.8397    7.1295 H         1 UNK         0.0694 
    136 H136      -55.1587  -25.3548    5.6129 H         1 UNK         0.0694 
    137 H137      -50.9632  -25.3887    8.0946 H         1 UNK         0.2989 
    138 H138      -49.2354  -24.8376    6.9463 H         1 UNK         0.1055 
    139 H139      -48.9899  -21.8538    6.2836 H         1 UNK         0.0806 
    140 H140      -50.0573  -22.9869    5.4668 H         1 UNK         0.0806 
    141 H141      -48.3185  -23.1902    5.3510 H         1 UNK         0.0806 
    142 H142      -47.2416  -22.9821    7.6496 H         1 UNK         0.3061 
    143 H143      -46.0767  -23.0597    9.9326 H         1 UNK         0.0734 
    144 H144      -45.7627  -26.0448   10.5663 H         1 UNK         0.0832 
    145 H145      -44.7401  -24.7500   11.1784 H         1 UNK         0.0832 
    146 H146      -46.4278  -24.8272   11.6473 H         1 UNK         0.0832 
    147 H147      -44.9979  -25.3235    8.3066 H         1 UNK         0.3156 
    148 H148      -43.9698  -23.1954    5.6972 H         1 UNK         0.0589 
    149 H149      -42.0823  -24.5380    7.7097 H         1 UNK         0.0808 
    150 H150      -42.0182  -22.8514    7.2180 H         1 UNK         0.0808 
    151 H151      -41.6870  -24.1129    6.0432 H         1 UNK         0.0808 
    152 H152      -43.5068  -25.9739    6.2812 H         1 UNK         0.3098 
    153 H153      -46.0253  -27.0933    4.1822 H         1 UNK         0.0720 
    154 H154      -43.5337  -27.4108    4.3366 H         1 UNK         0.0791 
    155 H155      -44.4253  -28.8804    4.6749 H         1 UNK         0.0791 
    156 H156      -43.7102  -27.9736    5.9981 H         1 UNK         0.0791 
    157 H157      -47.2489  -28.1673    5.6894 H         1 UNK         0.3028 
@<TRIPOS>BOND
     1    1    2 1    
     2    1   82 1    
     3    1   83 1    
     4    1   84 1    
     5    2    3 2    
     6    2    4 am   BACKBONE|DICT|INTERRES
     7    4    5 1    
     8    4   85 1    
     9    5    6 1    
    10    5   80 1    
    11    5   86 1    
    12    6    7 1    
    13    6   87 1    
    14    6   88 1    
    15    7    8 1    
    16    8    9 1    
    17    8   89 1    
    18    8   90 1    
    19    9   10 ar   
    20    9   14 ar   
    21   10   11 ar   
    22   10   91 1    
    23   11   12 ar   
    24   11   58 1    
    25   12   13 ar   
    26   12   92 1    
    27   13   14 ar   
    28   13   15 1    
    29   14   93 1    
    30   15   16 1    
    31   15   94 1    
    32   15   95 1    
    33   16   17 1    
    34   17   18 1    
    35   17   96 1    
    36   17   97 1    
    37   18   19 1    
    38   18   22 1    
    39   18   98 1    
    40   19   20 am   BACKBONE|DICT|INTERRES
    41   19   21 2    
    42   20   99 1    
    43   20  100 1    
    44   22   23 am   BACKBONE|DICT|INTERRES
    45   22  101 1    
    46   23   24 2    
    47   23   25 1    
    48   25   26 1    
    49   25   27 1    
    50   25  102 1    
    51   26  103 1    
    52   26  104 1    
    53   26  105 1    
    54   27   28 am   BACKBONE|DICT|INTERRES
    55   27  106 1    
    56   28   29 2    
    57   28   30 1    
    58   30   31 1    
    59   30   32 1    
    60   30  107 1    
    61   31  108 1    
    62   31  109 1    
    63   31  110 1    
    64   32   33 am   BACKBONE|DICT|INTERRES
    65   32  111 1    
    66   33   34 2    
    67   33   35 1    
    68   35   36 1    
    69   35   37 1    
    70   35  112 1    
    71   36  113 1    
    72   36  114 1    
    73   36  115 1    
    74   37   38 am   BACKBONE|DICT|INTERRES
    75   37  116 1    
    76   38   39 2    
    77   38   40 1    
    78   40   41 1    
    79   40   42 1    
    80   40  117 1    
    81   41  118 1    
    82   41  119 1    
    83   41  120 1    
    84   42   43 am   BACKBONE|DICT|INTERRES
    85   42  121 1    
    86   43   44 2    
    87   43   45 1    
    88   45   46 1    
    89   45   47 1    
    90   45  122 1    
    91   46  123 1    
    92   46  124 1    
    93   46  125 1    
    94   47   48 am   BACKBONE|DICT|INTERRES
    95   47  126 1    
    96   48   49 2    
    97   48   50 1    
    98   50   51 1    
    99   50   52 1    
   100   50  127 1    
   101   51  128 1    
   102   51  129 1    
   103   51  130 1    
   104   52   53 am   BACKBONE|DICT|INTERRES
   105   52  131 1    
   106   53   54 2    
   107   53   55 1    
   108   55   56 1    
   109   55   59 1    
   110   55  132 1    
   111   56   57 1    
   112   56  133 1    
   113   56  134 1    
   114   57   58 1    
   115   58  135 1    
   116   58  136 1    
   117   59   60 am   BACKBONE|DICT|INTERRES
   118   59  137 1    
   119   60   61 2    
   120   60   62 1    
   121   62   63 1    
   122   62   64 1    
   123   62  138 1    
   124   63  139 1    
   125   63  140 1    
   126   63  141 1    
   127   64   65 am   BACKBONE|DICT|INTERRES
   128   64  142 1    
   129   65   66 2    
   130   65   67 1    
   131   67   68 1    
   132   67   69 1    
   133   67  143 1    
   134   68  144 1    
   135   68  145 1    
   136   68  146 1    
   137   69   70 am   BACKBONE|DICT|INTERRES
   138   69  147 1    
   139   70   71 2    
   140   70   72 1    
   141   72   73 1    
   142   72   74 1    
   143   72  148 1    
   144   73  149 1    
   145   73  150 1    
   146   73  151 1    
   147   74   75 am   BACKBONE|DICT|INTERRES
   148   74  152 1    
   149   75   76 2    
   150   75   77 1    
   151   77   78 1    
   152   77   79 1    
   153   77  153 1    
   154   78  154 1    
   155   78  155 1    
   156   78  156 1    
   157   79   80 am   BACKBONE|DICT|INTERRES
   158   79  157 1    
   159   80   81 2    
@<TRIPOS>SUBSTRUCTURE
     1 UNK         1 GROUP             0       ****    0 ROOT    
