@<TRIPOS>MOLECULE
3R207
157   159    1
SMALL
USER_CHARGES


@<TRIPOS>ATOM
      1 CA        -47.8065  -32.3300    4.2271 C.3       0 UNK        -0.1975 
      2 C         -47.6290  -31.1814    5.2094 C.2       0 UNK         0.4852 
      3 O         -46.5220  -30.9749    5.7081 O.2       0 UNK        -0.5216 
      4 N         -48.7122  -30.4414    5.4861 N.am      1 UNK        -0.4461 
      5 CA        -48.7792  -29.2789    6.3797 C.3       1 UNK         0.0864 
      6 C6        -48.5369  -29.6264    7.8781 C.3       14 UNK        -0.0898 
      7 S7        -49.8664  -30.6605    8.5860 S.3       14 UNK        -0.2598 
      8 C8        -50.4461  -29.6518    9.9980 C.3       14 UNK         0.0286 
      9 C9        -51.5498  -28.6660    9.6276 C.ar      14 UNK        -0.0844 
     10 C10       -51.3511  -27.7105    8.6289 C.ar      14 UNK        -0.0881 
     11 C11       -52.3584  -26.8054    8.2836 C.ar      14 UNK        -0.0643 
     12 C12       -53.5761  -26.8480    8.9682 C.ar      14 UNK        -0.0930 
     13 C13       -53.7908  -27.7909    9.9792 C.ar      14 UNK        -0.0827 
     14 C14       -52.7735  -28.6941   10.3031 C.ar      14 UNK        -0.1249 
     15 C15       -55.1339  -27.8534   10.6926 C.3       14 UNK         0.0141 
     16 S16       -55.0485  -27.1449   12.3672 S.3       14 UNK        -0.2313 
     17 C17       -56.8085  -26.7642   12.6663 C.3       14 UNK        -0.0915 
     18 CA        -57.2937  -27.1064   14.0998 C.3       13 UNK         0.0968 
     19 C         -58.7547  -26.6093   14.2890 C.2       13 UNK         0.5732 
     20 N         -58.9401  -25.4133   14.8311 N.am      13 UNK        -0.7310 
     21 O         -59.7133  -27.2774   13.9045 O.2       13 UNK        -0.5035 
     22 N         -57.1210  -28.5365   14.3968 N.am      13 UNK        -0.4233 
     23 C         -57.4569  -29.1560   15.5386 C.2       13 UNK         0.4989 
     24 O         -57.9378  -28.5911   16.5218 O.2       13 UNK        -0.4996 
     25 CA        -57.1882  -30.6715   15.6039 C.3       12 UNK         0.0216 
     26 CB        -58.3881  -31.4579   15.0506 C.3       12 UNK        -0.1964 
     27 N         -55.9708  -31.0616   14.8854 N.am      12 UNK        -0.4276 
     28 C         -54.7311  -30.7371   15.2772 C.2       12 UNK         0.5020 
     29 O         -54.4848  -30.1740   16.3463 O.2       12 UNK        -0.5489 
     30 CA        -53.5738  -31.0740   14.3236 C.3       11 UNK         0.0294 
     31 CB        -54.0122  -31.2598   12.8533 C.3       11 UNK        -0.2019 
     32 N         -52.5802  -30.0105   14.4558 N.am      11 UNK        -0.4493 
     33 C         -51.3056  -30.0408   14.0605 C.2       11 UNK         0.4932 
     34 O         -50.8170  -30.9739   13.4216 O.2       11 UNK        -0.5029 
     35 CA        -50.4218  -28.8424   14.4748 C.3       10 UNK         0.0280 
     36 CB        -48.9948  -28.9391   13.9067 C.3       10 UNK        -0.1976 
     37 N         -50.9764  -27.5324   14.1171 N.am      10 UNK        -0.4242 
     38 C         -51.9956  -26.9140   14.7294 C.2       10 UNK         0.5072 
     39 O         -52.6605  -27.4247   15.6330 O.2       10 UNK        -0.5224 
     40 CA        -52.2799  -25.4703   14.2758 C.3       9 UNK         0.0343 
     41 CB        -53.4516  -24.8102   15.0327 C.3       9 UNK        -0.2003 
     42 N         -51.0769  -24.6339   14.3417 N.am      9 UNK        -0.4272 
     43 C         -50.3111  -24.3684   15.4127 C.2       9 UNK         0.4988 
     44 O         -50.5710  -24.7408   16.5574 O.2       9 UNK        -0.5108 
     45 CA        -49.0125  -23.5711   15.1770 C.3       8 UNK         0.0248 
     46 CB        -47.7973  -24.5083   15.2716 C.3       8 UNK        -0.2001 
     47 N         -48.9732  -22.8675   13.8917 N.am      8 UNK        -0.4140 
     48 C         -49.6989  -21.7802   13.5954 C.2       8 UNK         0.5028 
     49 O         -50.4157  -21.1919   14.4058 O.2       8 UNK        -0.5428 
     50 CA        -49.6509  -21.2914   12.1372 C.3       7 UNK         0.0264 
     51 CB        -48.4278  -20.3915   11.9000 C.3       7 UNK        -0.1988 
     52 N         -49.6580  -22.3862   11.1604 N.am      7 UNK        -0.4454 
     53 C         -50.6588  -23.2688   11.0079 C.2       7 UNK         0.5027 
     54 O         -51.6968  -23.2461   11.6680 O.2       7 UNK        -0.5083 
     55 CA        -50.4560  -24.3807    9.9618 C.3       6 UNK         0.0844 
     56 C56       -50.7255  -23.8105    8.5446 C.3       14 UNK        -0.0967 
     57 S57       -50.5127  -25.0057    7.1890 S.3       14 UNK        -0.2604 
     58 C58       -52.1483  -25.8100    7.1470 C.3       14 UNK         0.0134 
     59 N         -49.1440  -25.0193   10.1221 N.am      6 UNK        -0.4116 
     60 C         -48.7653  -25.7165   11.2061 C.2       5 UNK         0.5034 
     61 O         -49.5278  -26.0302   12.1209 O.2       5 UNK        -0.5045 
     62 CA        -47.2724  -26.0664   11.3396 C.3       5 UNK         0.0224 
     63 CB        -46.9409  -27.4475   10.7573 C.3       5 UNK        -0.1978 
     64 N         -46.4110  -25.0603   10.7198 N.am      5 UNK        -0.4737 
     65 C         -46.1519  -23.8577   11.2476 C.2       4 UNK         0.5027 
     66 O         -46.5836  -23.4861   12.3377 O.2       4 UNK        -0.5211 
     67 CA        -45.3005  -22.8982   10.3980 C.3       4 UNK         0.0297 
     68 CB        -43.8041  -23.1475   10.6419 C.3       4 UNK        -0.1993 
     69 N         -45.5896  -23.0025    8.9642 N.am      4 UNK        -0.4486 
     70 C         -46.7554  -22.6476    8.4064 C.2       3 UNK         0.4961 
     71 O         -47.6870  -22.1472    9.0368 O.2       3 UNK        -0.5105 
     72 CA        -46.9330  -22.9453    6.9053 C.3       3 UNK         0.0299 
     73 CB        -46.3841  -21.7849    6.0606 C.3       3 UNK        -0.1972 
     74 N         -46.3386  -24.2116    6.4504 N.am      3 UNK        -0.4305 
     75 C         -46.6175  -25.4180    6.9640 C.2       2 UNK         0.5006 
     76 O         -47.3217  -25.5875    7.9595 O.2       2 UNK        -0.5106 
     77 CA        -45.9583  -26.6370    6.3001 C.3       2 UNK         0.0296 
     78 CB        -44.5612  -26.8737    6.8967 C.3       2 UNK        -0.2002 
     79 N         -46.7746  -27.8341    6.5165 N.am      2 UNK        -0.4032 
     80 C         -47.9022  -28.1202    5.8498 C.2       1 UNK         0.5000 
     81 O         -48.2767  -27.5017    4.8507 O.2       1 UNK        -0.5238 
     82 H82       -48.8306  -32.4005    3.8609 H         1 UNK         0.0889 
     83 H83       -47.5526  -33.2750    4.7063 H         1 UNK         0.0889 
     84 H84       -47.1483  -32.1949    3.3693 H         1 UNK         0.0889 
     85 H85       -49.5813  -30.6644    5.0213 H         1 UNK         0.3028 
     86 H86       -49.8034  -28.9133    6.2932 H         1 UNK         0.0864 
     87 H87       -47.5893  -30.1486    8.0174 H         1 UNK         0.0720 
     88 H88       -48.4665  -28.7150    8.4691 H         1 UNK         0.0720 
     89 H89       -49.6146  -29.1112   10.4473 H         1 UNK         0.0814 
     90 H90       -50.8037  -30.3384   10.7665 H         1 UNK         0.0814 
     91 H91       -50.4076  -27.6613    8.1121 H         1 UNK         0.1469 
     92 H92       -54.3633  -26.1548    8.7050 H         1 UNK         0.1381 
     93 H93       -52.9344  -29.4175   11.0869 H         1 UNK         0.1206 
     94 H94       -55.8847  -27.3167   10.1105 H         1 UNK         0.0813 
     95 H95       -55.4760  -28.8873   10.7513 H         1 UNK         0.0813 
     96 H96       -57.4235  -27.2898   11.9332 H         1 UNK         0.0638 
     97 H97       -56.9416  -25.6995   12.4644 H         1 UNK         0.0638 
     98 H98       -56.6631  -26.5678   14.8094 H         1 UNK         0.0568 
     99 H99       -59.8804  -25.0689   14.9452 H         1 UNK         0.3450 
    100 H100      -58.1609  -24.8513   15.1363 H         1 UNK         0.3450 
    101 H101      -56.7293  -29.0884   13.6508 H         1 UNK         0.2987 
    102 H102      -57.0623  -30.9397   16.6553 H         1 UNK         0.0766 
    103 H103      -58.2435  -32.5329   15.1603 H         1 UNK         0.0798 
    104 H104      -58.5609  -31.2470   13.9944 H         1 UNK         0.0798 
    105 H105      -59.3025  -31.1998   15.5869 H         1 UNK         0.0798 
    106 H106      -56.0895  -31.5468   14.0077 H         1 UNK         0.3198 
    107 H107      -53.1262  -32.0045   14.6784 H         1 UNK         0.0843 
    108 H108      -54.5288  -30.3781   12.4749 H         1 UNK         0.0831 
    109 H109      -54.6802  -32.1141   12.7402 H         1 UNK         0.0831 
    110 H110      -53.1596  -31.4552   12.2035 H         1 UNK         0.0831 
    111 H111      -52.8784  -29.2179   15.0255 H         1 UNK         0.3133 
    112 H112      -50.3396  -28.8798   15.5629 H         1 UNK         0.0566 
    113 H113      -48.3758  -28.1029   14.2327 H         1 UNK         0.0814 
    114 H114      -48.5015  -29.8550   14.2344 H         1 UNK         0.0814 
    115 H115      -49.0064  -28.9455   12.8180 H         1 UNK         0.0814 
    116 H116      -50.4943  -27.0277   13.3750 H         1 UNK         0.3091 
    117 H117      -52.5557  -25.5261   13.2216 H         1 UNK         0.0702 
    118 H118      -53.6501  -23.8078   14.6537 H         1 UNK         0.0785 
    119 H119      -53.2540  -24.7336   16.1023 H         1 UNK         0.0785 
    120 H120      -54.3668  -25.3905   14.9121 H         1 UNK         0.0785 
    121 H121      -50.7651  -24.2785   13.4471 H         1 UNK         0.2998 
    122 H122      -48.9341  -22.8282   15.9734 H         1 UNK         0.0697 
    123 H123      -47.8370  -25.2919   14.5148 H         1 UNK         0.0825 
    124 H124      -47.7560  -24.9986   16.2451 H         1 UNK         0.0825 
    125 H125      -46.8618  -23.9634   15.1432 H         1 UNK         0.0825 
    126 H126      -48.3282  -23.2272   13.1929 H         1 UNK         0.3029 
    127 H127      -50.5490  -20.6946   11.9637 H         1 UNK         0.0897 
    128 H128      -48.4231  -19.9871   10.8876 H         1 UNK         0.0792 
    129 H129      -48.4274  -19.5449   12.5879 H         1 UNK         0.0792 
    130 H130      -47.4926  -20.9317   12.0477 H         1 UNK         0.0792 
    131 H131      -48.8608  -22.4386   10.5300 H         1 UNK         0.3086 
    132 H132      -51.2070  -25.1458   10.1653 H         1 UNK         0.0583 
    133 H133      -51.7371  -23.4034    8.4886 H         1 UNK         0.1020 
    134 H134      -50.0622  -22.9704    8.3355 H         1 UNK         0.1020 
    135 H135      -52.9265  -25.0454    7.1452 H         1 UNK         0.0694 
    136 H136      -52.2427  -26.3472    6.2026 H         1 UNK         0.0694 
    137 H137      -48.4784  -24.9027    9.3638 H         1 UNK         0.2989 
    138 H138      -47.0466  -26.0983   12.4073 H         1 UNK         0.1055 
    139 H139      -47.5809  -28.2206   11.1778 H         1 UNK         0.0806 
    140 H140      -45.9118  -27.7291   10.9809 H         1 UNK         0.0806 
    141 H141      -47.0595  -27.4696    9.6770 H         1 UNK         0.0806 
    142 H142      -46.1060  -25.2505    9.7746 H         1 UNK         0.3061 
    143 H143      -45.5329  -21.8796   10.7162 H         1 UNK         0.0734 
    144 H144      -43.1883  -22.4237   10.1078 H         1 UNK         0.0832 
    145 H145      -43.5630  -23.0554   11.7019 H         1 UNK         0.0832 
    146 H146      -43.5017  -24.1466   10.3253 H         1 UNK         0.0832 
    147 H147      -44.8760  -23.4051    8.3743 H         1 UNK         0.3156 
    148 H148      -48.0067  -23.0163    6.7200 H         1 UNK         0.0589 
    149 H149      -45.3023  -21.6873    6.1602 H         1 UNK         0.0808 
    150 H150      -46.6145  -21.9188    5.0035 H         1 UNK         0.0808 
    151 H151      -46.8265  -20.8358    6.3674 H         1 UNK         0.0808 
    152 H152      -45.7289  -24.1589    5.6467 H         1 UNK         0.3098 
    153 H153      -45.8647  -26.4553    5.2273 H         1 UNK         0.0720 
    154 H154      -44.0787  -27.7390    6.4416 H         1 UNK         0.0791 
    155 H155      -44.6033  -27.0423    7.9739 H         1 UNK         0.0791 
    156 H156      -43.9097  -26.0156    6.7259 H         1 UNK         0.0791 
    157 H157      -46.5298  -28.4056    7.3106 H         1 UNK         0.3028 
@<TRIPOS>BOND
     1    1    2 1    
     2    1   82 1    
     3    1   83 1    
     4    1   84 1    
     5    2    3 2    
     6    2    4 am   BACKBONE|DICT|INTERRES
     7    4    5 1    
     8    4   85 1    
     9    5    6 1    
    10    5   80 1    
    11    5   86 1    
    12    6    7 1    
    13    6   87 1    
    14    6   88 1    
    15    7    8 1    
    16    8    9 1    
    17    8   89 1    
    18    8   90 1    
    19    9   10 ar   
    20    9   14 ar   
    21   10   11 ar   
    22   10   91 1    
    23   11   12 ar   
    24   11   58 1    
    25   12   13 ar   
    26   12   92 1    
    27   13   14 ar   
    28   13   15 1    
    29   14   93 1    
    30   15   16 1    
    31   15   94 1    
    32   15   95 1    
    33   16   17 1    
    34   17   18 1    
    35   17   96 1    
    36   17   97 1    
    37   18   19 1    
    38   18   22 1    
    39   18   98 1    
    40   19   20 am   BACKBONE|DICT|INTERRES
    41   19   21 2    
    42   20   99 1    
    43   20  100 1    
    44   22   23 am   BACKBONE|DICT|INTERRES
    45   22  101 1    
    46   23   24 2    
    47   23   25 1    
    48   25   26 1    
    49   25   27 1    
    50   25  102 1    
    51   26  103 1    
    52   26  104 1    
    53   26  105 1    
    54   27   28 am   BACKBONE|DICT|INTERRES
    55   27  106 1    
    56   28   29 2    
    57   28   30 1    
    58   30   31 1    
    59   30   32 1    
    60   30  107 1    
    61   31  108 1    
    62   31  109 1    
    63   31  110 1    
    64   32   33 am   BACKBONE|DICT|INTERRES
    65   32  111 1    
    66   33   34 2    
    67   33   35 1    
    68   35   36 1    
    69   35   37 1    
    70   35  112 1    
    71   36  113 1    
    72   36  114 1    
    73   36  115 1    
    74   37   38 am   BACKBONE|DICT|INTERRES
    75   37  116 1    
    76   38   39 2    
    77   38   40 1    
    78   40   41 1    
    79   40   42 1    
    80   40  117 1    
    81   41  118 1    
    82   41  119 1    
    83   41  120 1    
    84   42   43 am   BACKBONE|DICT|INTERRES
    85   42  121 1    
    86   43   44 2    
    87   43   45 1    
    88   45   46 1    
    89   45   47 1    
    90   45  122 1    
    91   46  123 1    
    92   46  124 1    
    93   46  125 1    
    94   47   48 am   BACKBONE|DICT|INTERRES
    95   47  126 1    
    96   48   49 2    
    97   48   50 1    
    98   50   51 1    
    99   50   52 1    
   100   50  127 1    
   101   51  128 1    
   102   51  129 1    
   103   51  130 1    
   104   52   53 am   BACKBONE|DICT|INTERRES
   105   52  131 1    
   106   53   54 2    
   107   53   55 1    
   108   55   56 1    
   109   55   59 1    
   110   55  132 1    
   111   56   57 1    
   112   56  133 1    
   113   56  134 1    
   114   57   58 1    
   115   58  135 1    
   116   58  136 1    
   117   59   60 am   BACKBONE|DICT|INTERRES
   118   59  137 1    
   119   60   61 2    
   120   60   62 1    
   121   62   63 1    
   122   62   64 1    
   123   62  138 1    
   124   63  139 1    
   125   63  140 1    
   126   63  141 1    
   127   64   65 am   BACKBONE|DICT|INTERRES
   128   64  142 1    
   129   65   66 2    
   130   65   67 1    
   131   67   68 1    
   132   67   69 1    
   133   67  143 1    
   134   68  144 1    
   135   68  145 1    
   136   68  146 1    
   137   69   70 am   BACKBONE|DICT|INTERRES
   138   69  147 1    
   139   70   71 2    
   140   70   72 1    
   141   72   73 1    
   142   72   74 1    
   143   72  148 1    
   144   73  149 1    
   145   73  150 1    
   146   73  151 1    
   147   74   75 am   BACKBONE|DICT|INTERRES
   148   74  152 1    
   149   75   76 2    
   150   75   77 1    
   151   77   78 1    
   152   77   79 1    
   153   77  153 1    
   154   78  154 1    
   155   78  155 1    
   156   78  156 1    
   157   79   80 am   BACKBONE|DICT|INTERRES
   158   79  157 1    
   159   80   81 2    
@<TRIPOS>SUBSTRUCTURE
     1 UNK         1 GROUP             0       ****    0 ROOT    
