@<TRIPOS>MOLECULE
3R207
157   159    1
SMALL
USER_CHARGES


@<TRIPOS>ATOM
      1 CA        -51.2675  -25.6690   11.1715 C.3       0 UNK        -0.1975 
      2 C         -50.8905  -27.0192   10.5941 C.2       0 UNK         0.4852 
      3 O         -50.3716  -27.8721   11.3127 O.2       0 UNK        -0.5216 
      4 N         -51.1591  -27.2136    9.2993 N.am      1 UNK        -0.4461 
      5 CA        -50.7939  -28.4052    8.5322 C.3       1 UNK         0.0864 
      6 C6        -51.5526  -28.4472    7.1804 C.3       14 UNK        -0.0898 
      7 S7        -51.2479  -26.9974    6.1048 S.3       14 UNK        -0.2598 
      8 C8        -52.9020  -26.2467    5.9853 C.3       14 UNK         0.0286 
      9 C9        -53.3229  -25.5544    7.2745 C.ar      14 UNK        -0.0844 
     10 C10       -52.7970  -24.3004    7.6009 C.ar      14 UNK        -0.0881 
     11 C11       -53.2056  -23.6343    8.7629 C.ar      14 UNK        -0.0643 
     12 C12       -54.1657  -24.2307    9.5872 C.ar      14 UNK        -0.0930 
     13 C13       -54.7057  -25.4800    9.2683 C.ar      14 UNK        -0.0827 
     14 C14       -54.2726  -26.1420    8.1157 C.ar      14 UNK        -0.1249 
     15 C15       -55.8013  -26.0831   10.1379 C.3       14 UNK         0.0141 
     16 S16       -55.2002  -26.6175   11.7712 S.3       14 UNK        -0.2313 
     17 C17       -54.2011  -28.0785   11.3378 C.3       14 UNK        -0.0915 
     18 CA        -55.0239  -29.3817   11.1713 C.3       13 UNK         0.0968 
     19 C         -54.1023  -30.5710   10.7692 C.2       13 UNK         0.5732 
     20 N         -54.0126  -31.6498   11.5397 N.am      13 UNK        -0.7310 
     21 O         -53.4603  -30.5174    9.7234 O.2       13 UNK        -0.5035 
     22 N         -55.8875  -29.6522   12.3303 N.am      13 UNK        -0.4233 
     23 C         -57.0003  -30.3977   12.2779 C.2       13 UNK         0.4989 
     24 O         -57.4658  -30.8478   11.2290 O.2       13 UNK        -0.4996 
     25 CA        -57.7128  -30.6972   13.6157 C.3       12 UNK         0.0216 
     26 CB        -58.5586  -31.9878   13.5583 C.3       12 UNK        -0.1964 
     27 N         -56.8123  -30.7296   14.7767 N.am      12 UNK        -0.4276 
     28 C         -55.7274  -31.5011   14.9347 C.2       12 UNK         0.5020 
     29 O         -55.3281  -32.3233   14.1065 O.2       12 UNK        -0.5489 
     30 CA        -54.9109  -31.2659   16.2148 C.3       11 UNK         0.0294 
     31 CB        -54.8054  -32.5562   17.0448 C.3       11 UNK        -0.2019 
     32 N         -53.5667  -30.7721   15.9063 N.am      11 UNK        -0.4493 
     33 C         -53.2937  -29.6367   15.2503 C.2       11 UNK         0.4932 
     34 O         -54.1508  -28.8567   14.8229 O.2       11 UNK        -0.5029 
     35 CA        -51.8120  -29.3266   15.0262 C.3       10 UNK         0.0280 
     36 CB        -51.2803  -30.0402   13.7700 C.3       10 UNK        -0.1976 
     37 N         -51.6648  -27.8805   14.8946 N.am      10 UNK        -0.4242 
     38 C         -50.5579  -27.1822   15.1672 C.2       10 UNK         0.5072 
     39 O         -49.4920  -27.7045   15.5044 O.2       10 UNK        -0.5224 
     40 CA        -50.6819  -25.6503   15.0290 C.3       9 UNK         0.0343 
     41 CB        -51.7322  -25.0585   15.9944 C.3       9 UNK        -0.2003 
     42 N         -49.3922  -24.9537   15.1384 N.am      9 UNK        -0.4272 
     43 C         -48.6265  -24.7922   16.2303 C.2       9 UNK         0.4988 
     44 O         -48.9465  -25.1346   17.3696 O.2       9 UNK        -0.5108 
     45 CA        -47.2609  -24.1222   16.0165 C.3       8 UNK         0.0248 
     46 CB        -46.2342  -25.1471   15.5052 C.3       8 UNK        -0.2001 
     47 N         -47.3472  -23.0059   15.0726 N.am      8 UNK        -0.4140 
     48 C         -47.5129  -21.7224   15.4233 C.2       8 UNK         0.5028 
     49 O         -47.5889  -21.3355   16.5903 O.2       8 UNK        -0.5428 
     50 CA        -47.5915  -20.6811   14.2895 C.3       7 UNK         0.0264 
     51 CB        -46.2099  -20.0532   14.0423 C.3       7 UNK        -0.1988 
     52 N         -48.1010  -21.2303   13.0306 N.am      7 UNK        -0.4454 
     53 C         -49.3824  -21.5590   12.8124 C.2       7 UNK         0.5027 
     54 O         -50.2852  -21.3508   13.6235 O.2       7 UNK        -0.5083 
     55 CA        -49.7172  -22.2661   11.4827 C.3       6 UNK         0.0844 
     56 C56       -50.3303  -21.2814   10.4578 C.3       14 UNK        -0.0967 
     57 S57       -50.8449  -22.1350    8.9245 S.3       14 UNK        -0.2604 
     58 C58       -52.6550  -22.2564    9.1218 C.3       14 UNK         0.0134 
     59 N         -48.5938  -23.0136   10.9034 N.am      6 UNK        -0.4116 
     60 C         -47.9466  -24.0484   11.4504 C.2       5 UNK         0.5034 
     61 O         -48.1304  -24.4168   12.6121 O.2       5 UNK        -0.5045 
     62 CA        -46.9406  -24.7954   10.5484 C.3       5 UNK         0.0224 
     63 CB        -46.5128  -26.1471   11.1496 C.3       5 UNK        -0.1978 
     64 N         -47.4488  -25.0344    9.1922 N.am      5 UNK        -0.4737 
     65 C         -47.5527  -24.1309    8.2097 C.2       4 UNK         0.5027 
     66 O         -47.2446  -22.9455    8.3452 O.2       4 UNK        -0.5211 
     67 CA        -48.1012  -24.6565    6.8716 C.3       4 UNK         0.0297 
     68 CB        -48.2317  -23.5654    5.7886 C.3       4 UNK        -0.1993 
     69 N         -47.3296  -25.8099    6.3918 N.am      4 UNK        -0.4486 
     70 C         -46.0347  -25.8461    6.0413 C.2       3 UNK         0.4961 
     71 O         -45.3116  -24.8507    5.9804 O.2       3 UNK        -0.5105 
     72 CA        -45.4438  -27.2362    5.7255 C.3       3 UNK         0.0299 
     73 CB        -43.9035  -27.2443    5.7628 C.3       3 UNK        -0.1972 
     74 N         -45.9420  -28.2462    6.6628 N.am      3 UNK        -0.4305 
     75 C         -46.9347  -29.1114    6.4214 C.2       2 UNK         0.5006 
     76 O         -47.5178  -29.1991    5.3401 O.2       2 UNK        -0.5106 
     77 CA        -47.3980  -30.0062    7.5905 C.3       2 UNK         0.0296 
     78 CB        -46.4811  -29.9589    8.8362 C.3       2 UNK        -0.2002 
     79 N         -48.7886  -29.7071    7.9577 N.am      2 UNK        -0.4032 
     80 C         -49.2651  -28.5115    8.3385 C.2       1 UNK         0.5000 
     81 O         -48.5535  -27.5144    8.4935 O.2       1 UNK        -0.5238 
     82 H82       -51.3425  -24.9115   10.3933 H         1 UNK         0.0889 
     83 H83       -50.5015  -25.3504   11.8718 H         1 UNK         0.0889 
     84 H84       -52.2198  -25.7274   11.6968 H         1 UNK         0.0889 
     85 H85       -51.5872  -26.4748    8.7575 H         1 UNK         0.3028 
     86 H86       -51.1011  -29.2734    9.1190 H         1 UNK         0.0864 
     87 H87       -51.2910  -29.3461    6.6196 H         1 UNK         0.0720 
     88 H88       -52.6223  -28.5365    7.3744 H         1 UNK         0.0720 
     89 H89       -53.6281  -27.0079    5.6957 H         1 UNK         0.0814 
     90 H90       -52.8945  -25.5167    5.1746 H         1 UNK         0.0814 
     91 H91       -52.0721  -23.8397    6.9436 H         1 UNK         0.1469 
     92 H92       -54.5076  -23.7183   10.4762 H         1 UNK         0.1381 
     93 H93       -54.6948  -27.1041    7.8592 H         1 UNK         0.1206 
     94 H94       -56.2799  -26.9249    9.6357 H         1 UNK         0.0813 
     95 H95       -56.5841  -25.3377   10.2846 H         1 UNK         0.0813 
     96 H96       -53.4490  -28.2022   12.1177 H         1 UNK         0.0638 
     97 H97       -53.6563  -27.8615   10.4194 H         1 UNK         0.0638 
     98 H98       -55.6773  -29.2268   10.3111 H         1 UNK         0.0568 
     99 H99       -53.4152  -32.4057   11.2476 H         1 UNK         0.3450 
    100 H100      -54.5464  -31.7387   12.3990 H         1 UNK         0.3450 
    101 H101      -55.5435  -29.3248   13.2253 H         1 UNK         0.2987 
    102 H102      -58.3953  -29.8624   13.7817 H         1 UNK         0.0766 
    103 H103      -59.3263  -31.9222   12.7863 H         1 UNK         0.0798 
    104 H104      -59.0694  -32.1703   14.5037 H         1 UNK         0.0798 
    105 H105      -57.9456  -32.8616   13.3344 H         1 UNK         0.0798 
    106 H106      -57.0186  -30.0538   15.5004 H         1 UNK         0.3198 
    107 H107      -55.4100  -30.5099   16.8250 H         1 UNK         0.0843 
    108 H108      -54.2817  -33.3446   16.5021 H         1 UNK         0.0831 
    109 H109      -55.7955  -32.9386   17.2968 H         1 UNK         0.0831 
    110 H110      -54.2773  -32.3851   17.9830 H         1 UNK         0.0831 
    111 H111      -52.7978  -31.3642   16.1856 H         1 UNK         0.3133 
    112 H112      -51.2534  -29.6645   15.9018 H         1 UNK         0.0566 
    113 H113      -51.8160  -29.7323   12.8723 H         1 UNK         0.0814 
    114 H114      -50.2229  -29.8285   13.6104 H         1 UNK         0.0814 
    115 H115      -51.3858  -31.1222   13.8562 H         1 UNK         0.0814 
    116 H116      -52.5264  -27.4026   14.6596 H         1 UNK         0.3091 
    117 H117      -51.0338  -25.4555   14.0186 H         1 UNK         0.0702 
    118 H118      -51.7624  -23.9708   15.9268 H         1 UNK         0.0785 
    119 H119      -51.5300  -25.3249   17.0321 H         1 UNK         0.0785 
    120 H120      -52.7334  -25.4211   15.7598 H         1 UNK         0.0785 
    121 H121      -48.9767  -24.6957   14.2465 H         1 UNK         0.2998 
    122 H122      -46.9106  -23.7582   16.9849 H         1 UNK         0.0697 
    123 H123      -46.5285  -25.5738   14.5459 H         1 UNK         0.0825 
    124 H124      -46.1293  -25.9744   16.2083 H         1 UNK         0.0825 
    125 H125      -45.2490  -24.6964   15.3848 H         1 UNK         0.0825 
    126 H126      -47.3596  -23.2507   14.0896 H         1 UNK         0.3029 
    127 H127      -48.2701  -19.8908   14.6188 H         1 UNK         0.0897 
    128 H128      -45.4840  -20.7921   13.7003 H         1 UNK         0.0792 
    129 H129      -45.8150  -19.6084   14.9569 H         1 UNK         0.0792 
    130 H130      -46.2614  -19.2604   13.2956 H         1 UNK         0.0792 
    131 H131      -47.4259  -21.4181   12.3035 H         1 UNK         0.3086 
    132 H132      -50.4876  -22.9973   11.7283 H         1 UNK         0.0583 
    133 H133      -51.1791  -20.7461   10.8877 H         1 UNK         0.1020 
    134 H134      -49.6022  -20.5141   10.1874 H         1 UNK         0.1020 
    135 H135      -52.9285  -22.0078   10.1480 H         1 UNK         0.0694 
    136 H136      -53.1298  -21.5081    8.4862 H         1 UNK         0.0694 
    137 H137      -48.3494  -22.7758    9.9463 H         1 UNK         0.2989 
    138 H138      -46.0531  -24.1633   10.4753 H         1 UNK         0.1055 
    139 H139      -47.3650  -26.8180   11.2717 H         1 UNK         0.0806 
    140 H140      -46.0541  -26.0164   12.1303 H         1 UNK         0.0806 
    141 H141      -45.7803  -26.6487   10.5173 H         1 UNK         0.0806 
    142 H142      -47.7841  -25.9789    8.9952 H         1 UNK         0.3061 
    143 H143      -49.1062  -25.0256    7.0819 H         1 UNK         0.0734 
    144 H144      -47.2714  -23.1077    5.5503 H         1 UNK         0.0832 
    145 H145      -48.6512  -23.9698    4.8677 H         1 UNK         0.0832 
    146 H146      -48.8952  -22.7674    6.1247 H         1 UNK         0.0832 
    147 H147      -47.8067  -26.6985    6.4790 H         1 UNK         0.3156 
    148 H148      -45.7502  -27.4856    4.7076 H         1 UNK         0.0589 
    149 H149      -43.5067  -28.2328    5.5307 H         1 UNK         0.0808 
    150 H150      -43.4891  -26.5523    5.0284 H         1 UNK         0.0808 
    151 H151      -43.5216  -26.9503    6.7412 H         1 UNK         0.0808 
    152 H152      -45.5634  -28.2121    7.5988 H         1 UNK         0.3098 
    153 H153      -47.3873  -31.0295    7.2121 H         1 UNK         0.0720 
    154 H154      -46.4572  -28.9734    9.3026 H         1 UNK         0.0791 
    155 H155      -45.4564  -30.2356    8.5840 H         1 UNK         0.0791 
    156 H156      -46.8213  -30.6657    9.5931 H         1 UNK         0.0791 
    157 H157      -49.4447  -30.4631    7.8198 H         1 UNK         0.3028 
@<TRIPOS>BOND
     1    1    2 1    
     2    1   82 1    
     3    1   83 1    
     4    1   84 1    
     5    2    3 2    
     6    2    4 am   BACKBONE|DICT|INTERRES
     7    4    5 1    
     8    4   85 1    
     9    5    6 1    
    10    5   80 1    
    11    5   86 1    
    12    6    7 1    
    13    6   87 1    
    14    6   88 1    
    15    7    8 1    
    16    8    9 1    
    17    8   89 1    
    18    8   90 1    
    19    9   10 ar   
    20    9   14 ar   
    21   10   11 ar   
    22   10   91 1    
    23   11   12 ar   
    24   11   58 1    
    25   12   13 ar   
    26   12   92 1    
    27   13   14 ar   
    28   13   15 1    
    29   14   93 1    
    30   15   16 1    
    31   15   94 1    
    32   15   95 1    
    33   16   17 1    
    34   17   18 1    
    35   17   96 1    
    36   17   97 1    
    37   18   19 1    
    38   18   22 1    
    39   18   98 1    
    40   19   20 am   BACKBONE|DICT|INTERRES
    41   19   21 2    
    42   20   99 1    
    43   20  100 1    
    44   22   23 am   BACKBONE|DICT|INTERRES
    45   22  101 1    
    46   23   24 2    
    47   23   25 1    
    48   25   26 1    
    49   25   27 1    
    50   25  102 1    
    51   26  103 1    
    52   26  104 1    
    53   26  105 1    
    54   27   28 am   BACKBONE|DICT|INTERRES
    55   27  106 1    
    56   28   29 2    
    57   28   30 1    
    58   30   31 1    
    59   30   32 1    
    60   30  107 1    
    61   31  108 1    
    62   31  109 1    
    63   31  110 1    
    64   32   33 am   BACKBONE|DICT|INTERRES
    65   32  111 1    
    66   33   34 2    
    67   33   35 1    
    68   35   36 1    
    69   35   37 1    
    70   35  112 1    
    71   36  113 1    
    72   36  114 1    
    73   36  115 1    
    74   37   38 am   BACKBONE|DICT|INTERRES
    75   37  116 1    
    76   38   39 2    
    77   38   40 1    
    78   40   41 1    
    79   40   42 1    
    80   40  117 1    
    81   41  118 1    
    82   41  119 1    
    83   41  120 1    
    84   42   43 am   BACKBONE|DICT|INTERRES
    85   42  121 1    
    86   43   44 2    
    87   43   45 1    
    88   45   46 1    
    89   45   47 1    
    90   45  122 1    
    91   46  123 1    
    92   46  124 1    
    93   46  125 1    
    94   47   48 am   BACKBONE|DICT|INTERRES
    95   47  126 1    
    96   48   49 2    
    97   48   50 1    
    98   50   51 1    
    99   50   52 1    
   100   50  127 1    
   101   51  128 1    
   102   51  129 1    
   103   51  130 1    
   104   52   53 am   BACKBONE|DICT|INTERRES
   105   52  131 1    
   106   53   54 2    
   107   53   55 1    
   108   55   56 1    
   109   55   59 1    
   110   55  132 1    
   111   56   57 1    
   112   56  133 1    
   113   56  134 1    
   114   57   58 1    
   115   58  135 1    
   116   58  136 1    
   117   59   60 am   BACKBONE|DICT|INTERRES
   118   59  137 1    
   119   60   61 2    
   120   60   62 1    
   121   62   63 1    
   122   62   64 1    
   123   62  138 1    
   124   63  139 1    
   125   63  140 1    
   126   63  141 1    
   127   64   65 am   BACKBONE|DICT|INTERRES
   128   64  142 1    
   129   65   66 2    
   130   65   67 1    
   131   67   68 1    
   132   67   69 1    
   133   67  143 1    
   134   68  144 1    
   135   68  145 1    
   136   68  146 1    
   137   69   70 am   BACKBONE|DICT|INTERRES
   138   69  147 1    
   139   70   71 2    
   140   70   72 1    
   141   72   73 1    
   142   72   74 1    
   143   72  148 1    
   144   73  149 1    
   145   73  150 1    
   146   73  151 1    
   147   74   75 am   BACKBONE|DICT|INTERRES
   148   74  152 1    
   149   75   76 2    
   150   75   77 1    
   151   77   78 1    
   152   77   79 1    
   153   77  153 1    
   154   78  154 1    
   155   78  155 1    
   156   78  156 1    
   157   79   80 am   BACKBONE|DICT|INTERRES
   158   79  157 1    
   159   80   81 2    
@<TRIPOS>SUBSTRUCTURE
     1 UNK         1 GROUP             0       ****    0 ROOT    
