@<TRIPOS>MOLECULE
3R207
157   159    1
SMALL
USER_CHARGES


@<TRIPOS>ATOM
      1 CA        -46.5944  -26.3270   12.1002 C.3       0 UNK        -0.1975 
      2 C         -46.9279  -27.0015   10.7789 C.2       0 UNK         0.4852 
      3 O         -47.2468  -26.3093    9.8130 O.2       0 UNK        -0.5216 
      4 N         -46.8488  -28.3415   10.7433 N.am      1 UNK        -0.4461 
      5 CA        -47.0740  -29.2247    9.5867 C.3       1 UNK         0.0864 
      6 C6        -48.5567  -29.6460    9.3656 C.3       14 UNK        -0.0898 
      7 S7        -49.8023  -28.3173    9.2215 S.3       14 UNK        -0.2598 
      8 C8        -50.9627  -29.0722    8.0421 C.3       14 UNK         0.0286 
      9 C9        -52.3647  -28.5108    8.2149 C.ar      14 UNK        -0.0844 
     10 C10       -52.6931  -27.2637    7.6796 C.ar      14 UNK        -0.0881 
     11 C11       -53.9758  -26.7312    7.8482 C.ar      14 UNK        -0.0643 
     12 C12       -54.9459  -27.4808    8.5201 C.ar      14 UNK        -0.0930 
     13 C13       -54.6340  -28.7369    9.0492 C.ar      14 UNK        -0.0827 
     14 C14       -53.3380  -29.2409    8.9038 C.ar      14 UNK        -0.1249 
     15 C15       -55.7007  -29.5677    9.7490 C.3       14 UNK         0.0141 
     16 S16       -55.7491  -29.2596   11.5422 S.3       14 UNK        -0.2313 
     17 C17       -56.6175  -27.6574   11.6352 C.3       14 UNK        -0.0915 
     18 CA        -55.6583  -26.4771   11.9732 C.3       13 UNK         0.0968 
     19 C         -56.3134  -25.0666   11.8456 C.2       13 UNK         0.5732 
     20 N         -57.2731  -24.8786   10.9489 N.am      13 UNK        -0.7310 
     21 O         -55.9126  -24.1106   12.5052 O.2       13 UNK        -0.5035 
     22 N         -54.9448  -26.6777   13.2457 N.am      13 UNK        -0.4233 
     23 C         -55.4923  -26.6708   14.4682 C.2       13 UNK         0.4989 
     24 O         -56.6892  -26.4749   14.6920 O.2       13 UNK        -0.4996 
     25 CA        -54.5260  -26.9630   15.6321 C.3       12 UNK         0.0216 
     26 CB        -55.1794  -26.7921   17.0198 C.3       12 UNK        -0.1964 
     27 N         -53.8981  -28.2861   15.5182 N.am      12 UNK        -0.4276 
     28 C         -54.5078  -29.4819   15.4250 C.2       12 UNK         0.5020 
     29 O         -55.7287  -29.6385   15.4634 O.2       12 UNK        -0.5489 
     30 CA        -53.6186  -30.7326   15.2625 C.3       11 UNK         0.0294 
     31 CB        -53.6498  -31.2306   13.8082 C.3       11 UNK        -0.2019 
     32 N         -52.2253  -30.5220   15.6563 N.am      11 UNK        -0.4493 
     33 C         -51.7909  -30.4069   16.9187 C.2       11 UNK         0.4932 
     34 O         -52.5074  -30.5645   17.9074 O.2       11 UNK        -0.5029 
     35 CA        -50.3093  -30.0255   17.1118 C.3       10 UNK         0.0280 
     36 CB        -49.4668  -31.2790   17.3985 C.3       10 UNK        -0.1976 
     37 N         -49.7174  -29.2904   15.9839 N.am      10 UNK        -0.4242 
     38 C         -50.1574  -28.1133   15.5171 C.2       10 UNK         0.5072 
     39 O         -51.1493  -27.5300   15.9590 O.2       10 UNK        -0.5224 
     40 CA        -49.4135  -27.5357   14.3052 C.3       9 UNK         0.0343 
     41 CB        -49.9594  -28.1484   13.0046 C.3       9 UNK        -0.2003 
     42 N         -49.5660  -26.0812   14.2520 N.am      9 UNK        -0.4272 
     43 C         -48.8809  -25.2274   15.0286 C.2       9 UNK         0.4988 
     44 O         -47.9985  -25.5836   15.8110 O.2       9 UNK        -0.5108 
     45 CA        -49.1921  -23.7233   14.9062 C.3       8 UNK         0.0248 
     46 CB        -48.0403  -22.9898   14.1998 C.3       8 UNK        -0.2001 
     47 N         -50.4419  -23.4394   14.1993 N.am      8 UNK        -0.4140 
     48 C         -51.6633  -23.5539   14.7380 C.2       8 UNK         0.5028 
     49 O         -51.8719  -23.8570   15.9125 O.2       8 UNK        -0.5428 
     50 CA        -52.8582  -23.2909   13.8074 C.3       7 UNK         0.0264 
     51 CB        -53.3706  -21.8524   13.9793 C.3       7 UNK        -0.1988 
     52 N         -52.5715  -23.5328   12.3897 N.am      7 UNK        -0.4454 
     53 C         -52.3200  -24.7331   11.8505 C.2       7 UNK         0.5027 
     54 O         -52.2225  -25.7644   12.5166 O.2       7 UNK        -0.5083 
     55 CA        -52.1599  -24.8004   10.3194 C.3       6 UNK         0.0844 
     56 C56       -53.2686  -24.0048    9.5658 C.3       14 UNK        -0.0967 
     57 S57       -53.1107  -24.0756    7.7479 S.3       14 UNK        -0.2604 
     58 C58       -54.3251  -25.3563    7.2923 C.3       14 UNK         0.0134 
     59 N         -50.7947  -24.4726    9.8981 N.am      6 UNK        -0.4116 
     60 C         -50.1834  -23.2808    9.9571 C.2       5 UNK         0.5034 
     61 O         -50.6544  -22.2955   10.5268 O.2       5 UNK        -0.5045 
     62 CA        -48.8220  -23.1520    9.2458 C.3       5 UNK         0.0224 
     63 CB        -47.6790  -23.0047   10.2603 C.3       5 UNK        -0.1978 
     64 N         -48.5368  -24.2756    8.3438 N.am      5 UNK        -0.4737 
     65 C         -49.0675  -24.3997    7.1199 C.2       4 UNK         0.5027 
     66 O         -49.7744  -23.5360    6.5981 O.2       4 UNK        -0.5211 
     67 CA        -48.7542  -25.7039    6.3620 C.3       4 UNK         0.0297 
     68 CB        -49.6437  -25.8962    5.1150 C.3       4 UNK        -0.1993 
     69 N         -47.3395  -25.8382    5.9991 N.am      4 UNK        -0.4486 
     70 C         -46.5867  -24.9784    5.2908 C.2       3 UNK         0.4961 
     71 O         -46.9978  -23.9018    4.8563 O.2       3 UNK        -0.5105 
     72 CA        -45.1411  -25.4019    4.9488 C.3       3 UNK         0.0299 
     73 CB        -44.1398  -24.2325    5.0734 C.3       3 UNK        -0.1972 
     74 N         -44.6702  -26.5939    5.6661 N.am      3 UNK        -0.4305 
     75 C         -44.4201  -26.7094    6.9770 C.2       2 UNK         0.5006 
     76 O         -44.4843  -25.7849    7.7887 O.2       2 UNK        -0.5106 
     77 CA        -44.0579  -28.1196    7.4652 C.3       2 UNK         0.0296 
     78 CB        -42.6235  -28.1597    8.0183 C.3       2 UNK        -0.2002 
     79 N         -44.9911  -28.5741    8.4951 N.am      2 UNK        -0.4032 
     80 C         -46.3046  -28.7877    8.3181 C.2       1 UNK         0.5000 
     81 O         -46.8814  -28.6502    7.2355 O.2       1 UNK        -0.5238 
     82 H82       -46.3407  -27.0458   12.8787 H         1 UNK         0.0889 
     83 H83       -47.4476  -25.7449   12.4409 H         1 UNK         0.0889 
     84 H84       -45.7499  -25.6505   11.9720 H         1 UNK         0.0889 
     85 H85       -46.5774  -28.8239   11.5883 H         1 UNK         0.3028 
     86 H86       -46.5690  -30.1507    9.8679 H         1 UNK         0.0864 
     87 H87       -48.6233  -30.2985    8.4932 H         1 UNK         0.0720 
     88 H88       -48.8701  -30.2659   10.2067 H         1 UNK         0.0720 
     89 H89       -50.9810  -30.1542    8.1822 H         1 UNK         0.0814 
     90 H90       -50.6076  -28.8984    7.0251 H         1 UNK         0.0814 
     91 H91       -51.9410  -26.6947    7.1526 H         1 UNK         0.1469 
     92 H92       -55.9469  -27.0879    8.6279 H         1 UNK         0.1381 
     93 H93       -53.0909  -30.2087    9.3185 H         1 UNK         0.1206 
     94 H94       -55.5002  -30.6280    9.5878 H         1 UNK         0.0813 
     95 H95       -56.6825  -29.3820    9.3110 H         1 UNK         0.0813 
     96 H96       -57.4022  -27.7392   12.3886 H         1 UNK         0.0638 
     97 H97       -57.1325  -27.4947   10.6889 H         1 UNK         0.0638 
     98 H98       -54.8733  -26.4740   11.2176 H         1 UNK         0.0568 
     99 H99       -57.6751  -23.9589   10.8579 H         1 UNK         0.3450 
    100 H100      -57.6260  -25.6352   10.3865 H         1 UNK         0.3450 
    101 H101      -53.9399  -26.7755   13.1614 H         1 UNK         0.2987 
    102 H102      -53.7185  -26.2321   15.5588 H         1 UNK         0.0766 
    103 H103      -55.5801  -25.7848   17.1397 H         1 UNK         0.0798 
    104 H104      -54.4549  -26.9503   17.8187 H         1 UNK         0.0798 
    105 H105      -56.0030  -27.4908   17.1706 H         1 UNK         0.0798 
    106 H106      -52.8815  -28.2637   15.5328 H         1 UNK         0.3198 
    107 H107      -54.0387  -31.5144   15.8992 H         1 UNK         0.0843 
    108 H108      -53.2478  -30.4883   13.1171 H         1 UNK         0.0831 
    109 H109      -54.6721  -31.4456   13.4941 H         1 UNK         0.0831 
    110 H110      -53.0771  -32.1503   13.6880 H         1 UNK         0.0831 
    111 H111      -51.5561  -30.3968   14.9114 H         1 UNK         0.3133 
    112 H112      -50.2575  -29.3732   17.9860 H         1 UNK         0.0566 
    113 H113      -48.4358  -31.0196   17.6400 H         1 UNK         0.0814 
    114 H114      -49.4528  -31.9605   16.5469 H         1 UNK         0.0814 
    115 H115      -49.8662  -31.8314   18.2504 H         1 UNK         0.0814 
    116 H116      -48.9066  -29.7100   15.5513 H         1 UNK         0.3091 
    117 H117      -48.3515  -27.7755   14.3885 H         1 UNK         0.0702 
    118 H118      -49.5461  -27.6523   12.1276 H         1 UNK         0.0785 
    119 H119      -51.0456  -28.0734   12.9422 H         1 UNK         0.0785 
    120 H120      -49.7030  -29.2055   12.9281 H         1 UNK         0.0785 
    121 H121      -50.3382  -25.7345   13.6971 H         1 UNK         0.2998 
    122 H122      -49.2714  -23.3271   15.9209 H         1 UNK         0.0697 
    123 H123      -47.8982  -23.3497   13.1822 H         1 UNK         0.0825 
    124 H124      -47.0987  -23.1377   14.7306 H         1 UNK         0.0825 
    125 H125      -48.2194  -21.9153   14.1557 H         1 UNK         0.0825 
    126 H126      -50.3729  -23.1630   13.2301 H         1 UNK         0.3029 
    127 H127      -53.6556  -23.9741   14.1070 H         1 UNK         0.0897 
    128 H128      -52.6286  -21.1175   13.6644 H         1 UNK         0.0792 
    129 H129      -53.6131  -21.6463   15.0229 H         1 UNK         0.0792 
    130 H130      -54.2790  -21.6858   13.3996 H         1 UNK         0.0792 
    131 H131      -52.5425  -22.7225   11.7844 H         1 UNK         0.3086 
    132 H132      -52.2893  -25.8519   10.0614 H         1 UNK         0.0583 
    133 H133      -54.2579  -24.3670    9.8467 H         1 UNK         0.1020 
    134 H134      -53.2502  -22.9491    9.8397 H         1 UNK         0.1020 
    135 H135      -55.3137  -25.0375    7.6264 H         1 UNK         0.0694 
    136 H136      -54.3724  -25.4221    6.2046 H         1 UNK         0.0694 
    137 H137      -50.2929  -25.2228    9.4453 H         1 UNK         0.2989 
    138 H138      -48.8613  -22.2342    8.6547 H         1 UNK         0.1055 
    139 H139      -47.5978  -23.8807   10.9004 H         1 UNK         0.0806 
    140 H140      -47.8362  -22.1387   10.9048 H         1 UNK         0.0806 
    141 H141      -46.7202  -22.8673    9.7599 H         1 UNK         0.0806 
    142 H142      -47.9685  -25.0336    8.7267 H         1 UNK         0.3061 
    143 H143      -48.9719  -26.5226    7.0481 H         1 UNK         0.0734 
    144 H144      -50.7008  -25.8183    5.3697 H         1 UNK         0.0832 
    145 H145      -49.4419  -25.1425    4.3532 H         1 UNK         0.0832 
    146 H146      -49.4889  -26.8773    4.6664 H         1 UNK         0.0832 
    147 H147      -46.9020  -26.6917    6.3296 H         1 UNK         0.3156 
    148 H148      -45.1656  -25.6905    3.8970 H         1 UNK         0.0589 
    149 H149      -43.1262  -24.5478    4.8262 H         1 UNK         0.0808 
    150 H150      -44.3996  -23.4216    4.3919 H         1 UNK         0.0808 
    151 H151      -44.1265  -23.8131    6.0797 H         1 UNK         0.0808 
    152 H152      -44.5982  -27.4291    5.1001 H         1 UNK         0.3098 
    153 H153      -44.1201  -28.8190    6.6286 H         1 UNK         0.0720 
    154 H154      -41.9057  -27.8392    7.2620 H         1 UNK         0.0791 
    155 H155      -42.3425  -29.1679    8.3235 H         1 UNK         0.0791 
    156 H156      -42.5037  -27.5014    8.8800 H         1 UNK         0.0791 
    157 H157      -44.6178  -28.6633    9.4286 H         1 UNK         0.3028 
@<TRIPOS>BOND
     1    1    2 1    
     2    1   82 1    
     3    1   83 1    
     4    1   84 1    
     5    2    3 2    
     6    2    4 am   BACKBONE|DICT|INTERRES
     7    4    5 1    
     8    4   85 1    
     9    5    6 1    
    10    5   80 1    
    11    5   86 1    
    12    6    7 1    
    13    6   87 1    
    14    6   88 1    
    15    7    8 1    
    16    8    9 1    
    17    8   89 1    
    18    8   90 1    
    19    9   10 ar   
    20    9   14 ar   
    21   10   11 ar   
    22   10   91 1    
    23   11   12 ar   
    24   11   58 1    
    25   12   13 ar   
    26   12   92 1    
    27   13   14 ar   
    28   13   15 1    
    29   14   93 1    
    30   15   16 1    
    31   15   94 1    
    32   15   95 1    
    33   16   17 1    
    34   17   18 1    
    35   17   96 1    
    36   17   97 1    
    37   18   19 1    
    38   18   22 1    
    39   18   98 1    
    40   19   20 am   BACKBONE|DICT|INTERRES
    41   19   21 2    
    42   20   99 1    
    43   20  100 1    
    44   22   23 am   BACKBONE|DICT|INTERRES
    45   22  101 1    
    46   23   24 2    
    47   23   25 1    
    48   25   26 1    
    49   25   27 1    
    50   25  102 1    
    51   26  103 1    
    52   26  104 1    
    53   26  105 1    
    54   27   28 am   BACKBONE|DICT|INTERRES
    55   27  106 1    
    56   28   29 2    
    57   28   30 1    
    58   30   31 1    
    59   30   32 1    
    60   30  107 1    
    61   31  108 1    
    62   31  109 1    
    63   31  110 1    
    64   32   33 am   BACKBONE|DICT|INTERRES
    65   32  111 1    
    66   33   34 2    
    67   33   35 1    
    68   35   36 1    
    69   35   37 1    
    70   35  112 1    
    71   36  113 1    
    72   36  114 1    
    73   36  115 1    
    74   37   38 am   BACKBONE|DICT|INTERRES
    75   37  116 1    
    76   38   39 2    
    77   38   40 1    
    78   40   41 1    
    79   40   42 1    
    80   40  117 1    
    81   41  118 1    
    82   41  119 1    
    83   41  120 1    
    84   42   43 am   BACKBONE|DICT|INTERRES
    85   42  121 1    
    86   43   44 2    
    87   43   45 1    
    88   45   46 1    
    89   45   47 1    
    90   45  122 1    
    91   46  123 1    
    92   46  124 1    
    93   46  125 1    
    94   47   48 am   BACKBONE|DICT|INTERRES
    95   47  126 1    
    96   48   49 2    
    97   48   50 1    
    98   50   51 1    
    99   50   52 1    
   100   50  127 1    
   101   51  128 1    
   102   51  129 1    
   103   51  130 1    
   104   52   53 am   BACKBONE|DICT|INTERRES
   105   52  131 1    
   106   53   54 2    
   107   53   55 1    
   108   55   56 1    
   109   55   59 1    
   110   55  132 1    
   111   56   57 1    
   112   56  133 1    
   113   56  134 1    
   114   57   58 1    
   115   58  135 1    
   116   58  136 1    
   117   59   60 am   BACKBONE|DICT|INTERRES
   118   59  137 1    
   119   60   61 2    
   120   60   62 1    
   121   62   63 1    
   122   62   64 1    
   123   62  138 1    
   124   63  139 1    
   125   63  140 1    
   126   63  141 1    
   127   64   65 am   BACKBONE|DICT|INTERRES
   128   64  142 1    
   129   65   66 2    
   130   65   67 1    
   131   67   68 1    
   132   67   69 1    
   133   67  143 1    
   134   68  144 1    
   135   68  145 1    
   136   68  146 1    
   137   69   70 am   BACKBONE|DICT|INTERRES
   138   69  147 1    
   139   70   71 2    
   140   70   72 1    
   141   72   73 1    
   142   72   74 1    
   143   72  148 1    
   144   73  149 1    
   145   73  150 1    
   146   73  151 1    
   147   74   75 am   BACKBONE|DICT|INTERRES
   148   74  152 1    
   149   75   76 2    
   150   75   77 1    
   151   77   78 1    
   152   77   79 1    
   153   77  153 1    
   154   78  154 1    
   155   78  155 1    
   156   78  156 1    
   157   79   80 am   BACKBONE|DICT|INTERRES
   158   79  157 1    
   159   80   81 2    
@<TRIPOS>SUBSTRUCTURE
     1 UNK         1 GROUP             0       ****    0 ROOT    
