@<TRIPOS>MOLECULE
3R207
157   159    1
SMALL
USER_CHARGES


@<TRIPOS>ATOM
      1 CA        -50.7973  -31.4659    3.1355 C.3       0 UNK        -0.1975 
      2 C         -50.5141  -30.3371    4.1161 C.2       0 UNK         0.4852 
      3 O         -51.3074  -29.3995    4.2139 O.2       0 UNK        -0.5216 
      4 N         -49.3952  -30.4262    4.8464 N.am      1 UNK        -0.4461 
      5 CA        -48.9414  -29.4174    5.8091 C.3       1 UNK         0.0864 
      6 C6        -47.8741  -29.9862    6.7792 C.3       14 UNK        -0.0898 
      7 S7        -48.4865  -31.3651    7.8078 S.3       14 UNK        -0.2598 
      8 C8        -48.8043  -30.5606    9.4148 C.3       14 UNK         0.0286 
      9 C9        -50.2643  -30.1616    9.5638 C.ar      14 UNK        -0.0844 
     10 C10       -50.7239  -28.9365    9.0709 C.ar      14 UNK        -0.0881 
     11 C11       -52.0782  -28.5868    9.1715 C.ar      14 UNK        -0.0643 
     12 C12       -52.9600  -29.4749    9.7938 C.ar      14 UNK        -0.0930 
     13 C13       -52.5090  -30.6904   10.3159 C.ar      14 UNK        -0.0827 
     14 C14       -51.1598  -31.0291   10.1945 C.ar      14 UNK        -0.1249 
     15 C15       -53.4782  -31.6454   10.9963 C.3       14 UNK         0.0141 
     16 S16       -53.7567  -31.1591   12.7277 S.3       14 UNK        -0.2313 
     17 C17       -55.5707  -30.9534   12.7730 C.3       14 UNK        -0.0915 
     18 CA        -56.0830  -29.6945   12.0230 C.3       13 UNK         0.0968 
     19 C         -57.6186  -29.5449   12.1863 C.2       13 UNK         0.5732 
     20 N         -58.3959  -29.9443   11.1888 N.am      13 UNK        -0.7310 
     21 O         -58.1099  -29.1172   13.2287 O.2       13 UNK        -0.5035 
     22 N         -55.3618  -28.4868   12.4395 N.am      13 UNK        -0.4233 
     23 C         -55.3775  -27.3124   11.7977 C.2       13 UNK         0.4989 
     24 O         -55.9676  -27.1224   10.7330 O.2       13 UNK        -0.4996 
     25 CA        -54.5641  -26.1737   12.4480 C.3       12 UNK         0.0216 
     26 CB        -54.9442  -24.7742   11.9188 C.3       12 UNK        -0.1964 
     27 N         -54.5997  -26.2104   13.9169 N.am      12 UNK        -0.4276 
     28 C         -55.6861  -26.1292   14.7032 C.2       12 UNK         0.5020 
     29 O         -56.8265  -25.9181   14.2897 O.2       12 UNK        -0.5489 
     30 CA        -55.4755  -26.3552   16.2101 C.3       11 UNK         0.0294 
     31 CB        -55.8540  -27.7976   16.5864 C.3       11 UNK        -0.2019 
     32 N         -54.1043  -26.0951   16.6507 N.am      11 UNK        -0.4493 
     33 C         -53.5601  -24.8828   16.7986 C.2       11 UNK         0.4932 
     34 O         -54.1672  -23.8322   16.5909 O.2       11 UNK        -0.5029 
     35 CA        -52.0929  -24.8269   17.2541 C.3       10 UNK         0.0280 
     36 CB        -51.9678  -25.0737   18.7701 C.3       10 UNK        -0.1976 
     37 N         -51.1776  -25.6859   16.4887 N.am      10 UNK        -0.4242 
     38 C         -51.1111  -27.0262   16.4287 C.2       10 UNK         0.5072 
     39 O         -51.9020  -27.7721   17.0090 O.2       10 UNK        -0.5224 
     40 CA        -49.9954  -27.6597   15.5710 C.3       9 UNK         0.0343 
     41 CB        -50.5917  -28.3754   14.3454 C.3       9 UNK        -0.2003 
     42 N         -48.9739  -26.7074   15.1249 N.am      9 UNK        -0.4272 
     43 C         -48.0565  -26.1321   15.9164 C.2       9 UNK         0.4988 
     44 O         -47.9052  -26.4149   17.1052 O.2       9 UNK        -0.5108 
     45 CA        -47.1911  -25.0213   15.2918 C.3       8 UNK         0.0248 
     46 CB        -45.9192  -25.6153   14.6672 C.3       8 UNK        -0.2001 
     47 N         -47.9080  -24.2086   14.2996 N.am      8 UNK        -0.4140 
     48 C         -48.9860  -23.4563   14.5730 C.2       8 UNK         0.5028 
     49 O         -49.4625  -23.3366   15.7009 O.2       8 UNK        -0.5428 
     50 CA        -49.6875  -22.7615   13.3944 C.3       7 UNK         0.0264 
     51 CB        -48.9455  -21.4788   12.9875 C.3       7 UNK        -0.1988 
     52 N         -49.8450  -23.6396   12.2339 N.am      7 UNK        -0.4454 
     53 C         -50.5985  -24.7511   12.2154 C.2       7 UNK         0.5027 
     54 O         -51.3039  -25.1160   13.1565 O.2       7 UNK        -0.5083 
     55 CA        -50.5185  -25.6212   10.9428 C.3       6 UNK         0.0844 
     56 C56       -51.4707  -25.0591    9.8581 C.3       14 UNK        -0.0967 
     57 S57       -51.4434  -25.9679    8.2781 S.3       14 UNK        -0.2604 
     58 C58       -52.6498  -27.3049    8.5629 C.3       14 UNK         0.0134 
     59 N         -49.1309  -25.7672   10.4870 N.am      6 UNK        -0.4116 
     60 C         -48.1472  -26.3334   11.2032 C.2       5 UNK         0.5034 
     61 O         -48.3204  -26.8814   12.2906 O.2       5 UNK        -0.5045 
     62 CA        -46.7178  -26.2117   10.6526 C.3       5 UNK         0.0224 
     63 CB        -46.3970  -27.3399    9.6625 C.3       5 UNK        -0.1978 
     64 N         -46.4925  -24.9142   10.0161 N.am      5 UNK        -0.4737 
     65 C         -46.3142  -23.7696   10.6875 C.2       4 UNK         0.5027 
     66 O         -46.2861  -23.7001   11.9154 O.2       4 UNK        -0.5211 
     67 CA        -46.1753  -22.4849    9.8524 C.3       4 UNK         0.0297 
     68 CB        -44.7107  -22.2672    9.4419 C.3       4 UNK        -0.1993 
     69 N         -47.0254  -22.4818    8.6584 N.am      4 UNK        -0.4486 
     70 C         -48.3647  -22.4521    8.6882 C.2       3 UNK         0.4961 
     71 O         -49.0251  -22.3962    9.7259 O.2       3 UNK        -0.5105 
     72 CA        -49.0930  -22.5550    7.3351 C.3       3 UNK         0.0299 
     73 CB        -49.1850  -21.1731    6.6688 C.3       3 UNK        -0.1972 
     74 N         -48.5244  -23.5251    6.3857 N.am      3 UNK        -0.4305 
     75 C         -48.2705  -24.8116    6.6604 C.2       2 UNK         0.5006 
     76 O         -48.3289  -25.2967    7.7921 O.2       2 UNK        -0.5106 
     77 CA        -47.8720  -25.7254    5.4990 C.3       2 UNK         0.0296 
     78 CB        -46.3440  -25.7159    5.3040 C.3       2 UNK        -0.2002 
     79 N         -48.3416  -27.0570    5.8675 N.am      2 UNK        -0.4032 
     80 C         -48.4058  -28.1508    5.1036 C.2       1 UNK         0.5000 
     81 O         -48.0382  -28.1917    3.9255 O.2       1 UNK        -0.5238 
     82 H82       -50.0225  -32.2320    3.1605 H         1 UNK         0.0889 
     83 H83       -50.8545  -31.0745    2.1201 H         1 UNK         0.0889 
     84 H84       -51.7496  -31.9393    3.3732 H         1 UNK         0.0889 
     85 H85       -48.7762  -31.2132    4.7167 H         1 UNK         0.3028 
     86 H86       -49.8125  -29.1153    6.3930 H         1 UNK         0.0864 
     87 H87       -47.0123  -30.3495    6.2160 H         1 UNK         0.0720 
     88 H88       -47.4834  -29.2080    7.4344 H         1 UNK         0.0720 
     89 H89       -48.5305  -31.2571   10.2088 H         1 UNK         0.0814 
     90 H90       -48.1620  -29.6927    9.5516 H         1 UNK         0.0814 
     91 H91       -50.0233  -28.2709    8.5901 H         1 UNK         0.1469 
     92 H92       -54.0070  -29.2200    9.8608 H         1 UNK         0.1381 
     93 H93       -50.8070  -31.9743   10.5841 H         1 UNK         0.1206 
     94 H94       -53.0871  -32.6637   10.9766 H         1 UNK         0.0813 
     95 H95       -54.4172  -31.6753   10.4424 H         1 UNK         0.0813 
     96 H96       -55.8639  -30.9123   13.8239 H         1 UNK         0.0638 
     97 H97       -56.0321  -31.8552   12.3662 H         1 UNK         0.0638 
     98 H98       -55.8818  -29.8372   10.9610 H         1 UNK         0.0568 
     99 H99       -58.0057  -30.3072   10.3332 H         1 UNK         0.3450 
    100 H100      -59.3960  -29.8696   11.2897 H         1 UNK         0.3450 
    101 H101      -54.8579  -28.5582   13.3093 H         1 UNK         0.2987 
    102 H102      -53.5274  -26.3601   12.1656 H         1 UNK         0.0766 
    103 H103      -54.3059  -24.0037   12.3515 H         1 UNK         0.0798 
    104 H104      -55.9796  -24.5215   12.1486 H         1 UNK         0.0798 
    105 H105      -54.8325  -24.7171   10.8356 H         1 UNK         0.0798 
    106 H106      -53.7077  -26.3456   14.3723 H         1 UNK         0.3198 
    107 H107      -56.1443  -25.6740   16.7409 H         1 UNK         0.0843 
    108 H108      -55.1970  -28.5266   16.1103 H         1 UNK         0.0831 
    109 H109      -56.8744  -28.0279   16.2758 H         1 UNK         0.0831 
    110 H110      -55.8019  -27.9528   17.6642 H         1 UNK         0.0831 
    111 H111      -53.5072  -26.8969   16.8489 H         1 UNK         0.3133 
    112 H112      -51.7526  -23.8075   17.0673 H         1 UNK         0.0566 
    113 H113      -50.9380  -24.9502   19.1058 H         1 UNK         0.0814 
    114 H114      -52.5785  -24.3646   19.3305 H         1 UNK         0.0814 
    115 H115      -52.2943  -26.0748   19.0529 H         1 UNK         0.0814 
    116 H116      -50.4948  -25.1662   15.9478 H         1 UNK         0.3091 
    117 H117      -49.5039  -28.4106   16.1928 H         1 UNK         0.0702 
    118 H118      -51.3137  -29.1360   14.6460 H         1 UNK         0.0785 
    119 H119      -51.1079  -27.6835   13.6806 H         1 UNK         0.0785 
    120 H120      -49.8183  -28.8780   13.7641 H         1 UNK         0.0785 
    121 H121      -48.9660  -26.4829   14.1343 H         1 UNK         0.2998 
    122 H122      -46.8881  -24.3510   16.0988 H         1 UNK         0.0697 
    123 H123      -46.1533  -26.3178   13.8681 H         1 UNK         0.0825 
    124 H124      -45.3364  -26.1566   15.4136 H         1 UNK         0.0825 
    125 H125      -45.2756  -24.8376   14.2557 H         1 UNK         0.0825 
    126 H126      -47.5274  -24.1959   13.3572 H         1 UNK         0.3029 
    127 H127      -50.6882  -22.4795   13.7296 H         1 UNK         0.0897 
    128 H128      -49.4796  -20.9455   12.2008 H         1 UNK         0.0792 
    129 H129      -47.9399  -21.6885   12.6236 H         1 UNK         0.0792 
    130 H130      -48.8508  -20.7981   13.8345 H         1 UNK         0.0792 
    131 H131      -49.3542  -23.3663   11.3861 H         1 UNK         0.3086 
    132 H132      -50.8706  -26.6197   11.2106 H         1 UNK         0.0583 
    133 H133      -52.4961  -25.0316   10.2275 H         1 UNK         0.1020 
    134 H134      -51.2143  -24.0227    9.6313 H         1 UNK         0.1020 
    135 H135      -53.4684  -26.9262    9.1767 H         1 UNK         0.0694 
    136 H136      -53.0893  -27.5654    7.5993 H         1 UNK         0.0694 
    137 H137      -48.9088  -25.3945    9.5670 H         1 UNK         0.2989 
    138 H138      -46.0270  -26.3017   11.4933 H         1 UNK         0.1055 
    139 H139      -46.4208  -28.3072   10.1643 H         1 UNK         0.0806 
    140 H140      -45.3997  -27.2249    9.2377 H         1 UNK         0.0806 
    141 H141      -47.1097  -27.3721    8.8399 H         1 UNK         0.0806 
    142 H142      -46.6163  -24.8753    9.0124 H         1 UNK         0.3061 
    143 H143      -46.4801  -21.6474   10.4838 H         1 UNK         0.0734 
    144 H144      -44.5806  -21.3187    8.9207 H         1 UNK         0.0832 
    145 H145      -44.0609  -22.2449   10.3180 H         1 UNK         0.0832 
    146 H146      -44.3495  -23.0632    8.7894 H         1 UNK         0.0832 
    147 H147      -46.5660  -22.5393    7.7611 H         1 UNK         0.3156 
    148 H148      -50.1099  -22.8902    7.5495 H         1 UNK         0.0589 
    149 H149      -48.2039  -20.8008    6.3712 H         1 UNK         0.0808 
    150 H150      -49.8179  -21.2005    5.7816 H         1 UNK         0.0808 
    151 H151      -49.6193  -20.4393    7.3496 H         1 UNK         0.0808 
    152 H152      -48.4244  -23.2101    5.4311 H         1 UNK         0.3098 
    153 H153      -48.3776  -25.4039    4.5864 H         1 UNK         0.0720 
    154 H154      -46.0413  -26.3620    4.4800 H         1 UNK         0.0791 
    155 H155      -45.8222  -26.0531    6.2008 H         1 UNK         0.0791 
    156 H156      -45.9844  -24.7125    5.0729 H         1 UNK         0.0791 
    157 H157      -48.6732  -27.0866    6.8244 H         1 UNK         0.3028 
@<TRIPOS>BOND
     1    1    2 1    
     2    1   82 1    
     3    1   83 1    
     4    1   84 1    
     5    2    3 2    
     6    2    4 am   BACKBONE|DICT|INTERRES
     7    4    5 1    
     8    4   85 1    
     9    5    6 1    
    10    5   80 1    
    11    5   86 1    
    12    6    7 1    
    13    6   87 1    
    14    6   88 1    
    15    7    8 1    
    16    8    9 1    
    17    8   89 1    
    18    8   90 1    
    19    9   10 ar   
    20    9   14 ar   
    21   10   11 ar   
    22   10   91 1    
    23   11   12 ar   
    24   11   58 1    
    25   12   13 ar   
    26   12   92 1    
    27   13   14 ar   
    28   13   15 1    
    29   14   93 1    
    30   15   16 1    
    31   15   94 1    
    32   15   95 1    
    33   16   17 1    
    34   17   18 1    
    35   17   96 1    
    36   17   97 1    
    37   18   19 1    
    38   18   22 1    
    39   18   98 1    
    40   19   20 am   BACKBONE|DICT|INTERRES
    41   19   21 2    
    42   20   99 1    
    43   20  100 1    
    44   22   23 am   BACKBONE|DICT|INTERRES
    45   22  101 1    
    46   23   24 2    
    47   23   25 1    
    48   25   26 1    
    49   25   27 1    
    50   25  102 1    
    51   26  103 1    
    52   26  104 1    
    53   26  105 1    
    54   27   28 am   BACKBONE|DICT|INTERRES
    55   27  106 1    
    56   28   29 2    
    57   28   30 1    
    58   30   31 1    
    59   30   32 1    
    60   30  107 1    
    61   31  108 1    
    62   31  109 1    
    63   31  110 1    
    64   32   33 am   BACKBONE|DICT|INTERRES
    65   32  111 1    
    66   33   34 2    
    67   33   35 1    
    68   35   36 1    
    69   35   37 1    
    70   35  112 1    
    71   36  113 1    
    72   36  114 1    
    73   36  115 1    
    74   37   38 am   BACKBONE|DICT|INTERRES
    75   37  116 1    
    76   38   39 2    
    77   38   40 1    
    78   40   41 1    
    79   40   42 1    
    80   40  117 1    
    81   41  118 1    
    82   41  119 1    
    83   41  120 1    
    84   42   43 am   BACKBONE|DICT|INTERRES
    85   42  121 1    
    86   43   44 2    
    87   43   45 1    
    88   45   46 1    
    89   45   47 1    
    90   45  122 1    
    91   46  123 1    
    92   46  124 1    
    93   46  125 1    
    94   47   48 am   BACKBONE|DICT|INTERRES
    95   47  126 1    
    96   48   49 2    
    97   48   50 1    
    98   50   51 1    
    99   50   52 1    
   100   50  127 1    
   101   51  128 1    
   102   51  129 1    
   103   51  130 1    
   104   52   53 am   BACKBONE|DICT|INTERRES
   105   52  131 1    
   106   53   54 2    
   107   53   55 1    
   108   55   56 1    
   109   55   59 1    
   110   55  132 1    
   111   56   57 1    
   112   56  133 1    
   113   56  134 1    
   114   57   58 1    
   115   58  135 1    
   116   58  136 1    
   117   59   60 am   BACKBONE|DICT|INTERRES
   118   59  137 1    
   119   60   61 2    
   120   60   62 1    
   121   62   63 1    
   122   62   64 1    
   123   62  138 1    
   124   63  139 1    
   125   63  140 1    
   126   63  141 1    
   127   64   65 am   BACKBONE|DICT|INTERRES
   128   64  142 1    
   129   65   66 2    
   130   65   67 1    
   131   67   68 1    
   132   67   69 1    
   133   67  143 1    
   134   68  144 1    
   135   68  145 1    
   136   68  146 1    
   137   69   70 am   BACKBONE|DICT|INTERRES
   138   69  147 1    
   139   70   71 2    
   140   70   72 1    
   141   72   73 1    
   142   72   74 1    
   143   72  148 1    
   144   73  149 1    
   145   73  150 1    
   146   73  151 1    
   147   74   75 am   BACKBONE|DICT|INTERRES
   148   74  152 1    
   149   75   76 2    
   150   75   77 1    
   151   77   78 1    
   152   77   79 1    
   153   77  153 1    
   154   78  154 1    
   155   78  155 1    
   156   78  156 1    
   157   79   80 am   BACKBONE|DICT|INTERRES
   158   79  157 1    
   159   80   81 2    
@<TRIPOS>SUBSTRUCTURE
     1 UNK         1 GROUP             0       ****    0 ROOT    
