@<TRIPOS>MOLECULE
3R207
157   159    1
SMALL
USER_CHARGES


@<TRIPOS>ATOM
      1 CA        -48.8510  -24.9724    1.1253 C.3       0 UNK        -0.1975 
      2 C         -49.1251  -25.9098    2.2923 C.2       0 UNK         0.4852 
      3 O         -48.1872  -26.4929    2.8369 O.2       0 UNK        -0.5216 
      4 N         -50.4026  -26.0610    2.6707 N.am      1 UNK        -0.4461 
      5 CA        -50.8815  -26.8656    3.8032 C.3       1 UNK         0.0864 
      6 C6        -50.5388  -28.3782    3.6497 C.3       14 UNK        -0.0898 
      7 S7        -51.8742  -29.4591    4.2559 S.3       14 UNK        -0.2598 
      8 C8        -50.9822  -30.6898    5.2667 C.3       14 UNK         0.0286 
      9 C9        -51.0517  -30.4118    6.7656 C.ar      14 UNK        -0.0844 
     10 C10       -49.8982  -30.4991    7.5553 C.ar      14 UNK        -0.0881 
     11 C11       -49.9778  -30.3576    8.9455 C.ar      14 UNK        -0.0643 
     12 C12       -51.2256  -30.1478    9.5396 C.ar      14 UNK        -0.0930 
     13 C13       -52.3728  -29.9820    8.7635 C.ar      14 UNK        -0.0827 
     14 C14       -52.2811  -30.1362    7.3778 C.ar      14 UNK        -0.1249 
     15 C15       -53.7089  -29.6435    9.4176 C.3       14 UNK         0.0141 
     16 S16       -53.6049  -28.1690   10.4953 S.3       14 UNK        -0.2313 
     17 C17       -53.5818  -28.9165   12.1635 C.3       14 UNK        -0.0915 
     18 CA        -54.9609  -28.7866   12.8693 C.3       13 UNK         0.0968 
     19 C         -55.0901  -29.7077   14.1182 C.2       13 UNK         0.5732 
     20 N         -55.6592  -29.2576   15.2321 N.am      13 UNK        -0.7310 
     21 O         -54.6954  -30.8703   14.0714 O.2       13 UNK        -0.5035 
     22 N         -55.2682  -27.3833   13.1777 N.am      13 UNK        -0.4233 
     23 C         -56.3731  -26.7245   12.8109 C.2       13 UNK         0.4989 
     24 O         -57.2524  -27.2092   12.0961 O.2       13 UNK        -0.4996 
     25 CA        -56.5237  -25.2750   13.3235 C.3       12 UNK         0.0216 
     26 CB        -57.9979  -24.8245   13.4077 C.3       12 UNK        -0.1964 
     27 N         -55.8318  -25.0117   14.5928 N.am      12 UNK        -0.4276 
     28 C         -56.0395  -25.6167   15.7712 C.2       12 UNK         0.5020 
     29 O         -56.8529  -26.5250   15.9572 O.2       12 UNK        -0.5489 
     30 CA        -55.1321  -25.1612   16.9286 C.3       11 UNK         0.0294 
     31 CB        -55.9645  -24.8212   18.1767 C.3       11 UNK        -0.2019 
     32 N         -54.0963  -26.1366   17.2923 N.am      11 UNK        -0.4493 
     33 C         -53.2855  -26.7907   16.4493 C.2       11 UNK         0.4932 
     34 O         -53.3723  -26.7469   15.2222 O.2       11 UNK        -0.5029 
     35 CA        -52.1450  -27.5916   17.0789 C.3       10 UNK         0.0280 
     36 CB        -52.1195  -29.0383   16.5566 C.3       10 UNK        -0.1976 
     37 N         -50.9198  -26.9112   16.6820 N.am      10 UNK        -0.4242 
     38 C         -49.9860  -26.4245   17.5055 C.2       10 UNK         0.5072 
     39 O         -49.9704  -26.6152   18.7226 O.2       10 UNK        -0.5224 
     40 CA        -48.8962  -25.5463   16.8635 C.3       9 UNK         0.0343 
     41 CB        -47.8447  -26.4099   16.1478 C.3       9 UNK        -0.2003 
     42 N         -49.4367  -24.5561   15.9266 N.am      9 UNK        -0.4272 
     43 C         -50.2501  -23.5417   16.2632 C.2       9 UNK         0.4988 
     44 O         -50.6120  -23.3035   17.4157 O.2       9 UNK        -0.5108 
     45 CA        -50.7486  -22.6390   15.1246 C.3       8 UNK         0.0248 
     46 CB        -49.6939  -21.5781   14.7677 C.3       8 UNK        -0.2001 
     47 N         -51.0724  -23.4314   13.9397 N.am      8 UNK        -0.4140 
     48 C         -52.2860  -23.9341   13.6716 C.2       8 UNK         0.5028 
     49 O         -53.3048  -23.6570   14.3089 O.2       8 UNK        -0.5428 
     50 CA        -52.4001  -24.9060   12.4832 C.3       7 UNK         0.0264 
     51 CB        -53.0463  -24.2117   11.2737 C.3       7 UNK        -0.1988 
     52 N         -51.1295  -25.5019   12.0659 N.am      7 UNK        -0.4454 
     53 C         -50.4162  -26.3890   12.7757 C.2       7 UNK         0.5027 
     54 O         -50.7156  -26.7810   13.8990 O.2       7 UNK        -0.5083 
     55 CA        -49.1194  -26.9030   12.1273 C.3       6 UNK         0.0844 
     56 C56       -49.4649  -28.0865   11.1983 C.3       14 UNK        -0.0967 
     57 S57       -48.0740  -28.7738   10.2371 S.3       14 UNK        -0.2604 
     58 C58       -48.7257  -30.4294    9.8144 C.3       14 UNK         0.0134 
     59 N         -48.3572  -25.8467   11.4593 N.am      6 UNK        -0.4116 
     60 C         -47.9268  -24.7079   12.0235 C.2       5 UNK         0.5034 
     61 O         -48.2563  -24.3303   13.1512 O.2       5 UNK        -0.5045 
     62 CA        -46.9631  -23.8652   11.1685 C.3       5 UNK         0.0224 
     63 CB        -46.1769  -22.8213   11.9899 C.3       5 UNK        -0.1978 
     64 N         -46.0730  -24.7172   10.3654 N.am      5 UNK        -0.4737 
     65 C         -45.1390  -25.5755   10.8076 C.2       4 UNK         0.5027 
     66 O         -44.7911  -25.6560   11.9859 O.2       4 UNK        -0.5211 
     67 CA        -44.5148  -26.5379    9.7746 C.3       4 UNK         0.0297 
     68 CB        -44.2473  -27.9288   10.3793 C.3       4 UNK        -0.1993 
     69 N         -45.3417  -26.6979    8.5726 N.am      4 UNK        -0.4486 
     70 C         -45.2577  -25.9265    7.4816 C.2       3 UNK         0.4961 
     71 O         -44.4612  -24.9950    7.3653 O.2       3 UNK        -0.5105 
     72 CA        -46.2284  -26.2260    6.3259 C.3       3 UNK         0.0299 
     73 CB        -45.5794  -27.2164    5.3453 C.3       3 UNK        -0.1972 
     74 N         -47.5566  -26.7284    6.7012 N.am      3 UNK        -0.4305 
     75 C         -48.4265  -26.1581    7.5503 C.2       2 UNK         0.5006 
     76 O         -48.1447  -25.2207    8.2987 O.2       2 UNK        -0.5106 
     77 CA        -49.8574  -26.7407    7.5498 C.3       2 UNK         0.0296 
     78 CB        -50.8769  -25.8502    8.2913 C.3       2 UNK        -0.2002 
     79 N         -50.3410  -27.0777    6.2034 N.am      2 UNK        -0.4032 
     80 C         -50.4531  -26.2453    5.1553 C.2       1 UNK         0.5000 
     81 O         -50.2426  -25.0305    5.2225 O.2       1 UNK        -0.5238 
     82 H82       -49.7670  -24.5343    0.7291 H         1 UNK         0.0889 
     83 H83       -48.3569  -25.5130    0.3184 H         1 UNK         0.0889 
     84 H84       -48.1968  -24.1611    1.4431 H         1 UNK         0.0889 
     85 H85       -51.1173  -25.5268    2.1962 H         1 UNK         0.3028 
     86 H86       -51.9668  -26.7556    3.7707 H         1 UNK         0.0864 
     87 H87       -50.4187  -28.6261    2.5937 H         1 UNK         0.0720 
     88 H88       -49.5798  -28.6275    4.1076 H         1 UNK         0.0720 
     89 H89       -49.9496  -30.7788    4.9260 H         1 UNK         0.0814 
     90 H90       -51.4376  -31.6648    5.0885 H         1 UNK         0.0814 
     91 H91       -48.9405  -30.6989    7.0940 H         1 UNK         0.1469 
     92 H92       -51.3061  -30.0719   10.6130 H         1 UNK         0.1381 
     93 H93       -53.1739  -30.0563    6.7726 H         1 UNK         0.1206 
     94 H94       -54.0733  -30.5069    9.9751 H         1 UNK         0.0813 
     95 H95       -54.4600  -29.4413    8.6527 H         1 UNK         0.0813 
     96 H96       -52.8071  -28.4262   12.7554 H         1 UNK         0.0638 
     97 H97       -53.2759  -29.9599   12.0775 H         1 UNK         0.0638 
     98 H98       -55.7096  -29.1768   12.1782 H         1 UNK         0.0568 
     99 H99       -55.7497  -29.8801   16.0181 H         1 UNK         0.3450 
    100 H100      -56.0210  -28.3129   15.2953 H         1 UNK         0.3450 
    101 H101      -54.6224  -26.9466   13.8320 H         1 UNK         0.2987 
    102 H102      -56.0323  -24.6472   12.5798 H         1 UNK         0.0766 
    103 H103      -58.0786  -23.7926   13.7493 H         1 UNK         0.0798 
    104 H104      -58.5726  -25.4503   14.0913 H         1 UNK         0.0798 
    105 H105      -58.4825  -24.8786   12.4321 H         1 UNK         0.0798 
    106 H106      -55.0406  -24.3699   14.5334 H         1 UNK         0.3198 
    107 H107      -54.6137  -24.2508   16.6210 H         1 UNK         0.0843 
    108 H108      -56.4566  -25.7047   18.5858 H         1 UNK         0.0831 
    109 H109      -56.7441  -24.0959   17.9395 H         1 UNK         0.0831 
    110 H110      -55.3473  -24.3848   18.9622 H         1 UNK         0.0831 
    111 H111      -53.9389  -26.2577   18.2822 H         1 UNK         0.3133 
    112 H112      -52.2583  -27.6049   18.1648 H         1 UNK         0.0566 
    113 H113      -52.0118  -29.0754   15.4713 H         1 UNK         0.0814 
    114 H114      -51.2940  -29.6006   16.9926 H         1 UNK         0.0814 
    115 H115      -53.0422  -29.5606   16.8112 H         1 UNK         0.0814 
    116 H116      -50.8561  -26.7096   15.6826 H         1 UNK         0.3091 
    117 H117      -48.3957  -24.9996   17.6654 H         1 UNK         0.0702 
    118 H118      -47.0469  -25.7977   15.7264 H         1 UNK         0.0785 
    119 H119      -48.2835  -26.9913   15.3369 H         1 UNK         0.0785 
    120 H120      -47.3831  -27.1144   16.8408 H         1 UNK         0.0785 
    121 H121      -49.1466  -24.6438   14.9588 H         1 UNK         0.2998 
    122 H122      -51.6427  -22.1180   15.4742 H         1 UNK         0.0697 
    123 H123      -48.7581  -22.0264   14.4326 H         1 UNK         0.0825 
    124 H124      -49.4633  -20.9546   15.6325 H         1 UNK         0.0825 
    125 H125      -50.0497  -20.9167   13.9777 H         1 UNK         0.0825 
    126 H126      -50.2894  -23.7248   13.3688 H         1 UNK         0.3029 
    127 H127      -53.0548  -25.7191   12.7981 H         1 UNK         0.0897 
    128 H128      -53.9979  -23.7535   11.5452 H         1 UNK         0.0792 
    129 H129      -53.2493  -24.9222   10.4718 H         1 UNK         0.0792 
    130 H130      -52.4096  -23.4223   10.8728 H         1 UNK         0.0792 
    131 H131      -50.7783  -25.2210   11.1632 H         1 UNK         0.3086 
    132 H132      -48.4800  -27.2814   12.9270 H         1 UNK         0.0583 
    133 H133      -49.8769  -28.8904   11.8108 H         1 UNK         0.1020 
    134 H134      -50.2468  -27.8008   10.4930 H         1 UNK         0.1020 
    135 H135      -47.9445  -30.9911    9.3000 H         1 UNK         0.0694 
    136 H136      -48.9395  -30.9802   10.7316 H         1 UNK         0.0694 
    137 H137      -48.0392  -26.0523   10.5224 H         1 UNK         0.2989 
    138 H138      -47.5886  -23.3223   10.4579 H         1 UNK         0.1055 
    139 H139      -46.8540  -22.1036   12.4548 H         1 UNK         0.0806 
    140 H140      -45.4889  -22.2569   11.3608 H         1 UNK         0.0806 
    141 H141      -45.5995  -23.2826   12.7915 H         1 UNK         0.0806 
    142 H142      -46.3118  -24.7631    9.3807 H         1 UNK         0.3061 
    143 H143      -43.5492  -26.1123    9.4933 H         1 UNK         0.0734 
    144 H144      -43.8169  -28.6076    9.6430 H         1 UNK         0.0832 
    145 H145      -43.5406  -27.8668   11.2079 H         1 UNK         0.0832 
    146 H146      -45.1590  -28.3846   10.7657 H         1 UNK         0.0832 
    147 H147      -46.0426  -27.4256    8.5951 H         1 UNK         0.3156 
    148 H148      -46.3921  -25.2857    5.7957 H         1 UNK         0.0589 
    149 H149      -45.4323  -28.1970    5.7997 H         1 UNK         0.0808 
    150 H150      -46.1870  -27.3485    4.4501 H         1 UNK         0.0808 
    151 H151      -44.6019  -26.8593    5.0173 H         1 UNK         0.0808 
    152 H152      -47.8956  -27.5012    6.1480 H         1 UNK         0.3098 
    153 H153      -49.7974  -27.6820    8.0916 H         1 UNK         0.0720 
    154 H154      -51.8513  -26.3353    8.3546 H         1 UNK         0.0791 
    155 H155      -51.0103  -24.8869    7.7985 H         1 UNK         0.0791 
    156 H156      -50.5508  -25.6464    9.3090 H         1 UNK         0.0791 
    157 H157      -50.5926  -28.0477    6.0596 H         1 UNK         0.3028 
@<TRIPOS>BOND
     1    1    2 1    
     2    1   82 1    
     3    1   83 1    
     4    1   84 1    
     5    2    3 2    
     6    2    4 am   BACKBONE|DICT|INTERRES
     7    4    5 1    
     8    4   85 1    
     9    5    6 1    
    10    5   80 1    
    11    5   86 1    
    12    6    7 1    
    13    6   87 1    
    14    6   88 1    
    15    7    8 1    
    16    8    9 1    
    17    8   89 1    
    18    8   90 1    
    19    9   10 ar   
    20    9   14 ar   
    21   10   11 ar   
    22   10   91 1    
    23   11   12 ar   
    24   11   58 1    
    25   12   13 ar   
    26   12   92 1    
    27   13   14 ar   
    28   13   15 1    
    29   14   93 1    
    30   15   16 1    
    31   15   94 1    
    32   15   95 1    
    33   16   17 1    
    34   17   18 1    
    35   17   96 1    
    36   17   97 1    
    37   18   19 1    
    38   18   22 1    
    39   18   98 1    
    40   19   20 am   BACKBONE|DICT|INTERRES
    41   19   21 2    
    42   20   99 1    
    43   20  100 1    
    44   22   23 am   BACKBONE|DICT|INTERRES
    45   22  101 1    
    46   23   24 2    
    47   23   25 1    
    48   25   26 1    
    49   25   27 1    
    50   25  102 1    
    51   26  103 1    
    52   26  104 1    
    53   26  105 1    
    54   27   28 am   BACKBONE|DICT|INTERRES
    55   27  106 1    
    56   28   29 2    
    57   28   30 1    
    58   30   31 1    
    59   30   32 1    
    60   30  107 1    
    61   31  108 1    
    62   31  109 1    
    63   31  110 1    
    64   32   33 am   BACKBONE|DICT|INTERRES
    65   32  111 1    
    66   33   34 2    
    67   33   35 1    
    68   35   36 1    
    69   35   37 1    
    70   35  112 1    
    71   36  113 1    
    72   36  114 1    
    73   36  115 1    
    74   37   38 am   BACKBONE|DICT|INTERRES
    75   37  116 1    
    76   38   39 2    
    77   38   40 1    
    78   40   41 1    
    79   40   42 1    
    80   40  117 1    
    81   41  118 1    
    82   41  119 1    
    83   41  120 1    
    84   42   43 am   BACKBONE|DICT|INTERRES
    85   42  121 1    
    86   43   44 2    
    87   43   45 1    
    88   45   46 1    
    89   45   47 1    
    90   45  122 1    
    91   46  123 1    
    92   46  124 1    
    93   46  125 1    
    94   47   48 am   BACKBONE|DICT|INTERRES
    95   47  126 1    
    96   48   49 2    
    97   48   50 1    
    98   50   51 1    
    99   50   52 1    
   100   50  127 1    
   101   51  128 1    
   102   51  129 1    
   103   51  130 1    
   104   52   53 am   BACKBONE|DICT|INTERRES
   105   52  131 1    
   106   53   54 2    
   107   53   55 1    
   108   55   56 1    
   109   55   59 1    
   110   55  132 1    
   111   56   57 1    
   112   56  133 1    
   113   56  134 1    
   114   57   58 1    
   115   58  135 1    
   116   58  136 1    
   117   59   60 am   BACKBONE|DICT|INTERRES
   118   59  137 1    
   119   60   61 2    
   120   60   62 1    
   121   62   63 1    
   122   62   64 1    
   123   62  138 1    
   124   63  139 1    
   125   63  140 1    
   126   63  141 1    
   127   64   65 am   BACKBONE|DICT|INTERRES
   128   64  142 1    
   129   65   66 2    
   130   65   67 1    
   131   67   68 1    
   132   67   69 1    
   133   67  143 1    
   134   68  144 1    
   135   68  145 1    
   136   68  146 1    
   137   69   70 am   BACKBONE|DICT|INTERRES
   138   69  147 1    
   139   70   71 2    
   140   70   72 1    
   141   72   73 1    
   142   72   74 1    
   143   72  148 1    
   144   73  149 1    
   145   73  150 1    
   146   73  151 1    
   147   74   75 am   BACKBONE|DICT|INTERRES
   148   74  152 1    
   149   75   76 2    
   150   75   77 1    
   151   77   78 1    
   152   77   79 1    
   153   77  153 1    
   154   78  154 1    
   155   78  155 1    
   156   78  156 1    
   157   79   80 am   BACKBONE|DICT|INTERRES
   158   79  157 1    
   159   80   81 2    
@<TRIPOS>SUBSTRUCTURE
     1 UNK         1 GROUP             0       ****    0 ROOT    
