@<TRIPOS>MOLECULE
3R207
157   159    1
SMALL
USER_CHARGES


@<TRIPOS>ATOM
      1 CA        -48.2541  -30.2704    2.7766 C.3       0 UNK        -0.1975 
      2 C         -48.4261  -28.7894    2.4737 C.2       0 UNK         0.4852 
      3 O         -47.8344  -28.2866    1.5180 O.2       0 UNK        -0.5216 
      4 N         -49.2285  -28.0864    3.2842 N.am      1 UNK        -0.4461 
      5 CA        -49.5024  -26.6481    3.1579 C.3       1 UNK         0.0864 
      6 C6        -50.8623  -26.2678    3.8007 C.3       14 UNK        -0.0898 
      7 S7        -50.9680  -26.5958    5.5956 S.3       14 UNK        -0.2598 
      8 C8        -52.0738  -28.0390    5.6446 C.3       14 UNK         0.0286 
      9 C9        -52.2929  -28.4950    7.0781 C.ar      14 UNK        -0.0844 
     10 C10       -51.3389  -29.2958    7.7145 C.ar      14 UNK        -0.0881 
     11 C11       -51.5207  -29.7011    9.0403 C.ar      14 UNK        -0.0643 
     12 C12       -52.6671  -29.2943    9.7279 C.ar      14 UNK        -0.0930 
     13 C13       -53.6270  -28.4899    9.1050 C.ar      14 UNK        -0.0827 
     14 C14       -53.4383  -28.1003    7.7759 C.ar      14 UNK        -0.1249 
     15 C15       -54.8301  -27.9859    9.8882 C.3       14 UNK         0.0141 
     16 S16       -55.7812  -29.3387   10.6473 S.3       14 UNK        -0.2313 
     17 C17       -56.9452  -28.4072   11.7039 C.3       14 UNK        -0.0915 
     18 CA        -56.2835  -27.6315   12.8886 C.3       13 UNK         0.0968 
     19 C         -57.3162  -26.9249   13.8195 C.2       13 UNK         0.5732 
     20 N         -58.3972  -26.3829   13.2732 N.am      13 UNK        -0.7310 
     21 O         -57.1302  -26.8125   15.0289 O.2       13 UNK        -0.5035 
     22 N         -55.2740  -28.4271   13.6059 N.am      13 UNK        -0.4233 
     23 C         -55.5047  -29.5234   14.3436 C.2       13 UNK         0.4989 
     24 O         -56.6208  -30.0049   14.5428 O.2       13 UNK        -0.4996 
     25 CA        -54.2787  -30.2152   14.9567 C.3       12 UNK         0.0216 
     26 CB        -53.5847  -31.0996   13.9085 C.3       12 UNK        -0.1964 
     27 N         -53.3359  -29.2288   15.4895 N.am      12 UNK        -0.4276 
     28 C         -52.8375  -29.2356   16.7333 C.2       12 UNK         0.5020 
     29 O         -52.9979  -30.1605   17.5310 O.2       12 UNK        -0.5489 
     30 CA        -52.0424  -27.9946   17.1868 C.3       11 UNK         0.0294 
     31 CB        -50.5353  -28.2873   17.2787 C.3       11 UNK        -0.2019 
     32 N         -52.2763  -26.8081   16.3544 N.am      11 UNK        -0.4493 
     33 C         -53.4242  -26.1098   16.3672 C.2       11 UNK         0.4932 
     34 O         -54.3855  -26.4072   17.0772 O.2       11 UNK        -0.5029 
     35 CA        -53.5073  -24.8799   15.4409 C.3       10 UNK         0.0280 
     36 CB        -54.6853  -23.9443   15.7828 C.3       10 UNK        -0.1976 
     37 N         -52.2537  -24.1240   15.3740 N.am      10 UNK        -0.4242 
     38 C         -51.5569  -23.5921   16.3934 C.2       10 UNK         0.5072 
     39 O         -51.9345  -23.6051   17.5658 O.2       10 UNK        -0.5224 
     40 CA        -50.1966  -22.9528   16.0592 C.3       9 UNK         0.0343 
     41 CB        -49.0717  -23.5626   16.9160 C.3       9 UNK        -0.2003 
     42 N         -49.8603  -23.1199   14.6427 N.am      9 UNK        -0.4272 
     43 C         -49.8864  -22.1361   13.7352 C.2       9 UNK         0.4988 
     44 O         -50.1128  -20.9561   14.0052 O.2       9 UNK        -0.5108 
     45 CA        -49.6305  -22.5264   12.2717 C.3       8 UNK         0.0248 
     46 CB        -48.1324  -22.4281   11.9420 C.3       8 UNK        -0.2001 
     47 N         -50.1296  -23.8518   11.8895 N.am      8 UNK        -0.4140 
     48 C         -51.4212  -24.2109   11.8442 C.2       8 UNK         0.5028 
     49 O         -52.3359  -23.5337   12.3112 O.2       8 UNK        -0.5428 
     50 CA        -51.7472  -25.5465   11.1626 C.3       7 UNK         0.0264 
     51 CB        -51.4334  -25.4705    9.6578 C.3       7 UNK        -0.1988 
     52 N         -50.9747  -26.6309   11.7560 N.am      7 UNK        -0.4454 
     53 C         -51.4405  -27.5294   12.6340 C.2       7 UNK         0.5027 
     54 O         -52.6099  -27.5876   13.0260 O.2       7 UNK        -0.5083 
     55 CA        -50.4020  -28.4971   13.2427 C.3       6 UNK         0.0844 
     56 C56       -50.2643  -29.8151   12.4420 C.3       14 UNK        -0.0967 
     57 S57       -49.3977  -29.6503   10.8402 S.3       14 UNK        -0.2604 
     58 C58       -50.4848  -30.5880    9.7176 C.3       14 UNK         0.0134 
     59 N         -49.1010  -27.8682   13.4856 N.am      6 UNK        -0.4116 
     60 C         -48.8890  -26.7498   14.1914 C.2       5 UNK         0.5034 
     61 O         -49.7713  -26.1469   14.8051 O.2       5 UNK        -0.5045 
     62 CA        -47.4649  -26.1685   14.1610 C.3       5 UNK         0.0224 
     63 CB        -46.6777  -26.6388   15.3936 C.3       5 UNK        -0.1978 
     64 N         -46.6911  -26.4632   12.9436 N.am      5 UNK        -0.4737 
     65 C         -47.0676  -26.1829   11.6875 C.2       4 UNK         0.5027 
     66 O         -48.1816  -25.7471   11.3864 O.2       4 UNK        -0.5211 
     67 CA        -46.0449  -26.4693   10.5798 C.3       4 UNK         0.0297 
     68 CB        -46.1978  -27.9061   10.0591 C.3       4 UNK        -0.1993 
     69 N         -46.2452  -25.5443    9.4676 N.am      4 UNK        -0.4486 
     70 C         -45.8184  -24.2785    9.4246 C.2       3 UNK         0.4961 
     71 O         -45.0745  -23.7839   10.2735 O.2       3 UNK        -0.5105 
     72 CA        -46.3081  -23.4305    8.2295 C.3       3 UNK         0.0299 
     73 CB        -45.6955  -22.0173    8.2156 C.3       3 UNK        -0.1972 
     74 N         -46.0610  -24.0712    6.9317 N.am      3 UNK        -0.4305 
     75 C         -46.7620  -25.0939    6.4256 C.2       2 UNK         0.5006 
     76 O         -47.6987  -25.6355    7.0180 O.2       2 UNK        -0.5106 
     77 CA        -46.2932  -25.6437    5.0701 C.3       2 UNK         0.0296 
     78 CB        -45.1263  -26.6263    5.2678 C.3       2 UNK        -0.2002 
     79 N         -47.3862  -26.3427    4.3961 N.am      2 UNK        -0.4032 
     80 C         -48.3454  -25.7544    3.6678 C.2       1 UNK         0.5000 
     81 O         -48.3446  -24.5532    3.3877 O.2       1 UNK        -0.5238 
     82 H82       -47.2055  -30.4944    2.9709 H         1 UNK         0.0889 
     83 H83       -48.5775  -30.8670    1.9240 H         1 UNK         0.0889 
     84 H84       -48.8340  -30.5801    3.6459 H         1 UNK         0.0889 
     85 H85       -49.6821  -28.5460    4.0601 H         1 UNK         0.3028 
     86 H86       -49.5904  -26.4278    2.0915 H         1 UNK         0.0864 
     87 H87       -51.0713  -25.2084    3.6399 H         1 UNK         0.0720 
     88 H88       -51.6674  -26.7980    3.2897 H         1 UNK         0.0720 
     89 H89       -51.6501  -28.8541    5.0568 H         1 UNK         0.0814 
     90 H90       -53.0261  -27.7825    5.1776 H         1 UNK         0.0814 
     91 H91       -50.4489  -29.5951    7.1782 H         1 UNK         0.1469 
     92 H92       -52.8138  -29.5922   10.7552 H         1 UNK         0.1381 
     93 H93       -54.1679  -27.4659    7.2914 H         1 UNK         0.1206 
     94 H94       -54.4614  -27.3164   10.6633 H         1 UNK         0.0813 
     95 H95       -55.4944  -27.3973    9.2536 H         1 UNK         0.0813 
     96 H96       -57.6761  -29.1210   12.0875 H         1 UNK         0.0638 
     97 H97       -57.4991  -27.7240   11.0586 H         1 UNK         0.0638 
     98 H98       -55.7179  -26.8024   12.4653 H         1 UNK         0.0568 
     99 H99       -58.5697  -26.4394   12.2823 H         1 UNK         0.3450 
    100 H100      -59.0572  -25.9094   13.8698 H         1 UNK         0.3450 
    101 H101      -54.3169  -28.1277   13.4467 H         1 UNK         0.2987 
    102 H102      -54.6398  -30.8585   15.7622 H         1 UNK         0.0766 
    103 H103      -52.6613  -31.5317   14.2945 H         1 UNK         0.0798 
    104 H104      -53.3511  -30.5385   13.0047 H         1 UNK         0.0798 
    105 H105      -54.2329  -31.9253   13.6123 H         1 UNK         0.0798 
    106 H106      -53.1521  -28.4176   14.9127 H         1 UNK         0.3198 
    107 H107      -52.3858  -27.7571   18.1964 H         1 UNK         0.0843 
    108 H108      -50.1114  -28.5969   16.3261 H         1 UNK         0.0831 
    109 H109      -50.3422  -29.0913   17.9901 H         1 UNK         0.0831 
    110 H110      -49.9815  -27.4133   17.6224 H         1 UNK         0.0831 
    111 H111      -51.5048  -26.4877   15.7756 H         1 UNK         0.3133 
    112 H112      -53.6790  -25.2707   14.4366 H         1 UNK         0.0566 
    113 H113      -54.7376  -23.1046   15.0899 H         1 UNK         0.0814 
    114 H114      -55.6368  -24.4740   15.7201 H         1 UNK         0.0814 
    115 H115      -54.6019  -23.5428   16.7932 H         1 UNK         0.0814 
    116 H116      -51.8851  -23.9966   14.4401 H         1 UNK         0.3091 
    117 H117      -50.2740  -21.8939   16.3134 H         1 UNK         0.0702 
    118 H118      -48.1007  -23.1410   16.6559 H         1 UNK         0.0785 
    119 H119      -49.0110  -24.6443   16.8002 H         1 UNK         0.0785 
    120 H120      -49.2372  -23.3616   17.9751 H         1 UNK         0.0785 
    121 H121      -49.6920  -24.0716   14.3401 H         1 UNK         0.2998 
    122 H122      -50.1563  -21.7973   11.6516 H         1 UNK         0.0697 
    123 H123      -47.5441  -23.1577   12.4992 H         1 UNK         0.0825 
    124 H124      -47.7408  -21.4395   12.1855 H         1 UNK         0.0825 
    125 H125      -47.9507  -22.5930   10.8804 H         1 UNK         0.0825 
    126 H126      -49.4309  -24.5115   11.5473 H         1 UNK         0.3029 
    127 H127      -52.8154  -25.7356   11.2824 H         1 UNK         0.0897 
    128 H128      -51.6542  -26.4133    9.1606 H         1 UNK         0.0792 
    129 H129      -50.3834  -25.2454    9.4651 H         1 UNK         0.0792 
    130 H130      -52.0302  -24.6987    9.1705 H         1 UNK         0.0792 
    131 H131      -49.9828  -26.6412   11.5389 H         1 UNK         0.3086 
    132 H132      -50.7965  -28.7715   14.2198 H         1 UNK         0.0583 
    133 H133      -51.2394  -30.2734   12.2918 H         1 UNK         0.1020 
    134 H134      -49.7058  -30.5378   13.0391 H         1 UNK         0.1020 
    135 H135      -49.8591  -31.0686    8.9640 H         1 UNK         0.0694 
    136 H136      -50.9776  -31.4005   10.2533 H         1 UNK         0.0694 
    137 H137      -48.3183  -28.2707   12.9914 H         1 UNK         0.2989 
    138 H138      -47.5666  -25.0833   14.2199 H         1 UNK         0.1055 
    139 H139      -47.2217  -26.4206   16.3141 H         1 UNK         0.0806 
    140 H140      -45.7134  -26.1354   15.4656 H         1 UNK         0.0806 
    141 H141      -46.4957  -27.7140   15.3713 H         1 UNK         0.0806 
    142 H142      -45.7647  -26.8403   13.0885 H         1 UNK         0.3061 
    143 H143      -45.0369  -26.3399   10.9799 H         1 UNK         0.0734 
    144 H144      -45.4401  -28.1375    9.3104 H         1 UNK         0.0832 
    145 H145      -46.0907  -28.6338   10.8646 H         1 UNK         0.0832 
    146 H146      -47.1753  -28.0646    9.6019 H         1 UNK         0.0832 
    147 H147      -46.8965  -25.8327    8.7418 H         1 UNK         0.3156 
    148 H148      -47.3874  -23.3152    8.3520 H         1 UNK         0.0589 
    149 H149      -44.6109  -22.0482    8.1040 H         1 UNK         0.0808 
    150 H150      -46.1010  -21.4160    7.4017 H         1 UNK         0.0808 
    151 H151      -45.9131  -21.4873    9.1441 H         1 UNK         0.0808 
    152 H152      -45.2743  -23.7192    6.4046 H         1 UNK         0.3098 
    153 H153      -45.9559  -24.8131    4.4461 H         1 UNK         0.0720 
    154 H154      -44.7830  -27.0303    4.3150 H         1 UNK         0.0791 
    155 H155      -45.4075  -27.4653    5.9060 H         1 UNK         0.0791 
    156 H156      -44.2723  -26.1344    5.7353 H         1 UNK         0.0791 
    157 H157      -47.5003  -27.3199    4.6182 H         1 UNK         0.3028 
@<TRIPOS>BOND
     1    1    2 1    
     2    1   82 1    
     3    1   83 1    
     4    1   84 1    
     5    2    3 2    
     6    2    4 am   BACKBONE|DICT|INTERRES
     7    4    5 1    
     8    4   85 1    
     9    5    6 1    
    10    5   80 1    
    11    5   86 1    
    12    6    7 1    
    13    6   87 1    
    14    6   88 1    
    15    7    8 1    
    16    8    9 1    
    17    8   89 1    
    18    8   90 1    
    19    9   10 ar   
    20    9   14 ar   
    21   10   11 ar   
    22   10   91 1    
    23   11   12 ar   
    24   11   58 1    
    25   12   13 ar   
    26   12   92 1    
    27   13   14 ar   
    28   13   15 1    
    29   14   93 1    
    30   15   16 1    
    31   15   94 1    
    32   15   95 1    
    33   16   17 1    
    34   17   18 1    
    35   17   96 1    
    36   17   97 1    
    37   18   19 1    
    38   18   22 1    
    39   18   98 1    
    40   19   20 am   BACKBONE|DICT|INTERRES
    41   19   21 2    
    42   20   99 1    
    43   20  100 1    
    44   22   23 am   BACKBONE|DICT|INTERRES
    45   22  101 1    
    46   23   24 2    
    47   23   25 1    
    48   25   26 1    
    49   25   27 1    
    50   25  102 1    
    51   26  103 1    
    52   26  104 1    
    53   26  105 1    
    54   27   28 am   BACKBONE|DICT|INTERRES
    55   27  106 1    
    56   28   29 2    
    57   28   30 1    
    58   30   31 1    
    59   30   32 1    
    60   30  107 1    
    61   31  108 1    
    62   31  109 1    
    63   31  110 1    
    64   32   33 am   BACKBONE|DICT|INTERRES
    65   32  111 1    
    66   33   34 2    
    67   33   35 1    
    68   35   36 1    
    69   35   37 1    
    70   35  112 1    
    71   36  113 1    
    72   36  114 1    
    73   36  115 1    
    74   37   38 am   BACKBONE|DICT|INTERRES
    75   37  116 1    
    76   38   39 2    
    77   38   40 1    
    78   40   41 1    
    79   40   42 1    
    80   40  117 1    
    81   41  118 1    
    82   41  119 1    
    83   41  120 1    
    84   42   43 am   BACKBONE|DICT|INTERRES
    85   42  121 1    
    86   43   44 2    
    87   43   45 1    
    88   45   46 1    
    89   45   47 1    
    90   45  122 1    
    91   46  123 1    
    92   46  124 1    
    93   46  125 1    
    94   47   48 am   BACKBONE|DICT|INTERRES
    95   47  126 1    
    96   48   49 2    
    97   48   50 1    
    98   50   51 1    
    99   50   52 1    
   100   50  127 1    
   101   51  128 1    
   102   51  129 1    
   103   51  130 1    
   104   52   53 am   BACKBONE|DICT|INTERRES
   105   52  131 1    
   106   53   54 2    
   107   53   55 1    
   108   55   56 1    
   109   55   59 1    
   110   55  132 1    
   111   56   57 1    
   112   56  133 1    
   113   56  134 1    
   114   57   58 1    
   115   58  135 1    
   116   58  136 1    
   117   59   60 am   BACKBONE|DICT|INTERRES
   118   59  137 1    
   119   60   61 2    
   120   60   62 1    
   121   62   63 1    
   122   62   64 1    
   123   62  138 1    
   124   63  139 1    
   125   63  140 1    
   126   63  141 1    
   127   64   65 am   BACKBONE|DICT|INTERRES
   128   64  142 1    
   129   65   66 2    
   130   65   67 1    
   131   67   68 1    
   132   67   69 1    
   133   67  143 1    
   134   68  144 1    
   135   68  145 1    
   136   68  146 1    
   137   69   70 am   BACKBONE|DICT|INTERRES
   138   69  147 1    
   139   70   71 2    
   140   70   72 1    
   141   72   73 1    
   142   72   74 1    
   143   72  148 1    
   144   73  149 1    
   145   73  150 1    
   146   73  151 1    
   147   74   75 am   BACKBONE|DICT|INTERRES
   148   74  152 1    
   149   75   76 2    
   150   75   77 1    
   151   77   78 1    
   152   77   79 1    
   153   77  153 1    
   154   78  154 1    
   155   78  155 1    
   156   78  156 1    
   157   79   80 am   BACKBONE|DICT|INTERRES
   158   79  157 1    
   159   80   81 2    
@<TRIPOS>SUBSTRUCTURE
     1 UNK         1 GROUP             0       ****    0 ROOT    
