@<TRIPOS>MOLECULE
3R207
157   159    1
SMALL
USER_CHARGES


@<TRIPOS>ATOM
      1 CA        -51.0736  -29.8736    3.1991 C.3       0 UNK        -0.1975 
      2 C         -51.4188  -28.4263    3.5173 C.2       0 UNK         0.4852 
      3 O         -52.5551  -28.0057    3.2961 O.2       0 UNK        -0.5216 
      4 N         -50.4483  -27.6661    4.0325 N.am      1 UNK        -0.4461 
      5 CA        -50.5614  -26.2505    4.3818 C.3       1 UNK         0.0864 
      6 C6        -51.4284  -25.9943    5.6490 C.3       14 UNK        -0.0898 
      7 S7        -50.7212  -26.6365    7.2042 S.3       14 UNK        -0.2598 
      8 C8        -51.6310  -28.2031    7.4038 C.3       14 UNK         0.0286 
      9 C9        -51.3319  -28.8372    8.7542 C.ar      14 UNK        -0.0844 
     10 C10       -50.0354  -29.2652    9.0504 C.ar      14 UNK        -0.0881 
     11 C11       -49.7283  -29.7875   10.3090 C.ar      14 UNK        -0.0643 
     12 C12       -50.7365  -29.9124   11.2678 C.ar      14 UNK        -0.0930 
     13 C13       -52.0414  -29.5027   10.9783 C.ar      14 UNK        -0.0827 
     14 C14       -52.3359  -28.9708    9.7190 C.ar      14 UNK        -0.1249 
     15 C15       -53.1136  -29.5743   12.0516 C.3       14 UNK         0.0141 
     16 S16       -54.1379  -31.0653   11.9056 S.3       14 UNK        -0.2313 
     17 C17       -54.9620  -31.0722   13.5347 C.3       14 UNK        -0.0915 
     18 CA        -56.3171  -30.3146   13.5446 C.3       13 UNK         0.0968 
     19 C         -57.1484  -30.6559   14.8173 C.2       13 UNK         0.5732 
     20 N         -57.5422  -29.7005   15.6521 N.am      13 UNK        -0.7310 
     21 O         -57.4598  -31.8223   15.0474 O.2       13 UNK        -0.5035 
     22 N         -56.1344  -28.8710   13.3284 N.am      13 UNK        -0.4233 
     23 C         -57.0447  -28.0676   12.7638 C.2       13 UNK         0.4989 
     24 O         -58.0984  -28.4780   12.2728 O.2       13 UNK        -0.4996 
     25 CA        -56.7325  -26.5544   12.7394 C.3       12 UNK         0.0216 
     26 CB        -58.0053  -25.6912   12.6102 C.3       12 UNK        -0.1964 
     27 N         -55.9188  -26.0824   13.8673 N.am      12 UNK        -0.4276 
     28 C         -56.1711  -26.2206   15.1764 C.2       12 UNK         0.5020 
     29 O         -57.1482  -26.8136   15.6391 O.2       12 UNK        -0.5489 
     30 CA        -55.1186  -25.6196   16.1263 C.3       11 UNK         0.0294 
     31 CB        -55.7804  -25.0065   17.3733 C.3       11 UNK        -0.2019 
     32 N         -54.0636  -26.5442   16.5642 N.am      11 UNK        -0.4493 
     33 C         -53.4743  -27.5486   15.8964 C.2       11 UNK         0.4932 
     34 O         -53.8104  -27.9656   14.7879 O.2       11 UNK        -0.5029 
     35 CA        -52.2316  -28.1303   16.5810 C.3       10 UNK         0.0280 
     36 CB        -51.7880  -29.4811   15.9913 C.3       10 UNK        -0.1976 
     37 N         -51.1557  -27.1604   16.4079 N.am      10 UNK        -0.4242 
     38 C         -50.7648  -26.2701   17.3268 C.2       10 UNK         0.5072 
     39 O         -51.1986  -26.2336   18.4791 O.2       10 UNK        -0.5224 
     40 CA        -49.7481  -25.2159   16.8632 C.3       9 UNK         0.0343 
     41 CB        -48.3688  -25.8474   16.6079 C.3       9 UNK        -0.2003 
     42 N         -50.2025  -24.5110   15.6623 N.am      9 UNK        -0.4272 
     43 C         -51.2135  -23.6290   15.6284 C.2       9 UNK         0.4988 
     44 O         -51.8681  -23.2939   16.6156 O.2       9 UNK        -0.5108 
     45 CA        -51.5460  -23.0053   14.2635 C.3       8 UNK         0.0248 
     46 CB        -50.6690  -21.7691   14.0060 C.3       8 UNK        -0.2001 
     47 N         -51.3750  -23.9659   13.1727 N.am      8 UNK        -0.4140 
     48 C         -52.3035  -24.8698   12.8258 C.2       8 UNK         0.5028 
     49 O         -53.4341  -24.9095   13.3110 O.2       8 UNK        -0.5428 
     50 CA        -51.9305  -25.9031   11.7497 C.3       7 UNK         0.0264 
     51 CB        -52.4352  -25.4240   10.3800 C.3       7 UNK        -0.1988 
     52 N         -50.4978  -26.2036   11.6711 N.am      7 UNK        -0.4454 
     53 C         -49.7639  -26.7276   12.6654 C.2       7 UNK         0.5027 
     54 O         -50.2460  -27.1292   13.7251 O.2       7 UNK        -0.5083 
     55 CA        -48.2254  -26.7058   12.5216 C.3       6 UNK         0.0844 
     56 C56       -47.5873  -28.1226   12.4534 C.3       14 UNK        -0.0967 
     57 S57       -47.2130  -28.7418   10.7722 S.3       14 UNK        -0.2604 
     58 C58       -48.3001  -30.1948   10.6271 C.3       14 UNK         0.0134 
     59 N         -47.7238  -25.7953   11.4866 N.am      6 UNK        -0.4116 
     60 C         -47.8892  -24.4655   11.4509 C.2       5 UNK         0.5034 
     61 O         -48.5425  -23.8417   12.2901 O.2       5 UNK        -0.5045 
     62 CA        -47.2505  -23.7288   10.2573 C.3       5 UNK         0.0224 
     63 CB        -47.0134  -22.2291   10.5344 C.3       5 UNK        -0.1978 
     64 N         -46.0298  -24.3838    9.7637 N.am      5 UNK        -0.4737 
     65 C         -44.8770  -24.5629   10.4311 C.2       4 UNK         0.5027 
     66 O         -44.6745  -24.1391   11.5691 O.2       4 UNK        -0.5211 
     67 CA        -43.7653  -25.3812    9.7442 C.3       4 UNK         0.0297 
     68 CB        -43.5317  -26.7034   10.4957 C.3       4 UNK        -0.1993 
     69 N         -44.0345  -25.6848    8.3369 N.am      4 UNK        -0.4486 
     70 C         -43.9190  -24.8167    7.3242 C.2       3 UNK         0.4961 
     71 O         -43.5310  -23.6551    7.4576 O.2       3 UNK        -0.5105 
     72 CA        -44.3180  -25.3160    5.9218 C.3       3 UNK         0.0299 
     73 CB        -44.5575  -26.8419    5.8313 C.3       3 UNK        -0.1972 
     74 N         -45.4792  -24.5873    5.4004 N.am      3 UNK        -0.4305 
     75 C         -46.6950  -24.4881    5.9606 C.2       2 UNK         0.5006 
     76 O         -46.9955  -24.9932    7.0452 O.2       2 UNK        -0.5106 
     77 CA        -47.7653  -23.6820    5.1929 C.3       2 UNK         0.0296 
     78 CB        -47.2872  -23.1070    3.8387 C.3       2 UNK        -0.2002 
     79 N         -49.0070  -24.4459    5.0140 N.am      2 UNK        -0.4032 
     80 C         -49.1420  -25.6433    4.4212 C.2       1 UNK         0.5000 
     81 O         -48.2073  -26.2636    3.9020 O.2       1 UNK        -0.5238 
     82 H82       -50.0390  -30.1099    3.4480 H         1 UNK         0.0889 
     83 H83       -51.2207  -30.0701    2.1374 H         1 UNK         0.0889 
     84 H84       -51.7195  -30.5456    3.7635 H         1 UNK         0.0889 
     85 H85       -49.5068  -28.0264    4.1303 H         1 UNK         0.3028 
     86 H86       -51.0558  -25.7553    3.5432 H         1 UNK         0.0864 
     87 H87       -51.6012  -24.9250    5.7783 H         1 UNK         0.0720 
     88 H88       -52.4242  -26.4165    5.5092 H         1 UNK         0.0720 
     89 H89       -52.7009  -28.0177    7.2967 H         1 UNK         0.0814 
     90 H90       -51.3503  -28.8936    6.6078 H         1 UNK         0.0814 
     91 H91       -49.2530  -29.1544    8.3117 H         1 UNK         0.1469 
     92 H92       -50.5024  -30.3064   12.2472 H         1 UNK         0.1381 
     93 H93       -53.3413  -28.6361    9.5033 H         1 UNK         0.1206 
     94 H94       -52.6462  -29.5462   13.0342 H         1 UNK         0.0813 
     95 H95       -53.7567  -28.6969   11.9910 H         1 UNK         0.0813 
     96 H96       -54.2907  -30.6716   14.2952 H         1 UNK         0.0638 
     97 H97       -55.1098  -32.1220   13.7942 H         1 UNK         0.0638 
     98 H98       -56.9040  -30.7071   12.7121 H         1 UNK         0.0568 
     99 H99       -57.3218  -28.7219   15.4879 H         1 UNK         0.3450 
    100 H100      -58.0846  -29.9556   16.4612 H         1 UNK         0.3450 
    101 H101      -55.3112  -28.4590   13.7623 H         1 UNK         0.2987 
    102 H102      -56.1283  -26.3900   11.8460 H         1 UNK         0.0766 
    103 H103      -57.7615  -24.6299   12.5626 H         1 UNK         0.0798 
    104 H104      -58.6803  -25.8429   13.4534 H         1 UNK         0.0798 
    105 H105      -58.5575  -25.9347   11.7016 H         1 UNK         0.0798 
    106 H106      -55.0306  -25.6417   13.6158 H         1 UNK         0.3198 
    107 H107      -54.6213  -24.8038   15.5997 H         1 UNK         0.0843 
    108 H108      -56.2236  -25.7722   18.0114 H         1 UNK         0.0831 
    109 H109      -56.5767  -24.3153   17.0933 H         1 UNK         0.0831 
    110 H110      -55.0618  -24.4444   17.9702 H         1 UNK         0.0831 
    111 H111      -53.6508  -26.3135   17.4574 H         1 UNK         0.3133 
    112 H112      -52.4607  -28.2835   17.6377 H         1 UNK         0.0566 
    113 H113      -50.9616  -29.9040   16.5624 H         1 UNK         0.0814 
    114 H114      -52.6021  -30.2060   16.0127 H         1 UNK         0.0814 
    115 H115      -51.4552  -29.3820   14.9585 H         1 UNK         0.0814 
    116 H116      -50.7835  -27.0875   15.4612 H         1 UNK         0.3091 
    117 H117      -49.6384  -24.4813   17.6640 H         1 UNK         0.0702 
    118 H118      -47.6364  -25.0961   16.3117 H         1 UNK         0.0785 
    119 H119      -48.4040  -26.6085   15.8280 H         1 UNK         0.0785 
    120 H120      -47.9909  -26.3282   17.5112 H         1 UNK         0.0785 
    121 H121      -49.7301  -24.7294   14.7982 H         1 UNK         0.2998 
    122 H122      -52.5874  -22.6767   14.2899 H         1 UNK         0.0697 
    123 H123      -49.6073  -22.0181   13.9920 H         1 UNK         0.0825 
    124 H124      -50.8167  -21.0191   14.7842 H         1 UNK         0.0825 
    125 H125      -50.9148  -21.3001   13.0531 H         1 UNK         0.0825 
    126 H126      -50.4680  -23.9800   12.7151 H         1 UNK         0.3029 
    127 H127      -52.4461  -26.8258   12.0114 H         1 UNK         0.0897 
    128 H128      -52.2986  -26.1866    9.6172 H         1 UNK         0.0792 
    129 H129      -51.9177  -24.5227   10.0494 H         1 UNK         0.0792 
    130 H130      -53.5015  -25.1958   10.4133 H         1 UNK         0.0792 
    131 H131      -50.0237  -25.9287   10.8240 H         1 UNK         0.3086 
    132 H132      -47.8828  -26.2714   13.4630 H         1 UNK         0.0583 
    133 H133      -46.6329  -28.0946   12.9817 H         1 UNK         0.1020 
    134 H134      -48.1826  -28.8555   13.0021 H         1 UNK         0.1020 
    135 H135      -47.9263  -30.8325    9.8248 H         1 UNK         0.0694 
    136 H136      -48.2495  -30.7915   11.5392 H         1 UNK         0.0694 
    137 H137      -47.1943  -26.2337   10.7464 H         1 UNK         0.2989 
    138 H138      -47.9766  -23.7982    9.4454 H         1 UNK         0.1055 
    139 H139      -47.9528  -21.7189   10.7517 H         1 UNK         0.0806 
    140 H140      -46.5679  -21.7323    9.6725 H         1 UNK         0.0806 
    141 H141      -46.3565  -22.0723   11.3903 H         1 UNK         0.0806 
    142 H142      -46.1040  -24.7622    8.8225 H         1 UNK         0.3061 
    143 H143      -42.8486  -24.7902    9.8009 H         1 UNK         0.0734 
    144 H144      -42.7020  -27.2645   10.0654 H         1 UNK         0.0832 
    145 H145      -43.2859  -26.5210   11.5429 H         1 UNK         0.0832 
    146 H146      -44.4158  -27.3417   10.4770 H         1 UNK         0.0832 
    147 H147      -44.3817  -26.6105    8.1304 H         1 UNK         0.3156 
    148 H148      -43.4806  -25.0763    5.2648 H         1 UNK         0.0589 
    149 H149      -45.4091  -27.1670    6.4304 H         1 UNK         0.0808 
    150 H150      -44.7557  -27.1412    4.8019 H         1 UNK         0.0808 
    151 H151      -43.6806  -27.4018    6.1595 H         1 UNK         0.0808 
    152 H152      -45.3322  -24.1077    4.5236 H         1 UNK         0.3098 
    153 H153      -48.0169  -22.8376    5.8363 H         1 UNK         0.0720 
    154 H154      -48.0756  -22.5213    3.3656 H         1 UNK         0.0791 
    155 H155      -46.9979  -23.8904    3.1368 H         1 UNK         0.0791 
    156 H156      -46.4352  -22.4381    3.9678 H         1 UNK         0.0791 
    157 H157      -49.8241  -24.0460    5.4526 H         1 UNK         0.3028 
@<TRIPOS>BOND
     1    1    2 1    
     2    1   82 1    
     3    1   83 1    
     4    1   84 1    
     5    2    3 2    
     6    2    4 am   BACKBONE|DICT|INTERRES
     7    4    5 1    
     8    4   85 1    
     9    5    6 1    
    10    5   80 1    
    11    5   86 1    
    12    6    7 1    
    13    6   87 1    
    14    6   88 1    
    15    7    8 1    
    16    8    9 1    
    17    8   89 1    
    18    8   90 1    
    19    9   10 ar   
    20    9   14 ar   
    21   10   11 ar   
    22   10   91 1    
    23   11   12 ar   
    24   11   58 1    
    25   12   13 ar   
    26   12   92 1    
    27   13   14 ar   
    28   13   15 1    
    29   14   93 1    
    30   15   16 1    
    31   15   94 1    
    32   15   95 1    
    33   16   17 1    
    34   17   18 1    
    35   17   96 1    
    36   17   97 1    
    37   18   19 1    
    38   18   22 1    
    39   18   98 1    
    40   19   20 am   BACKBONE|DICT|INTERRES
    41   19   21 2    
    42   20   99 1    
    43   20  100 1    
    44   22   23 am   BACKBONE|DICT|INTERRES
    45   22  101 1    
    46   23   24 2    
    47   23   25 1    
    48   25   26 1    
    49   25   27 1    
    50   25  102 1    
    51   26  103 1    
    52   26  104 1    
    53   26  105 1    
    54   27   28 am   BACKBONE|DICT|INTERRES
    55   27  106 1    
    56   28   29 2    
    57   28   30 1    
    58   30   31 1    
    59   30   32 1    
    60   30  107 1    
    61   31  108 1    
    62   31  109 1    
    63   31  110 1    
    64   32   33 am   BACKBONE|DICT|INTERRES
    65   32  111 1    
    66   33   34 2    
    67   33   35 1    
    68   35   36 1    
    69   35   37 1    
    70   35  112 1    
    71   36  113 1    
    72   36  114 1    
    73   36  115 1    
    74   37   38 am   BACKBONE|DICT|INTERRES
    75   37  116 1    
    76   38   39 2    
    77   38   40 1    
    78   40   41 1    
    79   40   42 1    
    80   40  117 1    
    81   41  118 1    
    82   41  119 1    
    83   41  120 1    
    84   42   43 am   BACKBONE|DICT|INTERRES
    85   42  121 1    
    86   43   44 2    
    87   43   45 1    
    88   45   46 1    
    89   45   47 1    
    90   45  122 1    
    91   46  123 1    
    92   46  124 1    
    93   46  125 1    
    94   47   48 am   BACKBONE|DICT|INTERRES
    95   47  126 1    
    96   48   49 2    
    97   48   50 1    
    98   50   51 1    
    99   50   52 1    
   100   50  127 1    
   101   51  128 1    
   102   51  129 1    
   103   51  130 1    
   104   52   53 am   BACKBONE|DICT|INTERRES
   105   52  131 1    
   106   53   54 2    
   107   53   55 1    
   108   55   56 1    
   109   55   59 1    
   110   55  132 1    
   111   56   57 1    
   112   56  133 1    
   113   56  134 1    
   114   57   58 1    
   115   58  135 1    
   116   58  136 1    
   117   59   60 am   BACKBONE|DICT|INTERRES
   118   59  137 1    
   119   60   61 2    
   120   60   62 1    
   121   62   63 1    
   122   62   64 1    
   123   62  138 1    
   124   63  139 1    
   125   63  140 1    
   126   63  141 1    
   127   64   65 am   BACKBONE|DICT|INTERRES
   128   64  142 1    
   129   65   66 2    
   130   65   67 1    
   131   67   68 1    
   132   67   69 1    
   133   67  143 1    
   134   68  144 1    
   135   68  145 1    
   136   68  146 1    
   137   69   70 am   BACKBONE|DICT|INTERRES
   138   69  147 1    
   139   70   71 2    
   140   70   72 1    
   141   72   73 1    
   142   72   74 1    
   143   72  148 1    
   144   73  149 1    
   145   73  150 1    
   146   73  151 1    
   147   74   75 am   BACKBONE|DICT|INTERRES
   148   74  152 1    
   149   75   76 2    
   150   75   77 1    
   151   77   78 1    
   152   77   79 1    
   153   77  153 1    
   154   78  154 1    
   155   78  155 1    
   156   78  156 1    
   157   79   80 am   BACKBONE|DICT|INTERRES
   158   79  157 1    
   159   80   81 2    
@<TRIPOS>SUBSTRUCTURE
     1 UNK         1 GROUP             0       ****    0 ROOT    
