@<TRIPOS>MOLECULE
3R207
157   159    1
SMALL
USER_CHARGES


@<TRIPOS>ATOM
      1 CA        -46.4334  -30.9690    8.0678 C.3       0 UNK        -0.1975 
      2 C         -46.3305  -30.3988    6.6605 C.2       0 UNK         0.4852 
      3 O         -45.2768  -30.5035    6.0308 O.2       0 UNK        -0.5216 
      4 N         -47.4221  -29.8067    6.1624 N.am      1 UNK        -0.4461 
      5 CA        -47.4967  -29.1139    4.8729 C.3       1 UNK         0.0864 
      6 C6        -48.9624  -29.0042    4.3746 C.3       14 UNK        -0.0898 
      7 S7        -50.0841  -28.2039    5.5714 S.3       14 UNK        -0.2598 
      8 C8        -51.0971  -29.6043    6.1506 C.3       14 UNK         0.0286 
      9 C9        -51.7449  -29.3095    7.4982 C.ar      14 UNK        -0.0844 
     10 C10       -51.5644  -30.1847    8.5758 C.ar      14 UNK        -0.0881 
     11 C11       -52.1487  -29.9145    9.8178 C.ar      14 UNK        -0.0643 
     12 C12       -52.9031  -28.7495    9.9808 C.ar      14 UNK        -0.0930 
     13 C13       -53.0966  -27.8699    8.9123 C.ar      14 UNK        -0.0827 
     14 C14       -52.5247  -28.1610    7.6722 C.ar      14 UNK        -0.1249 
     15 C15       -53.8950  -26.5885    9.1038 C.3       14 UNK         0.0141 
     16 S16       -55.6453  -26.7484    8.6045 S.3       14 UNK        -0.2313 
     17 C17       -56.3044  -28.0380    9.7213 C.3       14 UNK        -0.0915 
     18 CA        -56.8957  -27.4946   11.0495 C.3       13 UNK         0.0968 
     19 C         -57.4703  -28.6637   11.9011 C.2       13 UNK         0.5732 
     20 N         -56.8215  -29.0768   12.9853 N.am      13 UNK        -0.7310 
     21 O         -58.5247  -29.2013   11.5712 O.2       13 UNK        -0.5035 
     22 N         -55.9287  -26.6637   11.7769 N.am      13 UNK        -0.4233 
     23 C         -56.2332  -25.7987   12.7479 C.2       13 UNK         0.4989 
     24 O         -57.3807  -25.5279   13.1071 O.2       13 UNK        -0.4996 
     25 CA        -55.0326  -25.1523   13.4578 C.3       12 UNK         0.0216 
     26 CB        -55.2617  -23.6522   13.7137 C.3       12 UNK        -0.1964 
     27 N         -54.7300  -25.8172   14.7260 N.am      12 UNK        -0.4276 
     28 C         -54.3604  -27.0971   14.8749 C.2       12 UNK         0.5020 
     29 O         -54.2415  -27.8891   13.9369 O.2       12 UNK        -0.5489 
     30 CA        -54.0407  -27.5393   16.3115 C.3       11 UNK         0.0294 
     31 CB        -53.4566  -28.9614   16.3862 C.3       11 UNK        -0.2019 
     32 N         -53.0847  -26.6026   16.9032 N.am      11 UNK        -0.4493 
     33 C         -53.3616  -25.7233   17.8753 C.2       11 UNK         0.4932 
     34 O         -54.4726  -25.6243   18.3977 O.2       11 UNK        -0.5029 
     35 CA        -52.2381  -24.7580   18.3058 C.3       10 UNK         0.0280 
     36 CB        -52.3370  -24.3507   19.7918 C.3       10 UNK        -0.1976 
     37 N         -50.8865  -25.2189   17.9655 N.am      10 UNK        -0.4242 
     38 C         -50.2274  -26.2803   18.4615 C.2       10 UNK         0.5072 
     39 O         -50.6833  -27.0179   19.3363 O.2       10 UNK        -0.5224 
     40 CA        -48.8325  -26.5904   17.8787 C.3       9 UNK         0.0343 
     41 CB        -48.6944  -28.0838   17.5286 C.3       9 UNK        -0.2003 
     42 N         -48.5563  -25.8029   16.6758 N.am      9 UNK        -0.4272 
     43 C         -47.8268  -24.6792   16.6272 C.2       9 UNK         0.4988 
     44 O         -47.2145  -24.2182   17.5906 O.2       9 UNK        -0.5108 
     45 CA        -47.7928  -23.9201   15.2851 C.3       8 UNK         0.0248 
     46 CB        -46.4980  -24.2403   14.5218 C.3       8 UNK        -0.2001 
     47 N         -48.9481  -24.1974   14.4229 N.am      8 UNK        -0.4140 
     48 C         -50.2142  -23.8580   14.7176 C.2       8 UNK         0.5028 
     49 O         -50.5280  -23.2227   15.7236 O.2       8 UNK        -0.5428 
     50 CA        -51.3293  -24.3766   13.7891 C.3       7 UNK         0.0264 
     51 CB        -51.6456  -23.3325   12.7108 C.3       7 UNK        -0.1988 
     52 N         -51.0116  -25.6584   13.1515 N.am      7 UNK        -0.4454 
     53 C         -50.7085  -26.7844   13.8190 C.2       7 UNK         0.5027 
     54 O         -50.8120  -26.8827   15.0432 O.2       7 UNK        -0.5083 
     55 CA        -50.1243  -27.9717   13.0224 C.3       6 UNK         0.0844 
     56 C56       -51.1027  -29.1707   13.0209 C.3       14 UNK        -0.0967 
     57 S57       -50.5360  -30.5745   11.9961 S.3       14 UNK        -0.2604 
     58 C58       -52.0017  -30.9040   10.9665 C.3       14 UNK         0.0134 
     59 N         -49.6584  -27.6157   11.6784 N.am      6 UNK        -0.4116 
     60 C         -48.6737  -26.7550   11.3841 C.2       5 UNK         0.5034 
     61 O         -48.0840  -26.0723   12.2234 O.2       5 UNK        -0.5045 
     62 CA        -48.2953  -26.6110    9.9002 C.3       5 UNK         0.0224 
     63 CB        -48.7387  -27.8070    9.0334 C.3       5 UNK        -0.1978 
     64 N         -48.7765  -25.3632    9.2965 N.am      5 UNK        -0.4737 
     65 C         -50.0150  -24.8441    9.3305 C.2       4 UNK         0.5027 
     66 O         -50.9323  -25.2888   10.0226 O.2       4 UNK        -0.5211 
     67 CA        -50.2800  -23.6073    8.4465 C.3       4 UNK         0.0297 
     68 CB        -50.5991  -22.3725    9.3037 C.3       4 UNK        -0.1993 
     69 N         -49.1707  -23.2815    7.5406 N.am      4 UNK        -0.4486 
     70 C         -48.9294  -23.8945    6.3734 C.2       3 UNK         0.4961 
     71 O         -49.6442  -24.7846    5.9142 O.2       3 UNK        -0.5105 
     72 CA        -47.6970  -23.4375    5.5757 C.3       3 UNK         0.0299 
     73 CB        -46.6873  -22.5918    6.3834 C.3       3 UNK        -0.1972 
     74 N         -47.0250  -24.6094    5.0176 N.am      3 UNK        -0.4305 
     75 C         -46.3592  -24.6527    3.8607 C.2       2 UNK         0.5006 
     76 O         -46.2506  -23.6861    3.1043 O.2       2 UNK        -0.5106 
     77 CA        -45.6799  -25.9798    3.4641 C.3       2 UNK         0.0296 
     78 CB        -44.2564  -26.0561    4.0515 C.3       2 UNK        -0.2002 
     79 N         -46.4356  -27.2131    3.7437 N.am      2 UNK        -0.4032 
     80 C         -46.7851  -27.7411    4.9269 C.2       1 UNK         0.5000 
     81 O         -46.5809  -27.1871    6.0118 O.2       1 UNK        -0.5238 
     82 H82       -45.8005  -30.4006    8.7488 H         1 UNK         0.0889 
     83 H83       -46.1013  -32.0067    8.0785 H         1 UNK         0.0889 
     84 H84       -47.4550  -30.9388    8.4465 H         1 UNK         0.0889 
     85 H85       -48.2434  -29.7058    6.7400 H         1 UNK         0.3028 
     86 H86       -46.9513  -29.7204    4.1462 H         1 UNK         0.0864 
     87 H87       -49.3415  -29.9996    4.1387 H         1 UNK         0.0720 
     88 H88       -49.0136  -28.4498    3.4359 H         1 UNK         0.0720 
     89 H89       -50.4754  -30.4983    6.2169 H         1 UNK         0.0814 
     90 H90       -51.8728  -29.8170    5.4140 H         1 UNK         0.0814 
     91 H91       -50.9756  -31.0830    8.4498 H         1 UNK         0.1469 
     92 H92       -53.3623  -28.5350   10.9345 H         1 UNK         0.1381 
     93 H93       -52.6682  -27.4796    6.8446 H         1 UNK         0.1206 
     94 H94       -53.4403  -25.7945    8.5092 H         1 UNK         0.0813 
     95 H95       -53.8224  -26.2473   10.1358 H         1 UNK         0.0813 
     96 H96       -57.0847  -28.5592    9.1637 H         1 UNK         0.0638 
     97 H97       -55.5429  -28.7915    9.9141 H         1 UNK         0.0638 
     98 H98       -57.7430  -26.8557   10.7933 H         1 UNK         0.0568 
     99 H99       -55.9397  -28.6533   13.2557 H         1 UNK         0.3450 
    100 H100      -57.2039  -29.8339   13.5281 H         1 UNK         0.3450 
    101 H101      -54.9581  -26.8815   11.6189 H         1 UNK         0.2987 
    102 H102      -54.1563  -25.2518   12.8143 H         1 UNK         0.0766 
    103 H103      -55.4735  -23.1272   12.7813 H         1 UNK         0.0798 
    104 H104      -54.3831  -23.1822   14.1553 H         1 UNK         0.0798 
    105 H105      -56.1050  -23.4786   14.3835 H         1 UNK         0.0798 
    106 H106      -54.8367  -25.2609   15.5619 H         1 UNK         0.3198 
    107 H107      -54.9844  -27.5375   16.8608 H         1 UNK         0.0843 
    108 H108      -53.3071  -29.2703   17.4207 H         1 UNK         0.0831 
    109 H109      -52.4949  -29.0263   15.8796 H         1 UNK         0.0831 
    110 H110      -54.1249  -29.6886   15.9232 H         1 UNK         0.0831 
    111 H111      -52.1621  -26.5964   16.4764 H         1 UNK         0.3133 
    112 H112      -52.3919  -23.8537   17.7157 H         1 UNK         0.0566 
    113 H113      -51.5390  -23.6619   20.0688 H         1 UNK         0.0814 
    114 H114      -53.2821  -23.8466   19.9975 H         1 UNK         0.0814 
    115 H115      -52.2818  -25.2143   20.4550 H         1 UNK         0.0814 
    116 H116      -50.4290  -24.6689   17.2465 H         1 UNK         0.3091 
    117 H117      -48.1015  -26.3562   18.6551 H         1 UNK         0.0702 
    118 H118      -47.7127  -28.3033   17.1085 H         1 UNK         0.0785 
    119 H119      -49.4473  -28.4021   16.8067 H         1 UNK         0.0785 
    120 H120      -48.8109  -28.7075   18.4157 H         1 UNK         0.0785 
    121 H121      -49.0620  -26.0925   15.8469 H         1 UNK         0.2998 
    122 H122      -47.7987  -22.8523   15.5138 H         1 UNK         0.0697 
    123 H123      -46.4347  -23.6768   13.5907 H         1 UNK         0.0825 
    124 H124      -45.6203  -23.9831   15.1166 H         1 UNK         0.0825 
    125 H125      -46.4259  -25.3008   14.2770 H         1 UNK         0.0825 
    126 H126      -48.7657  -24.7466   13.5874 H         1 UNK         0.3029 
    127 H127      -52.2185  -24.5257   14.4030 H         1 UNK         0.0897 
    128 H128      -52.4359  -23.6704   12.0407 H         1 UNK         0.0792 
    129 H129      -51.9763  -22.3947   13.1593 H         1 UNK         0.0792 
    130 H130      -50.7644  -23.1129   12.1083 H         1 UNK         0.0792 
    131 H131      -50.9108  -25.6519   12.1407 H         1 UNK         0.3086 
    132 H132      -49.2344  -28.2868   13.5713 H         1 UNK         0.0583 
    133 H133      -51.2266  -29.5449   14.0377 H         1 UNK         0.1020 
    134 H134      -52.0962  -28.8557   12.7067 H         1 UNK         0.1020 
    135 H135      -51.9215  -31.9161   10.5669 H         1 UNK         0.0694 
    136 H136      -52.8975  -30.9007   11.5899 H         1 UNK         0.0694 
    137 H137      -50.1079  -28.1047   10.9172 H         1 UNK         0.2989 
    138 H138      -47.2050  -26.5734    9.8730 H         1 UNK         0.1055 
    139 H139      -48.4131  -28.7572    9.4586 H         1 UNK         0.0806 
    140 H140      -48.3079  -27.7360    8.0357 H         1 UNK         0.0806 
    141 H141      -49.8214  -27.8410    8.9160 H         1 UNK         0.0806 
    142 H142      -48.1011  -24.8755    8.7268 H         1 UNK         0.3061 
    143 H143      -51.1631  -23.8331    7.8447 H         1 UNK         0.0734 
    144 H144      -50.7855  -21.4950    8.6844 H         1 UNK         0.0832 
    145 H145      -51.4992  -22.5372    9.8964 H         1 UNK         0.0832 
    146 H146      -49.7868  -22.1339    9.9913 H         1 UNK         0.0832 
    147 H147      -48.5403  -22.5508    7.8393 H         1 UNK         0.3156 
    148 H148      -48.0803  -22.8250    4.7572 H         1 UNK         0.0589 
    149 H149      -47.1335  -21.6615    6.7369 H         1 UNK         0.0808 
    150 H150      -46.3027  -23.1346    7.2479 H         1 UNK         0.0808 
    151 H151      -45.8324  -22.3104    5.7681 H         1 UNK         0.0808 
    152 H152      -47.0792  -25.4689    5.5626 H         1 UNK         0.3098 
    153 H153      -45.5763  -25.9514    2.3781 H         1 UNK         0.0720 
    154 H154      -43.6669  -25.1864    3.7582 H         1 UNK         0.0791 
    155 H155      -43.7273  -26.9404    3.6962 H         1 UNK         0.0791 
    156 H156      -44.2660  -26.0866    5.1416 H         1 UNK         0.0791 
    157 H157      -46.6968  -27.7311    2.9158 H         1 UNK         0.3028 
@<TRIPOS>BOND
     1    1    2 1    
     2    1   82 1    
     3    1   83 1    
     4    1   84 1    
     5    2    3 2    
     6    2    4 am   BACKBONE|DICT|INTERRES
     7    4    5 1    
     8    4   85 1    
     9    5    6 1    
    10    5   80 1    
    11    5   86 1    
    12    6    7 1    
    13    6   87 1    
    14    6   88 1    
    15    7    8 1    
    16    8    9 1    
    17    8   89 1    
    18    8   90 1    
    19    9   10 ar   
    20    9   14 ar   
    21   10   11 ar   
    22   10   91 1    
    23   11   12 ar   
    24   11   58 1    
    25   12   13 ar   
    26   12   92 1    
    27   13   14 ar   
    28   13   15 1    
    29   14   93 1    
    30   15   16 1    
    31   15   94 1    
    32   15   95 1    
    33   16   17 1    
    34   17   18 1    
    35   17   96 1    
    36   17   97 1    
    37   18   19 1    
    38   18   22 1    
    39   18   98 1    
    40   19   20 am   BACKBONE|DICT|INTERRES
    41   19   21 2    
    42   20   99 1    
    43   20  100 1    
    44   22   23 am   BACKBONE|DICT|INTERRES
    45   22  101 1    
    46   23   24 2    
    47   23   25 1    
    48   25   26 1    
    49   25   27 1    
    50   25  102 1    
    51   26  103 1    
    52   26  104 1    
    53   26  105 1    
    54   27   28 am   BACKBONE|DICT|INTERRES
    55   27  106 1    
    56   28   29 2    
    57   28   30 1    
    58   30   31 1    
    59   30   32 1    
    60   30  107 1    
    61   31  108 1    
    62   31  109 1    
    63   31  110 1    
    64   32   33 am   BACKBONE|DICT|INTERRES
    65   32  111 1    
    66   33   34 2    
    67   33   35 1    
    68   35   36 1    
    69   35   37 1    
    70   35  112 1    
    71   36  113 1    
    72   36  114 1    
    73   36  115 1    
    74   37   38 am   BACKBONE|DICT|INTERRES
    75   37  116 1    
    76   38   39 2    
    77   38   40 1    
    78   40   41 1    
    79   40   42 1    
    80   40  117 1    
    81   41  118 1    
    82   41  119 1    
    83   41  120 1    
    84   42   43 am   BACKBONE|DICT|INTERRES
    85   42  121 1    
    86   43   44 2    
    87   43   45 1    
    88   45   46 1    
    89   45   47 1    
    90   45  122 1    
    91   46  123 1    
    92   46  124 1    
    93   46  125 1    
    94   47   48 am   BACKBONE|DICT|INTERRES
    95   47  126 1    
    96   48   49 2    
    97   48   50 1    
    98   50   51 1    
    99   50   52 1    
   100   50  127 1    
   101   51  128 1    
   102   51  129 1    
   103   51  130 1    
   104   52   53 am   BACKBONE|DICT|INTERRES
   105   52  131 1    
   106   53   54 2    
   107   53   55 1    
   108   55   56 1    
   109   55   59 1    
   110   55  132 1    
   111   56   57 1    
   112   56  133 1    
   113   56  134 1    
   114   57   58 1    
   115   58  135 1    
   116   58  136 1    
   117   59   60 am   BACKBONE|DICT|INTERRES
   118   59  137 1    
   119   60   61 2    
   120   60   62 1    
   121   62   63 1    
   122   62   64 1    
   123   62  138 1    
   124   63  139 1    
   125   63  140 1    
   126   63  141 1    
   127   64   65 am   BACKBONE|DICT|INTERRES
   128   64  142 1    
   129   65   66 2    
   130   65   67 1    
   131   67   68 1    
   132   67   69 1    
   133   67  143 1    
   134   68  144 1    
   135   68  145 1    
   136   68  146 1    
   137   69   70 am   BACKBONE|DICT|INTERRES
   138   69  147 1    
   139   70   71 2    
   140   70   72 1    
   141   72   73 1    
   142   72   74 1    
   143   72  148 1    
   144   73  149 1    
   145   73  150 1    
   146   73  151 1    
   147   74   75 am   BACKBONE|DICT|INTERRES
   148   74  152 1    
   149   75   76 2    
   150   75   77 1    
   151   77   78 1    
   152   77   79 1    
   153   77  153 1    
   154   78  154 1    
   155   78  155 1    
   156   78  156 1    
   157   79   80 am   BACKBONE|DICT|INTERRES
   158   79  157 1    
   159   80   81 2    
@<TRIPOS>SUBSTRUCTURE
     1 UNK         1 GROUP             0       ****    0 ROOT    
