@<TRIPOS>MOLECULE
3R207
157   159    1
SMALL
USER_CHARGES


@<TRIPOS>ATOM
      1 CA        -47.0727  -29.6912    2.0782 C.3       0 UNK        -0.1975 
      2 C         -47.8316  -28.9538    3.1709 C.2       0 UNK         0.4852 
      3 O         -47.2137  -28.2295    3.9527 O.2       0 UNK        -0.5216 
      4 N         -49.1656  -29.1191    3.2083 N.am      1 UNK        -0.4461 
      5 CA        -50.1283  -28.5810    4.1912 C.3       1 UNK         0.0864 
      6 C6        -50.3573  -29.5097    5.4226 C.3       14 UNK        -0.0898 
      7 S7        -48.8647  -30.1323    6.2791 S.3       14 UNK        -0.2598 
      8 C8        -48.6808  -28.9841    7.6758 C.3       14 UNK         0.0286 
      9 C9        -49.7731  -29.1609    8.7200 C.ar      14 UNK        -0.0844 
     10 C10       -49.6774  -30.1826    9.6701 C.ar      14 UNK        -0.0881 
     11 C11       -50.6812  -30.3553   10.6273 C.ar      14 UNK        -0.0643 
     12 C12       -51.7909  -29.5057   10.6198 C.ar      14 UNK        -0.0930 
     13 C13       -51.8851  -28.4669    9.6933 C.ar      14 UNK        -0.0827 
     14 C14       -50.8739  -28.2982    8.7450 C.ar      14 UNK        -0.1249 
     15 C15       -53.0722  -27.5215    9.7418 C.3       14 UNK         0.0141 
     16 S16       -54.5582  -28.2691    9.0094 S.3       14 UNK        -0.2313 
     17 C17       -55.7509  -26.8847    9.0675 C.3       14 UNK        -0.0915 
     18 CA        -55.9145  -26.1939   10.4515 C.3       13 UNK         0.0968 
     19 C         -56.9515  -25.0352   10.3743 C.2       13 UNK         0.5732 
     20 N         -58.0611  -25.0800   11.1024 N.am      13 UNK        -0.7310 
     21 O         -56.7396  -24.0714    9.6424 O.2       13 UNK        -0.5035 
     22 N         -56.1574  -27.1674   11.5294 N.am      13 UNK        -0.4233 
     23 C         -55.9099  -26.9532   12.8283 C.2       13 UNK         0.4989 
     24 O         -55.4329  -25.9041   13.2673 O.2       13 UNK        -0.4996 
     25 CA        -56.3135  -28.0815   13.8021 C.3       12 UNK         0.0216 
     26 CB        -56.2144  -29.4966   13.1828 C.3       12 UNK        -0.1964 
     27 N         -55.5933  -28.0166   15.0817 N.am      12 UNK        -0.4276 
     28 C         -54.2812  -28.2040   15.2792 C.2       12 UNK         0.5020 
     29 O         -53.4764  -28.4716   14.3866 O.2       12 UNK        -0.5489 
     30 CA        -53.7907  -28.0627   16.7265 C.3       11 UNK         0.0294 
     31 CB        -52.7267  -29.1131   17.0877 C.3       11 UNK        -0.2019 
     32 N         -53.2222  -26.7304   16.9055 N.am      11 UNK        -0.4493 
     33 C         -53.8517  -25.7107   17.5031 C.2       11 UNK         0.4932 
     34 O         -54.9827  -25.8068   17.9837 O.2       11 UNK        -0.5029 
     35 CA        -53.1229  -24.3522   17.5598 C.3       10 UNK         0.0280 
     36 CB        -53.5350  -23.5030   18.7818 C.3       10 UNK        -0.1976 
     37 N         -51.6616  -24.4423   17.4473 N.am      10 UNK        -0.4242 
     38 C         -50.7970  -25.0076   18.3071 C.2       10 UNK         0.5072 
     39 O         -51.1372  -25.5282   19.3704 O.2       10 UNK        -0.5224 
     40 CA        -49.3002  -25.0047   17.9263 C.3       9 UNK         0.0343 
     41 CB        -48.6788  -26.4030   18.0999 C.3       9 UNK        -0.2003 
     42 N         -49.0824  -24.5657   16.5460 N.am      9 UNK        -0.4272 
     43 C         -48.6789  -23.3441   16.1673 C.2       9 UNK         0.4988 
     44 O         -48.3403  -22.4613   16.9561 O.2       9 UNK        -0.5108 
     45 CA        -48.6800  -23.0334   14.6547 C.3       8 UNK         0.0248 
     46 CB        -47.2630  -23.1662   14.0749 C.3       8 UNK        -0.2001 
     47 N         -49.5999  -23.8681   13.8740 N.am      8 UNK        -0.4140 
     48 C         -50.9286  -23.9146   14.0472 C.2       8 UNK         0.5028 
     49 O         -51.5375  -23.1846   14.8282 O.2       8 UNK        -0.5428 
     50 CA        -51.6978  -25.0130   13.2966 C.3       7 UNK         0.0264 
     51 CB        -52.1739  -24.4981   11.9315 C.3       7 UNK        -0.1988 
     52 N         -50.9229  -26.2500   13.1366 N.am      7 UNK        -0.4454 
     53 C         -50.4970  -27.0183   14.1540 C.2       7 UNK         0.5027 
     54 O         -50.7368  -26.7623   15.3350 O.2       7 UNK        -0.5083 
     55 CA        -49.6118  -28.2352   13.8102 C.3       6 UNK         0.0844 
     56 C56       -50.4385  -29.5447   13.7588 C.3       14 UNK        -0.0967 
     57 S57       -49.5238  -30.9752   13.0794 S.3       14 UNK        -0.2604 
     58 C58       -50.5729  -31.4595   11.6690 C.3       14 UNK         0.0134 
     59 N         -48.8178  -27.9843   12.6015 N.am      6 UNK        -0.4116 
     60 C         -47.6639  -27.3040   12.6178 C.2       5 UNK         0.5034 
     61 O         -47.1645  -26.8223   13.6351 O.2       5 UNK        -0.5045 
     62 CA        -46.9481  -27.1109   11.2726 C.3       5 UNK         0.0224 
     63 CB        -46.2859  -28.4199   10.8114 C.3       5 UNK        -0.1978 
     64 N         -47.7886  -26.5769   10.1961 N.am      5 UNK        -0.4737 
     65 C         -48.4989  -25.4406   10.2436 C.2       4 UNK         0.5027 
     66 O         -48.6836  -24.7950   11.2760 O.2       4 UNK        -0.5211 
     67 CA        -49.0875  -24.9369    8.9067 C.3       4 UNK         0.0297 
     68 CB        -49.3896  -23.4230    8.9299 C.3       4 UNK        -0.1993 
     69 N         -48.2685  -25.2652    7.7279 N.am      4 UNK        -0.4486 
     70 C         -46.9867  -24.9149    7.5101 C.2       3 UNK         0.4961 
     71 O         -46.2902  -24.3054    8.3220 O.2       3 UNK        -0.5105 
     72 CA        -46.3604  -25.3054    6.1562 C.3       3 UNK         0.0299 
     73 CB        -45.5485  -26.6026    6.3023 C.3       3 UNK        -0.1972 
     74 N         -47.3335  -25.4633    5.0722 N.am      3 UNK        -0.4305 
     75 C         -48.1250  -24.4852    4.6018 C.2       2 UNK         0.5006 
     76 O         -48.0300  -23.3082    4.9521 O.2       2 UNK        -0.5106 
     77 CA        -49.2267  -24.8652    3.5910 C.3       2 UNK         0.0296 
     78 CB        -48.8594  -24.3645    2.1841 C.3       2 UNK        -0.2002 
     79 N         -49.5378  -26.2963    3.5176 N.am      2 UNK        -0.4032 
     80 C         -49.9540  -27.0778    4.5267 C.2       1 UNK         0.5000 
     81 O         -50.1665  -26.6527    5.6651 O.2       1 UNK        -0.5238 
     82 H82       -46.5420  -28.9804    1.4454 H         1 UNK         0.0889 
     83 H83       -47.7354  -30.2814    1.4457 H         1 UNK         0.0889 
     84 H84       -46.3403  -30.3642    2.5232 H         1 UNK         0.0889 
     85 H85       -49.5826  -29.7180    2.5089 H         1 UNK         0.3028 
     86 H86       -51.0781  -28.5886    3.6538 H         1 UNK         0.0864 
     87 H87       -51.0422  -29.0548    6.1375 H         1 UNK         0.0720 
     88 H88       -50.8855  -30.3993    5.0772 H         1 UNK         0.0720 
     89 H89       -48.6616  -27.9635    7.3000 H         1 UNK         0.0814 
     90 H90       -47.7062  -29.1557    8.1342 H         1 UNK         0.0814 
     91 H91       -48.8245  -30.8478    9.6617 H         1 UNK         0.1469 
     92 H92       -52.5839  -29.6421   11.3428 H         1 UNK         0.1381 
     93 H93       -50.9521  -27.5040    8.0161 H         1 UNK         0.1206 
     94 H94       -52.8415  -26.5832    9.2346 H         1 UNK         0.0813 
     95 H95       -53.2759  -27.2836   10.7857 H         1 UNK         0.0813 
     96 H96       -55.4402  -26.1551    8.3172 H         1 UNK         0.0638 
     97 H97       -56.7131  -27.2726    8.7283 H         1 UNK         0.0638 
     98 H98       -54.9735  -25.6936   10.6758 H         1 UNK         0.0568 
     99 H99       -58.2480  -25.8633   11.7063 H         1 UNK         0.3450 
    100 H100      -58.7194  -24.3192   11.0433 H         1 UNK         0.3450 
    101 H101      -56.5537  -28.0503   11.2445 H         1 UNK         0.2987 
    102 H102      -57.3617  -27.9034   14.0460 H         1 UNK         0.0766 
    103 H103      -56.4172  -30.2674   13.9266 H         1 UNK         0.0798 
    104 H104      -55.2243  -29.6908   12.7676 H         1 UNK         0.0798 
    105 H105      -56.9406  -29.6365   12.3817 H         1 UNK         0.0798 
    106 H106      -56.1509  -27.7355   15.8769 H         1 UNK         0.3198 
    107 H107      -54.6381  -28.2202   17.3974 H         1 UNK         0.0843 
    108 H108      -51.7896  -28.9362   16.5631 H         1 UNK         0.0831 
    109 H109      -53.0637  -30.1194   16.8357 H         1 UNK         0.0831 
    110 H110      -52.5106  -29.0986   18.1560 H         1 UNK         0.0831 
    111 H111      -52.3169  -26.5762   16.4683 H         1 UNK         0.3133 
    112 H112      -53.4509  -23.8126   16.6706 H         1 UNK         0.0566 
    113 H113      -53.0197  -22.5426   18.7898 H         1 UNK         0.0814 
    114 H114      -54.6052  -23.2930   18.7705 H         1 UNK         0.0814 
    115 H115      -53.3156  -24.0107   19.7214 H         1 UNK         0.0814 
    116 H116      -51.2905  -24.0330   16.5951 H         1 UNK         0.3091 
    117 H117      -48.7979  -24.3255   18.6178 H         1 UNK         0.0702 
    118 H118      -47.6231  -26.4039   17.8282 H         1 UNK         0.0785 
    119 H119      -49.1834  -27.1497   17.4861 H         1 UNK         0.0785 
    120 H120      -48.7446  -26.7361   19.1364 H         1 UNK         0.0785 
    121 H121      -49.3706  -25.2260   15.8333 H         1 UNK         0.2998 
    122 H122      -49.0015  -21.9967   14.5368 H         1 UNK         0.0697 
    123 H123      -46.8870  -24.1860   14.1616 H         1 UNK         0.0825 
    124 H124      -46.5630  -22.5142   14.5989 H         1 UNK         0.0825 
    125 H125      -47.2376  -22.8897   13.0205 H         1 UNK         0.0825 
    126 H126      -49.1903  -24.4370   13.1368 H         1 UNK         0.3029 
    127 H127      -52.5817  -25.2543   13.8924 H         1 UNK         0.0897 
    128 H128      -52.8874  -25.1825   11.4831 H         1 UNK         0.0792 
    129 H129      -51.3479  -24.3652   11.2359 H         1 UNK         0.0792 
    130 H130      -52.6793  -23.5362   12.0296 H         1 UNK         0.0792 
    131 H131      -50.6452  -26.4971   12.1989 H         1 UNK         0.3086 
    132 H132      -48.9168  -28.3544   14.6448 H         1 UNK         0.0583 
    133 H133      -50.7548  -29.8163   14.7655 H         1 UNK         0.1020 
    134 H134      -51.3651  -29.3980   13.2101 H         1 UNK         0.1020 
    135 H135      -51.5620  -31.7386   12.0360 H         1 UNK         0.0694 
    136 H136      -50.1550  -32.3565   11.2097 H         1 UNK         0.0694 
    137 H137      -49.1546  -28.3805   11.7355 H         1 UNK         0.2989 
    138 H138      -46.1566  -26.3769   11.4400 H         1 UNK         0.1055 
    139 H139      -47.0213  -29.1958   10.5985 H         1 UNK         0.0806 
    140 H140      -45.6191  -28.8103   11.5818 H         1 UNK         0.0806 
    141 H141      -45.6850  -28.2685    9.9144 H         1 UNK         0.0806 
    142 H142      -47.7016  -27.0242    9.2974 H         1 UNK         0.3061 
    143 H143      -50.0369  -25.4566    8.7782 H         1 UNK         0.0734 
    144 H144      -49.8198  -23.0909    7.9850 H         1 UNK         0.0832 
    145 H145      -50.1013  -23.1675    9.7142 H         1 UNK         0.0832 
    146 H146      -48.4886  -22.8362    9.1113 H         1 UNK         0.0832 
    147 H147      -48.7602  -25.7452    6.9798 H         1 UNK         0.3156 
    148 H148      -45.6755  -24.5045    5.8702 H         1 UNK         0.0589 
    149 H149      -46.1857  -27.4537    6.5451 H         1 UNK         0.0808 
    150 H150      -45.0147  -26.8407    5.3820 H         1 UNK         0.0808 
    151 H151      -44.8037  -26.5135    7.0945 H         1 UNK         0.0808 
    152 H152      -47.4394  -26.4023    4.6953 H         1 UNK         0.3098 
    153 H153      -50.1373  -24.3542    3.9102 H         1 UNK         0.0720 
    154 H154      -49.6719  -24.5321    1.4767 H         1 UNK         0.0791 
    155 H155      -47.9684  -24.8626    1.7995 H         1 UNK         0.0791 
    156 H156      -48.6560  -23.2925    2.1902 H         1 UNK         0.0791 
    157 H157      -49.3725  -26.7414    2.6266 H         1 UNK         0.3028 
@<TRIPOS>BOND
     1    1    2 1    
     2    1   82 1    
     3    1   83 1    
     4    1   84 1    
     5    2    3 2    
     6    2    4 am   BACKBONE|DICT|INTERRES
     7    4    5 1    
     8    4   85 1    
     9    5    6 1    
    10    5   80 1    
    11    5   86 1    
    12    6    7 1    
    13    6   87 1    
    14    6   88 1    
    15    7    8 1    
    16    8    9 1    
    17    8   89 1    
    18    8   90 1    
    19    9   10 ar   
    20    9   14 ar   
    21   10   11 ar   
    22   10   91 1    
    23   11   12 ar   
    24   11   58 1    
    25   12   13 ar   
    26   12   92 1    
    27   13   14 ar   
    28   13   15 1    
    29   14   93 1    
    30   15   16 1    
    31   15   94 1    
    32   15   95 1    
    33   16   17 1    
    34   17   18 1    
    35   17   96 1    
    36   17   97 1    
    37   18   19 1    
    38   18   22 1    
    39   18   98 1    
    40   19   20 am   BACKBONE|DICT|INTERRES
    41   19   21 2    
    42   20   99 1    
    43   20  100 1    
    44   22   23 am   BACKBONE|DICT|INTERRES
    45   22  101 1    
    46   23   24 2    
    47   23   25 1    
    48   25   26 1    
    49   25   27 1    
    50   25  102 1    
    51   26  103 1    
    52   26  104 1    
    53   26  105 1    
    54   27   28 am   BACKBONE|DICT|INTERRES
    55   27  106 1    
    56   28   29 2    
    57   28   30 1    
    58   30   31 1    
    59   30   32 1    
    60   30  107 1    
    61   31  108 1    
    62   31  109 1    
    63   31  110 1    
    64   32   33 am   BACKBONE|DICT|INTERRES
    65   32  111 1    
    66   33   34 2    
    67   33   35 1    
    68   35   36 1    
    69   35   37 1    
    70   35  112 1    
    71   36  113 1    
    72   36  114 1    
    73   36  115 1    
    74   37   38 am   BACKBONE|DICT|INTERRES
    75   37  116 1    
    76   38   39 2    
    77   38   40 1    
    78   40   41 1    
    79   40   42 1    
    80   40  117 1    
    81   41  118 1    
    82   41  119 1    
    83   41  120 1    
    84   42   43 am   BACKBONE|DICT|INTERRES
    85   42  121 1    
    86   43   44 2    
    87   43   45 1    
    88   45   46 1    
    89   45   47 1    
    90   45  122 1    
    91   46  123 1    
    92   46  124 1    
    93   46  125 1    
    94   47   48 am   BACKBONE|DICT|INTERRES
    95   47  126 1    
    96   48   49 2    
    97   48   50 1    
    98   50   51 1    
    99   50   52 1    
   100   50  127 1    
   101   51  128 1    
   102   51  129 1    
   103   51  130 1    
   104   52   53 am   BACKBONE|DICT|INTERRES
   105   52  131 1    
   106   53   54 2    
   107   53   55 1    
   108   55   56 1    
   109   55   59 1    
   110   55  132 1    
   111   56   57 1    
   112   56  133 1    
   113   56  134 1    
   114   57   58 1    
   115   58  135 1    
   116   58  136 1    
   117   59   60 am   BACKBONE|DICT|INTERRES
   118   59  137 1    
   119   60   61 2    
   120   60   62 1    
   121   62   63 1    
   122   62   64 1    
   123   62  138 1    
   124   63  139 1    
   125   63  140 1    
   126   63  141 1    
   127   64   65 am   BACKBONE|DICT|INTERRES
   128   64  142 1    
   129   65   66 2    
   130   65   67 1    
   131   67   68 1    
   132   67   69 1    
   133   67  143 1    
   134   68  144 1    
   135   68  145 1    
   136   68  146 1    
   137   69   70 am   BACKBONE|DICT|INTERRES
   138   69  147 1    
   139   70   71 2    
   140   70   72 1    
   141   72   73 1    
   142   72   74 1    
   143   72  148 1    
   144   73  149 1    
   145   73  150 1    
   146   73  151 1    
   147   74   75 am   BACKBONE|DICT|INTERRES
   148   74  152 1    
   149   75   76 2    
   150   75   77 1    
   151   77   78 1    
   152   77   79 1    
   153   77  153 1    
   154   78  154 1    
   155   78  155 1    
   156   78  156 1    
   157   79   80 am   BACKBONE|DICT|INTERRES
   158   79  157 1    
   159   80   81 2    
@<TRIPOS>SUBSTRUCTURE
     1 UNK         1 GROUP             0       ****    0 ROOT    
