@<TRIPOS>MOLECULE
3R207
157   159    1
SMALL
USER_CHARGES


@<TRIPOS>ATOM
      1 CA        -50.8224  -31.2159   10.1782 C.3       0 UNK        -0.1975 
      2 C         -49.8625  -31.0215    9.0151 C.2       0 UNK         0.4852 
      3 O         -48.9337  -31.8122    8.8473 O.2       0 UNK        -0.5216 
      4 N         -50.0830  -29.9720    8.2121 N.am      1 UNK        -0.4461 
      5 CA        -49.2440  -29.5724    7.0737 C.3       1 UNK         0.0864 
      6 C6        -49.9416  -28.5108    6.1804 C.3       14 UNK        -0.0898 
      7 S7        -50.7146  -27.1380    7.1120 S.3       14 UNK        -0.2598 
      8 C8        -52.4819  -27.5137    6.8726 C.3       14 UNK         0.0286 
      9 C9        -53.3484  -26.6716    7.7948 C.ar      14 UNK        -0.0844 
     10 C10       -53.7028  -25.3693    7.4324 C.ar      14 UNK        -0.0881 
     11 C11       -54.4606  -24.5744    8.2978 C.ar      14 UNK        -0.0643 
     12 C12       -54.8752  -25.0933    9.5272 C.ar      14 UNK        -0.0930 
     13 C13       -54.5229  -26.3923    9.9000 C.ar      14 UNK        -0.0827 
     14 C14       -53.7754  -27.1840    9.0234 C.ar      14 UNK        -0.1249 
     15 C15       -54.8790  -26.9065   11.2828 C.3       14 UNK         0.0141 
     16 S16       -56.5401  -27.6413   11.3594 S.3       14 UNK        -0.2313 
     17 C17       -56.5470  -28.1452   13.1183 C.3       14 UNK        -0.0915 
     18 CA        -56.2893  -29.6580   13.3725 C.3       13 UNK         0.0968 
     19 C         -57.5929  -30.5048   13.2880 C.2       13 UNK         0.5732 
     20 N         -57.6621  -31.5428   12.4626 N.am      13 UNK        -0.7310 
     21 O         -58.5507  -30.2337   14.0080 O.2       13 UNK        -0.5035 
     22 N         -55.1909  -30.1719   12.5353 N.am      13 UNK        -0.4233 
     23 C         -54.2766  -31.1048   12.8285 C.2       13 UNK         0.4989 
     24 O         -53.5170  -31.5372   11.9638 O.2       13 UNK        -0.4996 
     25 CA        -54.1285  -31.6120   14.2733 C.3       12 UNK         0.0216 
     26 CB        -53.3121  -32.9207   14.3564 C.3       12 UNK        -0.1964 
     27 N         -53.4846  -30.5672   15.0700 N.am      12 UNK        -0.4276 
     28 C         -53.5200  -30.4926   16.4075 C.2       12 UNK         0.5020 
     29 O         -54.1280  -31.2964   17.1163 O.2       12 UNK        -0.5489 
     30 CA        -52.7474  -29.3457   17.0904 C.3       11 UNK         0.0294 
     31 CB        -51.3630  -29.8340   17.5471 C.3       11 UNK        -0.2019 
     32 N         -52.5808  -28.1542   16.2565 N.am      11 UNK        -0.4493 
     33 C         -53.5780  -27.3523   15.8609 C.2       11 UNK         0.4932 
     34 O         -54.7469  -27.4923   16.2211 O.2       11 UNK        -0.5029 
     35 CA        -53.2277  -26.2002   14.8979 C.3       10 UNK         0.0280 
     36 CB        -53.0331  -24.9018   15.6988 C.3       10 UNK        -0.1976 
     37 N         -52.0614  -26.3949   14.0227 N.am      10 UNK        -0.4242 
     38 C         -51.7389  -27.4772   13.2957 C.2       10 UNK         0.5072 
     39 O         -52.3726  -28.5314   13.3167 O.2       10 UNK        -0.5224 
     40 CA        -50.4950  -27.3884   12.3920 C.3       9 UNK         0.0343 
     41 CB        -50.9099  -27.3239   10.9160 C.3       9 UNK        -0.2003 
     42 N         -49.6147  -26.2557   12.6867 N.am      9 UNK        -0.4272 
     43 C         -48.8499  -26.1509   13.7830 C.2       9 UNK         0.4988 
     44 O         -48.8169  -27.0004   14.6736 O.2       9 UNK        -0.5108 
     45 CA        -47.9942  -24.8852   13.9262 C.3       8 UNK         0.0248 
     46 CB        -46.6115  -25.0799   13.2864 C.3       8 UNK        -0.2001 
     47 N         -48.6470  -23.7117   13.3399 N.am      8 UNK        -0.4140 
     48 C         -49.3350  -22.8052   14.0468 C.2       8 UNK         0.5028 
     49 O         -49.4791  -22.8498   15.2691 O.2       8 UNK        -0.5428 
     50 CA        -49.9719  -21.6442   13.2646 C.3       7 UNK         0.0264 
     51 CB        -48.9679  -20.4904   13.1082 C.3       7 UNK        -0.1988 
     52 N         -50.4757  -22.0245   11.9436 N.am      7 UNK        -0.4454 
     53 C         -51.4948  -22.8687   11.7223 C.2       7 UNK         0.5027 
     54 O         -52.1117  -23.4491   12.6147 O.2       7 UNK        -0.5083 
     55 CA        -51.8865  -23.1134   10.2511 C.3       6 UNK         0.0844 
     56 C56       -52.9540  -22.0719    9.8118 C.3       14 UNK        -0.0967 
     57 S57       -53.3219  -22.0735    8.0189 S.3       14 UNK        -0.2604 
     58 C58       -54.7932  -23.1402    7.9218 C.3       14 UNK         0.0134 
     59 N         -50.7512  -23.1618    9.3253 N.am      6 UNK        -0.4116 
     60 C         -49.6262  -23.8791    9.4382 C.2       5 UNK         0.5034 
     61 O         -49.3130  -24.5297   10.4397 O.2       5 UNK        -0.5045 
     62 CA        -48.6780  -23.8664    8.2258 C.3       5 UNK         0.0224 
     63 CB        -49.0818  -22.8886    7.0976 C.3       5 UNK        -0.1978 
     64 N         -47.2873  -23.6425    8.6250 N.am      5 UNK        -0.4737 
     65 C         -46.7878  -22.5961    9.3006 C.2       4 UNK         0.5027 
     66 O         -47.4667  -21.6355    9.6675 O.2       4 UNK        -0.5211 
     67 CA        -45.2838  -22.6240    9.6416 C.3       4 UNK         0.0297 
     68 CB        -45.0374  -22.2334   11.1094 C.3       4 UNK        -0.1993 
     69 N         -44.6726  -23.9330    9.3793 N.am      4 UNK        -0.4486 
     70 C         -44.0449  -24.2705    8.2442 C.2       3 UNK         0.4961 
     71 O         -43.8364  -23.4890    7.3160 O.2       3 UNK        -0.5105 
     72 CA        -43.5950  -25.7378    8.1046 C.3       3 UNK         0.0299 
     73 CB        -42.1589  -25.9088    8.6258 C.3       3 UNK        -0.1972 
     74 N         -44.4732  -26.7123    8.7671 N.am      3 UNK        -0.4305 
     75 C         -45.7657  -26.9132    8.4714 C.2       2 UNK         0.5006 
     76 O         -46.3874  -26.2451    7.6436 O.2       2 UNK        -0.5106 
     77 CA        -46.4849  -28.0069    9.2821 C.3       2 UNK         0.0296 
     78 CB        -46.8236  -27.4948   10.6902 C.3       2 UNK        -0.2002 
     79 N         -47.7251  -28.4693    8.6575 N.am      2 UNK        -0.4032 
     80 C         -47.8239  -29.1335    7.4977 C.2       1 UNK         0.5000 
     81 O         -46.8585  -29.4419    6.7952 O.2       1 UNK        -0.5238 
     82 H82       -51.7103  -30.5915   10.0826 H         1 UNK         0.0889 
     83 H83       -50.3327  -30.9679   11.1195 H         1 UNK         0.0889 
     84 H84       -51.1513  -32.2535   10.2294 H         1 UNK         0.0889 
     85 H85       -50.8638  -29.3590    8.3957 H         1 UNK         0.3028 
     86 H86       -49.1057  -30.4653    6.4596 H         1 UNK         0.0864 
     87 H87       -50.7074  -29.0016    5.5780 H         1 UNK         0.0720 
     88 H88       -49.2419  -28.0879    5.4565 H         1 UNK         0.0720 
     89 H89       -52.6641  -28.5737    7.0559 H         1 UNK         0.0814 
     90 H90       -52.7536  -27.3303    5.8318 H         1 UNK         0.0814 
     91 H91       -53.3635  -24.9620    6.4897 H         1 UNK         0.1469 
     92 H92       -55.4435  -24.4762   10.2095 H         1 UNK         0.1381 
     93 H93       -53.4974  -28.1877    9.3132 H         1 UNK         0.1206 
     94 H94       -54.8107  -26.0876   11.9998 H         1 UNK         0.0813 
     95 H95       -54.1482  -27.6510   11.5960 H         1 UNK         0.0813 
     96 H96       -57.4887  -27.8211   13.5650 H         1 UNK         0.0638 
     97 H97       -55.7849  -27.5722   13.6444 H         1 UNK         0.0638 
     98 H98       -55.9917  -29.7261   14.4185 H         1 UNK         0.0568 
     99 H99       -58.5102  -32.0863   12.4271 H         1 UNK         0.3450 
    100 H100      -56.8890  -31.7760   11.8605 H         1 UNK         0.3450 
    101 H101      -55.2211  -29.8347   11.5852 H         1 UNK         0.2987 
    102 H102      -55.1243  -31.8189   14.6687 H         1 UNK         0.0766 
    103 H103      -53.7464  -33.6930   13.7204 H         1 UNK         0.0798 
    104 H104      -53.2913  -33.3163   15.3718 H         1 UNK         0.0798 
    105 H105      -52.2802  -32.7730   14.0352 H         1 UNK         0.0798 
    106 H106      -53.0088  -29.8390   14.5362 H         1 UNK         0.3198 
    107 H107      -53.3161  -29.0551   17.9765 H         1 UNK         0.0843 
    108 H108      -50.7363  -30.1193   16.7011 H         1 UNK         0.0831 
    109 H109      -51.4518  -30.7070   18.1954 H         1 UNK         0.0831 
    110 H110      -50.8362  -29.0653   18.1129 H         1 UNK         0.0831 
    111 H111      -51.6528  -27.9669   15.9038 H         1 UNK         0.3133 
    112 H112      -54.0880  -26.0605   14.2440 H         1 UNK         0.0566 
    113 H113      -52.9507  -24.0351   15.0436 H         1 UNK         0.0814 
    114 H114      -52.1347  -24.9404   16.3163 H         1 UNK         0.0814 
    115 H115      -53.8788  -24.7179   16.3633 H         1 UNK         0.0814 
    116 H116      -51.4856  -25.5756   13.8865 H         1 UNK         0.3091 
    117 H117      -49.9231  -28.3065   12.5425 H         1 UNK         0.0702 
    118 H118      -50.0432  -27.3126   10.2570 H         1 UNK         0.0785 
    119 H119      -51.4983  -26.4306   10.7034 H         1 UNK         0.0785 
    120 H120      -51.5151  -28.1886   10.6460 H         1 UNK         0.0785 
    121 H121      -49.5568  -25.5364   11.9691 H         1 UNK         0.2998 
    122 H122      -47.8361  -24.7315   14.9959 H         1 UNK         0.0697 
    123 H123      -46.6599  -25.0418   12.1990 H         1 UNK         0.0825 
    124 H124      -46.1748  -26.0392   13.5686 H         1 UNK         0.0825 
    125 H125      -45.9199  -24.3068   13.6199 H         1 UNK         0.0825 
    126 H126      -48.6273  -23.6257   12.3307 H         1 UNK         0.3029 
    127 H127      -50.8198  -21.2835   13.8511 H         1 UNK         0.0897 
    128 H128      -48.1129  -20.7787   12.4944 H         1 UNK         0.0792 
    129 H129      -48.5815  -20.1741   14.0783 H         1 UNK         0.0792 
    130 H130      -49.4329  -19.6189   12.6471 H         1 UNK         0.0792 
    131 H131      -50.0059  -21.6213   11.1442 H         1 UNK         0.3086 
    132 H132      -52.3389  -24.1048   10.2110 H         1 UNK         0.0583 
    133 H133      -53.8800  -22.2216   10.3705 H         1 UNK         0.1020 
    134 H134      -52.6222  -21.0610   10.0583 H         1 UNK         0.1020 
    135 H135      -55.5803  -22.7371    8.5609 H         1 UNK         0.0694 
    136 H136      -55.1821  -23.1156    6.9028 H         1 UNK         0.0694 
    137 H137      -50.8993  -22.6603    8.4616 H         1 UNK         0.2989 
    138 H138      -48.7176  -24.8763    7.8149 H         1 UNK         0.1055 
    139 H139      -49.1093  -21.8531    7.4395 H         1 UNK         0.0806 
    140 H140      -50.0621  -23.1357    6.6873 H         1 UNK         0.0806 
    141 H141      -48.3751  -22.9406    6.2692 H         1 UNK         0.0806 
    142 H142      -46.6596  -24.3996    8.3746 H         1 UNK         0.3061 
    143 H143      -44.8066  -21.8663    9.0166 H         1 UNK         0.0734 
    144 H144      -45.5787  -22.8813   11.7955 H         1 UNK         0.0832 
    145 H145      -43.9783  -22.2791   11.3631 H         1 UNK         0.0832 
    146 H146      -45.3700  -21.2126   11.3023 H         1 UNK         0.0832 
    147 H147      -44.7982  -24.6440   10.0849 H         1 UNK         0.3156 
    148 H148      -43.5974  -25.9749    7.0386 H         1 UNK         0.0589 
    149 H149      -42.0919  -25.7213    9.6982 H         1 UNK         0.0808 
    150 H150      -41.4789  -25.2134    8.1311 H         1 UNK         0.0808 
    151 H151      -41.7831  -26.9143    8.4352 H         1 UNK         0.0808 
    152 H152      -44.0427  -27.2978    9.4691 H         1 UNK         0.3098 
    153 H153      -45.8159  -28.8656    9.3676 H         1 UNK         0.0720 
    154 H154      -45.9233  -27.2004   11.2299 H         1 UNK         0.0791 
    155 H155      -47.3167  -28.2621   11.2877 H         1 UNK         0.0791 
    156 H156      -47.4853  -26.6289   10.6472 H         1 UNK         0.0791 
    157 H157      -48.5826  -28.2398    9.1342 H         1 UNK         0.3028 
@<TRIPOS>BOND
     1    1    2 1    
     2    1   82 1    
     3    1   83 1    
     4    1   84 1    
     5    2    3 2    
     6    2    4 am   BACKBONE|DICT|INTERRES
     7    4    5 1    
     8    4   85 1    
     9    5    6 1    
    10    5   80 1    
    11    5   86 1    
    12    6    7 1    
    13    6   87 1    
    14    6   88 1    
    15    7    8 1    
    16    8    9 1    
    17    8   89 1    
    18    8   90 1    
    19    9   10 ar   
    20    9   14 ar   
    21   10   11 ar   
    22   10   91 1    
    23   11   12 ar   
    24   11   58 1    
    25   12   13 ar   
    26   12   92 1    
    27   13   14 ar   
    28   13   15 1    
    29   14   93 1    
    30   15   16 1    
    31   15   94 1    
    32   15   95 1    
    33   16   17 1    
    34   17   18 1    
    35   17   96 1    
    36   17   97 1    
    37   18   19 1    
    38   18   22 1    
    39   18   98 1    
    40   19   20 am   BACKBONE|DICT|INTERRES
    41   19   21 2    
    42   20   99 1    
    43   20  100 1    
    44   22   23 am   BACKBONE|DICT|INTERRES
    45   22  101 1    
    46   23   24 2    
    47   23   25 1    
    48   25   26 1    
    49   25   27 1    
    50   25  102 1    
    51   26  103 1    
    52   26  104 1    
    53   26  105 1    
    54   27   28 am   BACKBONE|DICT|INTERRES
    55   27  106 1    
    56   28   29 2    
    57   28   30 1    
    58   30   31 1    
    59   30   32 1    
    60   30  107 1    
    61   31  108 1    
    62   31  109 1    
    63   31  110 1    
    64   32   33 am   BACKBONE|DICT|INTERRES
    65   32  111 1    
    66   33   34 2    
    67   33   35 1    
    68   35   36 1    
    69   35   37 1    
    70   35  112 1    
    71   36  113 1    
    72   36  114 1    
    73   36  115 1    
    74   37   38 am   BACKBONE|DICT|INTERRES
    75   37  116 1    
    76   38   39 2    
    77   38   40 1    
    78   40   41 1    
    79   40   42 1    
    80   40  117 1    
    81   41  118 1    
    82   41  119 1    
    83   41  120 1    
    84   42   43 am   BACKBONE|DICT|INTERRES
    85   42  121 1    
    86   43   44 2    
    87   43   45 1    
    88   45   46 1    
    89   45   47 1    
    90   45  122 1    
    91   46  123 1    
    92   46  124 1    
    93   46  125 1    
    94   47   48 am   BACKBONE|DICT|INTERRES
    95   47  126 1    
    96   48   49 2    
    97   48   50 1    
    98   50   51 1    
    99   50   52 1    
   100   50  127 1    
   101   51  128 1    
   102   51  129 1    
   103   51  130 1    
   104   52   53 am   BACKBONE|DICT|INTERRES
   105   52  131 1    
   106   53   54 2    
   107   53   55 1    
   108   55   56 1    
   109   55   59 1    
   110   55  132 1    
   111   56   57 1    
   112   56  133 1    
   113   56  134 1    
   114   57   58 1    
   115   58  135 1    
   116   58  136 1    
   117   59   60 am   BACKBONE|DICT|INTERRES
   118   59  137 1    
   119   60   61 2    
   120   60   62 1    
   121   62   63 1    
   122   62   64 1    
   123   62  138 1    
   124   63  139 1    
   125   63  140 1    
   126   63  141 1    
   127   64   65 am   BACKBONE|DICT|INTERRES
   128   64  142 1    
   129   65   66 2    
   130   65   67 1    
   131   67   68 1    
   132   67   69 1    
   133   67  143 1    
   134   68  144 1    
   135   68  145 1    
   136   68  146 1    
   137   69   70 am   BACKBONE|DICT|INTERRES
   138   69  147 1    
   139   70   71 2    
   140   70   72 1    
   141   72   73 1    
   142   72   74 1    
   143   72  148 1    
   144   73  149 1    
   145   73  150 1    
   146   73  151 1    
   147   74   75 am   BACKBONE|DICT|INTERRES
   148   74  152 1    
   149   75   76 2    
   150   75   77 1    
   151   77   78 1    
   152   77   79 1    
   153   77  153 1    
   154   78  154 1    
   155   78  155 1    
   156   78  156 1    
   157   79   80 am   BACKBONE|DICT|INTERRES
   158   79  157 1    
   159   80   81 2    
@<TRIPOS>SUBSTRUCTURE
     1 UNK         1 GROUP             0       ****    0 ROOT    
