@<TRIPOS>MOLECULE
3R207
157   159    1
SMALL
USER_CHARGES


@<TRIPOS>ATOM
      1 CA        -54.3373  -24.3099    8.2482 C.3       0 UNK        -0.1975 
      2 C         -53.5482  -25.5514    7.8612 C.2       0 UNK         0.4852 
      3 O         -53.8228  -26.6344    8.3752 O.2       0 UNK        -0.5216 
      4 N         -52.5658  -25.3913    6.9693 N.am      1 UNK        -0.4461 
      5 CA        -51.6462  -26.4185    6.4801 C.3       1 UNK         0.0864 
      6 C6        -52.3479  -27.4808    5.5819 C.3       14 UNK        -0.0898 
      7 S7        -51.6702  -29.1860    5.5062 S.3       14 UNK        -0.2598 
      8 C8        -50.1409  -29.2772    6.5102 C.3       14 UNK         0.0286 
      9 C9        -50.2988  -29.4862    8.0164 C.ar      14 UNK        -0.0844 
     10 C10       -49.1602  -29.8594    8.7364 C.ar      14 UNK        -0.0881 
     11 C11       -49.2040  -30.0368   10.1204 C.ar      14 UNK        -0.0643 
     12 C12       -50.4148  -29.8553   10.7936 C.ar      14 UNK        -0.0930 
     13 C13       -51.5680  -29.4894   10.0910 C.ar      14 UNK        -0.0827 
     14 C14       -51.5056  -29.3052    8.7052 C.ar      14 UNK        -0.1249 
     15 C15       -52.8746  -29.2628   10.8351 C.3       14 UNK         0.0141 
     16 S16       -53.9339  -30.7408   10.7991 S.3       14 UNK        -0.2313 
     17 C17       -54.9370  -30.5511   12.3148 C.3       14 UNK        -0.0915 
     18 CA        -56.0707  -29.4975   12.1805 C.3       13 UNK         0.0968 
     19 C         -57.2131  -29.7236   13.2162 C.2       13 UNK         0.5732 
     20 N         -57.6046  -28.7442   14.0247 N.am      13 UNK        -0.7310 
     21 O         -57.7803  -30.8125   13.2715 O.2       13 UNK        -0.5035 
     22 N         -55.5198  -28.1383   12.2181 N.am      13 UNK        -0.4233 
     23 C         -55.9882  -27.0924   11.5296 C.2       13 UNK         0.4989 
     24 O         -56.9145  -27.1630   10.7198 O.2       13 UNK        -0.4996 
     25 CA        -55.2994  -25.7395   11.8026 C.3       12 UNK         0.0216 
     26 CB        -56.1944  -24.5317   11.4498 C.3       12 UNK        -0.1964 
     27 N         -54.7725  -25.6105   13.1697 N.am      12 UNK        -0.4276 
     28 C         -55.4697  -25.6735   14.3134 C.2       12 UNK         0.5020 
     29 O         -56.6807  -25.9014   14.3629 O.2       12 UNK        -0.5489 
     30 CA        -54.6677  -25.4794   15.6152 C.3       11 UNK         0.0294 
     31 CB        -55.5318  -25.6665   16.8801 C.3       11 UNK        -0.2019 
     32 N         -53.4651  -26.3170   15.7006 N.am      11 UNK        -0.4493 
     33 C         -53.3882  -27.6544   15.6071 C.2       11 UNK         0.4932 
     34 O         -54.3488  -28.3726   15.3288 O.2       11 UNK        -0.5029 
     35 CA        -52.0198  -28.3195   15.8656 C.3       10 UNK         0.0280 
     36 CB        -51.6797  -29.3513   14.7780 C.3       10 UNK        -0.1976 
     37 N         -50.9126  -27.3666   15.9659 N.am      10 UNK        -0.4242 
     38 C         -50.5365  -26.7180   17.0754 C.2       10 UNK         0.5072 
     39 O         -51.0690  -26.8705   18.1751 O.2       10 UNK        -0.5224 
     40 CA        -49.3963  -25.6941   16.9207 C.3       9 UNK         0.0343 
     41 CB        -48.0276  -26.3913   16.9720 C.3       9 UNK        -0.2003 
     42 N         -49.4976  -24.8941   15.6944 N.am      9 UNK        -0.4272 
     43 C         -50.5163  -24.0677   15.4090 C.2       9 UNK         0.4988 
     44 O         -51.4810  -23.8845   16.1520 O.2       9 UNK        -0.5108 
     45 CA        -50.4755  -23.3574   14.0470 C.3       8 UNK         0.0248 
     46 CB        -49.4862  -22.1816   14.0723 C.3       8 UNK        -0.2001 
     47 N         -50.1412  -24.2731   12.9548 N.am      8 UNK        -0.4140 
     48 C         -50.9155  -25.2988   12.5722 C.2       8 UNK         0.5028 
     49 O         -52.0323  -25.5223   13.0377 O.2       8 UNK        -0.5428 
     50 CA        -50.3403  -26.2695   11.5318 C.3       7 UNK         0.0264 
     51 CB        -50.5429  -25.7360   10.1116 C.3       7 UNK        -0.1988 
     52 N         -48.9287  -26.5829   11.7536 N.am      7 UNK        -0.4454 
     53 C         -48.4656  -27.2055   12.8487 C.2       7 UNK         0.5027 
     54 O         -49.1894  -27.6104   13.7566 O.2       7 UNK        -0.5083 
     55 CA        -46.9415  -27.3527   13.0021 C.3       6 UNK         0.0844 
     56 C56       -46.4125  -28.7411   12.5696 C.3       14 UNK        -0.0967 
     57 S57       -46.6545  -29.1576   10.8091 S.3       14 UNK        -0.2604 
     58 C58       -47.9449  -30.4498   10.8710 C.3       14 UNK         0.0134 
     59 N         -46.2245  -26.2258   12.4002 N.am      6 UNK        -0.4116 
     60 C         -46.1855  -25.0077   12.9617 C.2       5 UNK         0.5034 
     61 O         -46.7294  -24.7287   14.0326 O.2       5 UNK        -0.5045 
     62 CA        -45.4434  -23.9076   12.1862 C.3       5 UNK         0.0224 
     63 CB        -43.9269  -24.1624   12.1754 C.3       5 UNK        -0.1978 
     64 N         -45.9287  -23.7447   10.8137 N.am      5 UNK        -0.4737 
     65 C         -47.1762  -23.3816   10.4842 C.2       4 UNK         0.5027 
     66 O         -48.0638  -23.1582   11.3051 O.2       4 UNK        -0.5211 
     67 CA        -47.4992  -23.2594    8.9853 C.3       4 UNK         0.0297 
     68 CB        -47.1919  -21.8380    8.4888 C.3       4 UNK        -0.1993 
     69 N         -46.8217  -24.2315    8.1219 N.am      4 UNK        -0.4486 
     70 C         -46.8457  -25.5630    8.2640 C.2       3 UNK         0.4961 
     71 O         -47.3697  -26.1493    9.2129 O.2       3 UNK        -0.5105 
     72 CA        -46.2174  -26.3612    7.1108 C.3       3 UNK         0.0299 
     73 CB        -45.7790  -27.7709    7.5401 C.3       3 UNK        -0.1972 
     74 N         -47.1883  -26.4703    6.0237 N.am      3 UNK        -0.4305 
     75 C         -47.4102  -25.5332    5.0916 C.2       2 UNK         0.5006 
     76 O         -46.7318  -24.5120    4.9723 O.2       2 UNK        -0.5106 
     77 CA        -48.6135  -25.7606    4.1569 C.3       2 UNK         0.0296 
     78 CB        -48.2279  -26.6841    2.9898 C.3       2 UNK        -0.2002 
     79 N         -49.7894  -26.3060    4.8469 N.am      2 UNK        -0.4032 
     80 C         -50.4709  -25.6709    5.8125 C.2       1 UNK         0.5000 
     81 O         -50.2038  -24.5234    6.1819 O.2       1 UNK        -0.5238 
     82 H82       -54.1032  -23.4622    7.6044 H         1 UNK         0.0889 
     83 H83       -54.1125  -24.0275    9.2760 H         1 UNK         0.0889 
     84 H84       -55.4061  -24.5065    8.1700 H         1 UNK         0.0889 
     85 H85       -52.3282  -24.4634    6.6386 H         1 UNK         0.3028 
     86 H86       -51.2407  -26.9061    7.3641 H         1 UNK         0.0864 
     87 H87       -52.4597  -27.1080    4.5620 H         1 UNK         0.0720 
     88 H88       -53.3737  -27.6204    5.9244 H         1 UNK         0.0720 
     89 H89       -49.5099  -28.4096    6.3443 H         1 UNK         0.0814 
     90 H90       -49.5745  -30.1237    6.1181 H         1 UNK         0.0814 
     91 H91       -48.2231  -30.0104    8.2193 H         1 UNK         0.1469 
     92 H92       -50.4584  -29.9927   11.8651 H         1 UNK         0.1381 
     93 H93       -52.4011  -29.0101    8.1765 H         1 UNK         0.1206 
     94 H94       -53.4106  -28.4272   10.3837 H         1 UNK         0.0813 
     95 H95       -52.6763  -28.9751   11.8656 H         1 UNK         0.0813 
     96 H96       -55.3512  -31.5395   12.5215 H         1 UNK         0.0638 
     97 H97       -54.2884  -30.3211   13.1609 H         1 UNK         0.0638 
     98 H98       -56.5437  -29.6524   11.2091 H         1 UNK         0.0568 
     99 H99       -57.1642  -27.8305   14.0047 H         1 UNK         0.3450 
    100 H100      -58.3503  -28.9211   14.6777 H         1 UNK         0.3450 
    101 H101      -54.8201  -27.9719   12.9274 H         1 UNK         0.2987 
    102 H102      -54.4305  -25.7135   11.1434 H         1 UNK         0.0766 
    103 H103      -57.1005  -24.5097   12.0559 H         1 UNK         0.0798 
    104 H104      -55.6665  -23.5902   11.6005 H         1 UNK         0.0798 
    105 H105      -56.5068  -24.5633   10.4058 H         1 UNK         0.0798 
    106 H106      -53.7564  -25.4976   13.2319 H         1 UNK         0.3198 
    107 H107      -54.3187  -24.4455   15.6041 H         1 UNK         0.0843 
    108 H108      -55.9338  -26.6781   16.9477 H         1 UNK         0.0831 
    109 H109      -56.3787  -24.9791   16.8809 H         1 UNK         0.0831 
    110 H110      -54.9570  -25.4722   17.7856 H         1 UNK         0.0831 
    111 H111      -52.6062  -25.8099   15.8771 H         1 UNK         0.3133 
    112 H112      -52.1076  -28.8559   16.8124 H         1 UNK         0.0566 
    113 H113      -50.7417  -29.8615   14.9971 H         1 UNK         0.0814 
    114 H114      -52.4508  -30.1177   14.6968 H         1 UNK         0.0814 
    115 H115      -51.5759  -28.8743   13.8052 H         1 UNK         0.0814 
    116 H116      -50.3680  -27.2281   15.1159 H         1 UNK         0.3091 
    117 H117      -49.4561  -25.0037   17.7647 H         1 UNK         0.0702 
    118 H118      -47.2111  -25.6732   16.8914 H         1 UNK         0.0785 
    119 H119      -47.9148  -27.1193   16.1689 H         1 UNK         0.0785 
    120 H120      -47.8991  -26.9254   17.9143 H         1 UNK         0.0785 
    121 H121      -48.7346  -24.9709   15.0321 H         1 UNK         0.2998 
    122 H122      -51.4724  -22.9564   13.8516 H         1 UNK         0.0697 
    123 H123      -48.4579  -22.5193   14.2080 H         1 UNK         0.0825 
    124 H124      -49.7161  -21.4929   14.8863 H         1 UNK         0.0825 
    125 H125      -49.5280  -21.6114   13.1441 H         1 UNK         0.0825 
    126 H126      -49.2654  -24.1021   12.4660 H         1 UNK         0.3029 
    127 H127      -50.8979  -27.2010   11.6252 H         1 UNK         0.0897 
    128 H128      -50.0347  -24.7856    9.9603 H         1 UNK         0.0792 
    129 H129      -51.6015  -25.5773    9.9139 H         1 UNK         0.0792 
    130 H130      -50.1682  -26.4429    9.3719 H         1 UNK         0.0792 
    131 H131      -48.2798  -26.3374   11.0107 H         1 UNK         0.3086 
    132 H132      -46.7490  -27.3001   14.0759 H         1 UNK         0.0583 
    133 H133      -45.3416  -28.7918   12.7719 H         1 UNK         0.1020 
    134 H134      -46.8503  -29.5141   13.2029 H         1 UNK         0.1020 
    135 H135      -47.5464  -31.3581   10.4170 H         1 UNK         0.0694 
    136 H136      -48.1873  -30.7126   11.9009 H         1 UNK         0.0694 
    137 H137      -45.8164  -26.3748   11.4883 H         1 UNK         0.2989 
    138 H138      -45.6243  -22.9671   12.7118 H         1 UNK         0.1055 
    139 H139      -43.5454  -24.2882   13.1898 H         1 UNK         0.0806 
    140 H140      -43.3884  -23.3245   11.7321 H         1 UNK         0.0806 
    141 H141      -43.6665  -25.0613   11.6154 H         1 UNK         0.0806 
    142 H142      -45.2716  -23.9170   10.0667 H         1 UNK         0.3061 
    143 H143      -48.5705  -23.4266    8.8665 H         1 UNK         0.0734 
    144 H144      -46.1248  -21.6166    8.5307 H         1 UNK         0.0832 
    145 H145      -47.5261  -21.6955    7.4608 H         1 UNK         0.0832 
    146 H146      -47.7039  -21.0925    9.0992 H         1 UNK         0.0832 
    147 H147      -46.4106  -23.8651    7.2730 H         1 UNK         0.3156 
    148 H148      -45.3296  -25.8286    6.7627 H         1 UNK         0.0589 
    149 H149      -46.6239  -28.3722    7.8726 H         1 UNK         0.0808 
    150 H150      -45.2901  -28.3016    6.7232 H         1 UNK         0.0808 
    151 H151      -45.0701  -27.7229    8.3676 H         1 UNK         0.0808 
    152 H152      -47.8046  -27.2663    6.0568 H         1 UNK         0.3098 
    153 H153      -48.8937  -24.7895    3.7429 H         1 UNK         0.0720 
    154 H154      -49.0421  -26.7757    2.2706 H         1 UNK         0.0791 
    155 H155      -47.9678  -27.6865    3.3323 H         1 UNK         0.0791 
    156 H156      -47.3654  -26.2902    2.4502 H         1 UNK         0.0791 
    157 H157      -50.1047  -27.2215    4.5568 H         1 UNK         0.3028 
@<TRIPOS>BOND
     1    1    2 1    
     2    1   82 1    
     3    1   83 1    
     4    1   84 1    
     5    2    3 2    
     6    2    4 am   BACKBONE|DICT|INTERRES
     7    4    5 1    
     8    4   85 1    
     9    5    6 1    
    10    5   80 1    
    11    5   86 1    
    12    6    7 1    
    13    6   87 1    
    14    6   88 1    
    15    7    8 1    
    16    8    9 1    
    17    8   89 1    
    18    8   90 1    
    19    9   10 ar   
    20    9   14 ar   
    21   10   11 ar   
    22   10   91 1    
    23   11   12 ar   
    24   11   58 1    
    25   12   13 ar   
    26   12   92 1    
    27   13   14 ar   
    28   13   15 1    
    29   14   93 1    
    30   15   16 1    
    31   15   94 1    
    32   15   95 1    
    33   16   17 1    
    34   17   18 1    
    35   17   96 1    
    36   17   97 1    
    37   18   19 1    
    38   18   22 1    
    39   18   98 1    
    40   19   20 am   BACKBONE|DICT|INTERRES
    41   19   21 2    
    42   20   99 1    
    43   20  100 1    
    44   22   23 am   BACKBONE|DICT|INTERRES
    45   22  101 1    
    46   23   24 2    
    47   23   25 1    
    48   25   26 1    
    49   25   27 1    
    50   25  102 1    
    51   26  103 1    
    52   26  104 1    
    53   26  105 1    
    54   27   28 am   BACKBONE|DICT|INTERRES
    55   27  106 1    
    56   28   29 2    
    57   28   30 1    
    58   30   31 1    
    59   30   32 1    
    60   30  107 1    
    61   31  108 1    
    62   31  109 1    
    63   31  110 1    
    64   32   33 am   BACKBONE|DICT|INTERRES
    65   32  111 1    
    66   33   34 2    
    67   33   35 1    
    68   35   36 1    
    69   35   37 1    
    70   35  112 1    
    71   36  113 1    
    72   36  114 1    
    73   36  115 1    
    74   37   38 am   BACKBONE|DICT|INTERRES
    75   37  116 1    
    76   38   39 2    
    77   38   40 1    
    78   40   41 1    
    79   40   42 1    
    80   40  117 1    
    81   41  118 1    
    82   41  119 1    
    83   41  120 1    
    84   42   43 am   BACKBONE|DICT|INTERRES
    85   42  121 1    
    86   43   44 2    
    87   43   45 1    
    88   45   46 1    
    89   45   47 1    
    90   45  122 1    
    91   46  123 1    
    92   46  124 1    
    93   46  125 1    
    94   47   48 am   BACKBONE|DICT|INTERRES
    95   47  126 1    
    96   48   49 2    
    97   48   50 1    
    98   50   51 1    
    99   50   52 1    
   100   50  127 1    
   101   51  128 1    
   102   51  129 1    
   103   51  130 1    
   104   52   53 am   BACKBONE|DICT|INTERRES
   105   52  131 1    
   106   53   54 2    
   107   53   55 1    
   108   55   56 1    
   109   55   59 1    
   110   55  132 1    
   111   56   57 1    
   112   56  133 1    
   113   56  134 1    
   114   57   58 1    
   115   58  135 1    
   116   58  136 1    
   117   59   60 am   BACKBONE|DICT|INTERRES
   118   59  137 1    
   119   60   61 2    
   120   60   62 1    
   121   62   63 1    
   122   62   64 1    
   123   62  138 1    
   124   63  139 1    
   125   63  140 1    
   126   63  141 1    
   127   64   65 am   BACKBONE|DICT|INTERRES
   128   64  142 1    
   129   65   66 2    
   130   65   67 1    
   131   67   68 1    
   132   67   69 1    
   133   67  143 1    
   134   68  144 1    
   135   68  145 1    
   136   68  146 1    
   137   69   70 am   BACKBONE|DICT|INTERRES
   138   69  147 1    
   139   70   71 2    
   140   70   72 1    
   141   72   73 1    
   142   72   74 1    
   143   72  148 1    
   144   73  149 1    
   145   73  150 1    
   146   73  151 1    
   147   74   75 am   BACKBONE|DICT|INTERRES
   148   74  152 1    
   149   75   76 2    
   150   75   77 1    
   151   77   78 1    
   152   77   79 1    
   153   77  153 1    
   154   78  154 1    
   155   78  155 1    
   156   78  156 1    
   157   79   80 am   BACKBONE|DICT|INTERRES
   158   79  157 1    
   159   80   81 2    
@<TRIPOS>SUBSTRUCTURE
     1 UNK         1 GROUP             0       ****    0 ROOT    
