@<TRIPOS>MOLECULE
3R207
157   159    1
SMALL
USER_CHARGES


@<TRIPOS>ATOM
      1 CA        -49.9076  -28.2381    1.2357 C.3       0 UNK        -0.1975 
      2 C         -48.9154  -27.4330    2.0616 C.2       0 UNK         0.4852 
      3 O         -47.9782  -26.8604    1.5045 O.2       0 UNK        -0.5216 
      4 N         -49.1134  -27.3875    3.3864 N.am      1 UNK        -0.4461 
      5 CA        -48.2674  -26.6493    4.3362 C.3       1 UNK         0.0864 
      6 C6        -48.9856  -26.4090    5.6902 C.3       14 UNK        -0.0898 
      7 S7        -50.4907  -25.3935    5.5031 S.3       14 UNK        -0.2598 
      8 C8        -51.8179  -26.6170    5.7421 C.3       14 UNK         0.0286 
      9 C9        -52.1831  -26.7840    7.2100 C.ar      14 UNK        -0.0844 
     10 C10       -53.1014  -25.9123    7.8027 C.ar      14 UNK        -0.0881 
     11 C11       -53.4881  -26.0702    9.1373 C.ar      14 UNK        -0.0643 
     12 C12       -52.9255  -27.1171    9.8827 C.ar      14 UNK        -0.0930 
     13 C13       -52.0068  -27.9960    9.3031 C.ar      14 UNK        -0.0827 
     14 C14       -51.6386  -27.8254    7.9658 C.ar      14 UNK        -0.1249 
     15 C15       -51.3997  -29.1223   10.1258 C.3       14 UNK         0.0141 
     16 S16       -52.4668  -30.5968   10.1538 S.3       14 UNK        -0.2313 
     17 C17       -53.6153  -30.2138   11.5222 C.3       14 UNK        -0.0915 
     18 CA        -55.0293  -29.7637   11.0432 C.3       13 UNK         0.0968 
     19 C         -55.9789  -30.9483   10.6775 C.2       13 UNK         0.5732 
     20 N         -57.2891  -30.8173   10.8532 N.am      13 UNK        -0.7310 
     21 O         -55.5378  -31.9925   10.2039 O.2       13 UNK        -0.5035 
     22 N         -55.6271  -28.7602   11.9436 N.am      13 UNK        -0.4233 
     23 C         -55.9190  -28.9487   13.2375 C.2       13 UNK         0.4989 
     24 O         -55.7162  -29.9988   13.8519 O.2       13 UNK        -0.4996 
     25 CA        -56.5993  -27.7743   13.9606 C.3       12 UNK         0.0216 
     26 CB        -58.1200  -27.9918   14.0298 C.3       12 UNK        -0.1964 
     27 N         -56.0738  -27.5949   15.3152 N.am      12 UNK        -0.4276 
     28 C         -54.8444  -27.1445   15.5907 C.2       12 UNK         0.5020 
     29 O         -54.0234  -26.8042   14.7346 O.2       12 UNK        -0.5489 
     30 CA        -54.4605  -27.0596   17.0715 C.3       11 UNK         0.0294 
     31 CB        -53.9902  -28.4286   17.5978 C.3       11 UNK        -0.2019 
     32 N         -53.3872  -26.0805   17.1874 N.am      11 UNK        -0.4493 
     33 C         -52.9910  -25.4487   18.2969 C.2       11 UNK         0.4932 
     34 O         -53.5108  -25.6187   19.4013 O.2       11 UNK        -0.5029 
     35 CA        -51.8234  -24.4534   18.1339 C.3       10 UNK         0.0280 
     36 CB        -51.0967  -24.1447   19.4604 C.3       10 UNK        -0.1976 
     37 N         -50.8754  -24.8559   17.0866 N.am      10 UNK        -0.4242 
     38 C         -50.1044  -25.9554   17.0645 C.2       10 UNK         0.5072 
     39 O         -50.0375  -26.7747   17.9817 O.2       10 UNK        -0.5224 
     40 CA        -49.2755  -26.1988   15.7914 C.3       9 UNK         0.0343 
     41 CB        -50.0706  -27.0596   14.7958 C.3       9 UNK        -0.2003 
     42 N         -48.8447  -24.9690   15.1243 N.am      9 UNK        -0.4272 
     43 C         -47.9519  -24.0960   15.6128 C.2       9 UNK         0.4988 
     44 O         -47.3770  -24.2309   16.6931 O.2       9 UNK        -0.5108 
     45 CA        -47.6504  -22.8626   14.7486 C.3       8 UNK         0.0248 
     46 CB        -46.6379  -23.2092   13.6433 C.3       8 UNK        -0.2001 
     47 N         -48.8715  -22.3315   14.1414 N.am      8 UNK        -0.4140 
     48 C         -49.6491  -21.3891   14.6905 C.2       8 UNK         0.5028 
     49 O         -49.3842  -20.8117   15.7456 O.2       8 UNK        -0.5428 
     50 CA        -50.9440  -21.0166   13.9421 C.3       7 UNK         0.0264 
     51 CB        -50.7036  -19.8040   13.0281 C.3       7 UNK        -0.1988 
     52 N         -51.5179  -22.1091   13.1494 N.am      7 UNK        -0.4454 
     53 C         -52.0372  -23.2328   13.6660 C.2       7 UNK         0.5027 
     54 O         -52.0778  -23.4720   14.8731 O.2       7 UNK        -0.5083 
     55 CA        -52.5697  -24.2855   12.6689 C.3       6 UNK         0.0844 
     56 C56       -54.0166  -23.9235   12.2497 C.3       14 UNK        -0.0967 
     57 S57       -54.9223  -25.3033   11.4742 S.3       14 UNK        -0.2604 
     58 C58       -54.5430  -25.1118    9.6982 C.3       14 UNK         0.0134 
     59 N         -51.7072  -24.5184   11.4997 N.am      6 UNK        -0.4116 
     60 C         -50.3757  -24.6733   11.4872 C.2       5 UNK         0.5034 
     61 O         -49.6531  -24.5211   12.4738 O.2       5 UNK        -0.5045 
     62 CA        -49.7403  -24.9999   10.1256 C.3       5 UNK         0.0224 
     63 CB        -49.7053  -23.7517    9.2287 C.3       5 UNK        -0.1978 
     64 N         -48.3796  -25.5278   10.2562 N.am      5 UNK        -0.4737 
     65 C         -48.0708  -26.7125   10.7977 C.2       4 UNK         0.5027 
     66 O         -48.8962  -27.5067   11.2496 O.2       4 UNK        -0.5211 
     67 CA        -46.5810  -27.0943   10.8160 C.3       4 UNK         0.0297 
     68 CB        -46.0712  -27.2314   12.2610 C.3       4 UNK        -0.1993 
     69 N         -46.3610  -28.3508   10.0938 N.am      4 UNK        -0.4486 
     70 C         -46.6025  -28.5142    8.7863 C.2       3 UNK         0.4961 
     71 O         -46.9411  -27.5958    8.0370 O.2       3 UNK        -0.5105 
     72 CA        -46.4814  -29.9455    8.2359 C.3       3 UNK         0.0299 
     73 CB        -47.6839  -30.7972    8.6791 C.3       3 UNK        -0.1972 
     74 N         -46.4442  -29.9206    6.7741 N.am      3 UNK        -0.4305 
     75 C         -45.3505  -29.6961    6.0344 C.2       2 UNK         0.5006 
     76 O         -44.2043  -29.6682    6.4849 O.2       2 UNK        -0.5106 
     77 CA        -45.5863  -29.4366    4.5359 C.3       2 UNK         0.0296 
     78 CB        -45.6893  -30.7609    3.7614 C.3       2 UNK        -0.2002 
     79 N         -46.7892  -28.6314    4.2965 N.am      2 UNK        -0.4032 
     80 C         -46.8906  -27.3172    4.5571 C.2       1 UNK         0.5000 
     81 O         -45.9455  -26.6268    4.9440 O.2       1 UNK        -0.5238 
     82 H82       -50.3887  -27.5961    0.4983 H         1 UNK         0.0889 
     83 H83       -50.6858  -28.6858    1.8536 H         1 UNK         0.0889 
     84 H84       -49.3922  -29.0388    0.7059 H         1 UNK         0.0889 
     85 H85       -49.9109  -27.8614    3.7836 H         1 UNK         0.3028 
     86 H86       -48.0608  -25.6704    3.8972 H         1 UNK         0.0864 
     87 H87       -48.3279  -25.8752    6.3792 H         1 UNK         0.0720 
     88 H88       -49.2251  -27.3537    6.1806 H         1 UNK         0.0720 
     89 H89       -51.5338  -27.5749    5.3053 H         1 UNK         0.0814 
     90 H90       -52.6969  -26.2865    5.1866 H         1 UNK         0.0814 
     91 H91       -53.5317  -25.1142    7.2124 H         1 UNK         0.1469 
     92 H92       -53.1981  -27.2702   10.9165 H         1 UNK         0.1381 
     93 H93       -50.9320  -28.5075    7.5136 H         1 UNK         0.1206 
     94 H94       -51.1991  -28.7836   11.1430 H         1 UNK         0.0813 
     95 H95       -50.4297  -29.4001    9.7117 H         1 UNK         0.0813 
     96 H96       -53.6870  -31.0878   12.1720 H         1 UNK         0.0638 
     97 H97       -53.1605  -29.4387   12.1405 H         1 UNK         0.0638 
     98 H98       -54.9006  -29.2272   10.1029 H         1 UNK         0.0568 
     99 H99       -57.8965  -31.5828   10.6071 H         1 UNK         0.3450 
    100 H100      -57.6750  -29.9665   11.2279 H         1 UNK         0.3450 
    101 H101      -55.8363  -27.8656   11.5231 H         1 UNK         0.2987 
    102 H102      -56.4120  -26.8542   13.4055 H         1 UNK         0.0766 
    103 H103      -58.6200  -27.1525   14.5136 H         1 UNK         0.0798 
    104 H104      -58.3744  -28.8984   14.5808 H         1 UNK         0.0798 
    105 H105      -58.5471  -28.0873   13.0307 H         1 UNK         0.0798 
    106 H106      -56.6674  -27.8951   16.0749 H         1 UNK         0.3198 
    107 H107      -55.3242  -26.7139   17.6436 H         1 UNK         0.0843 
    108 H108      -53.7278  -28.3816   18.6548 H         1 UNK         0.0831 
    109 H109      -53.1160  -28.7873   17.0527 H         1 UNK         0.0831 
    110 H110      -54.7726  -29.1812   17.4925 H         1 UNK         0.0831 
    111 H111      -52.9542  -25.8534   16.2988 H         1 UNK         0.3133 
    112 H112      -52.2717  -23.5224   17.7843 H         1 UNK         0.0566 
    113 H113      -50.2791  -23.4399   19.3094 H         1 UNK         0.0814 
    114 H114      -51.7792  -23.6983   20.1845 H         1 UNK         0.0814 
    115 H115      -50.6846  -25.0449   19.9171 H         1 UNK         0.0814 
    116 H116      -50.9154  -24.2888   16.2444 H         1 UNK         0.3091 
    117 H117      -48.3796  -26.7518   16.0816 H         1 UNK         0.0702 
    118 H118      -49.4708  -27.3083   13.9201 H         1 UNK         0.0785 
    119 H119      -50.9706  -26.5506   14.4496 H         1 UNK         0.0785 
    120 H120      -50.3837  -27.9995   15.2523 H         1 UNK         0.0785 
    121 H121      -49.2233  -24.8008   14.1938 H         1 UNK         0.2998 
    122 H122      -47.1986  -22.1038   15.3912 H         1 UNK         0.0697 
    123 H123      -45.7211  -23.6201   14.0683 H         1 UNK         0.0825 
    124 H124      -46.3611  -22.3238   13.0710 H         1 UNK         0.0825 
    125 H125      -47.0336  -23.9469   12.9444 H         1 UNK         0.0825 
    126 H126      -49.2002  -22.8103   13.3093 H         1 UNK         0.3029 
    127 H127      -51.6807  -20.7331   14.6972 H         1 UNK         0.0897 
    128 H128      -51.6303  -19.4655   12.5642 H         1 UNK         0.0792 
    129 H129      -50.3017  -18.9625   13.5944 H         1 UNK         0.0792 
    130 H130      -49.9916  -20.0312   12.2336 H         1 UNK         0.0792 
    131 H131      -51.5104  -21.9975   12.1460 H         1 UNK         0.3086 
    132 H132      -52.5994  -25.2319   13.2095 H         1 UNK         0.0583 
    133 H133      -54.6029  -23.6428   13.1278 H         1 UNK         0.1020 
    134 H134      -54.0325  -23.0497   11.5958 H         1 UNK         0.1020 
    135 H135      -55.4701  -25.2781    9.1477 H         1 UNK         0.0694 
    136 H136      -54.2510  -24.0816    9.4906 H         1 UNK         0.0694 
    137 H137      -52.2037  -24.6764   10.6350 H         1 UNK         0.2989 
    138 H138      -50.3457  -25.7653    9.6385 H         1 UNK         0.1055 
    139 H139      -49.1124  -22.9506    9.6723 H         1 UNK         0.0806 
    140 H140      -50.7085  -23.3603    9.0550 H         1 UNK         0.0806 
    141 H141      -49.2828  -23.9816    8.2501 H         1 UNK         0.0806 
    142 H142      -47.6334  -24.9420    9.9122 H         1 UNK         0.3061 
    143 H143      -46.0021  -26.3122   10.3200 H         1 UNK         0.0734 
    144 H144      -45.0047  -27.4551   12.2885 H         1 UNK         0.0832 
    145 H145      -46.2226  -26.3053   12.8167 H         1 UNK         0.0832 
    146 H146      -46.5962  -28.0202   12.8016 H         1 UNK         0.0832 
    147 H147      -46.1232  -29.1583   10.6511 H         1 UNK         0.3156 
    148 H148      -45.5634  -30.3955    8.6201 H         1 UNK         0.0589 
    149 H149      -48.6266  -30.3813    8.3214 H         1 UNK         0.0808 
    150 H150      -47.6054  -31.8180    8.3042 H         1 UNK         0.0808 
    151 H151      -47.7481  -30.8583    9.7662 H         1 UNK         0.0808 
    152 H152      -47.3391  -29.8801    6.3115 H         1 UNK         0.3098 
    153 H153      -44.7237  -28.8863    4.1536 H         1 UNK         0.0720 
    154 H154      -45.7876  -30.5863    2.6897 H         1 UNK         0.0791 
    155 H155      -46.5434  -31.3571    4.0848 H         1 UNK         0.0791 
    156 H156      -44.7945  -31.3675    3.9084 H         1 UNK         0.0791 
    157 H157      -47.6028  -29.1111    3.9408 H         1 UNK         0.3028 
@<TRIPOS>BOND
     1    1    2 1    
     2    1   82 1    
     3    1   83 1    
     4    1   84 1    
     5    2    3 2    
     6    2    4 am   BACKBONE|DICT|INTERRES
     7    4    5 1    
     8    4   85 1    
     9    5    6 1    
    10    5   80 1    
    11    5   86 1    
    12    6    7 1    
    13    6   87 1    
    14    6   88 1    
    15    7    8 1    
    16    8    9 1    
    17    8   89 1    
    18    8   90 1    
    19    9   10 ar   
    20    9   14 ar   
    21   10   11 ar   
    22   10   91 1    
    23   11   12 ar   
    24   11   58 1    
    25   12   13 ar   
    26   12   92 1    
    27   13   14 ar   
    28   13   15 1    
    29   14   93 1    
    30   15   16 1    
    31   15   94 1    
    32   15   95 1    
    33   16   17 1    
    34   17   18 1    
    35   17   96 1    
    36   17   97 1    
    37   18   19 1    
    38   18   22 1    
    39   18   98 1    
    40   19   20 am   BACKBONE|DICT|INTERRES
    41   19   21 2    
    42   20   99 1    
    43   20  100 1    
    44   22   23 am   BACKBONE|DICT|INTERRES
    45   22  101 1    
    46   23   24 2    
    47   23   25 1    
    48   25   26 1    
    49   25   27 1    
    50   25  102 1    
    51   26  103 1    
    52   26  104 1    
    53   26  105 1    
    54   27   28 am   BACKBONE|DICT|INTERRES
    55   27  106 1    
    56   28   29 2    
    57   28   30 1    
    58   30   31 1    
    59   30   32 1    
    60   30  107 1    
    61   31  108 1    
    62   31  109 1    
    63   31  110 1    
    64   32   33 am   BACKBONE|DICT|INTERRES
    65   32  111 1    
    66   33   34 2    
    67   33   35 1    
    68   35   36 1    
    69   35   37 1    
    70   35  112 1    
    71   36  113 1    
    72   36  114 1    
    73   36  115 1    
    74   37   38 am   BACKBONE|DICT|INTERRES
    75   37  116 1    
    76   38   39 2    
    77   38   40 1    
    78   40   41 1    
    79   40   42 1    
    80   40  117 1    
    81   41  118 1    
    82   41  119 1    
    83   41  120 1    
    84   42   43 am   BACKBONE|DICT|INTERRES
    85   42  121 1    
    86   43   44 2    
    87   43   45 1    
    88   45   46 1    
    89   45   47 1    
    90   45  122 1    
    91   46  123 1    
    92   46  124 1    
    93   46  125 1    
    94   47   48 am   BACKBONE|DICT|INTERRES
    95   47  126 1    
    96   48   49 2    
    97   48   50 1    
    98   50   51 1    
    99   50   52 1    
   100   50  127 1    
   101   51  128 1    
   102   51  129 1    
   103   51  130 1    
   104   52   53 am   BACKBONE|DICT|INTERRES
   105   52  131 1    
   106   53   54 2    
   107   53   55 1    
   108   55   56 1    
   109   55   59 1    
   110   55  132 1    
   111   56   57 1    
   112   56  133 1    
   113   56  134 1    
   114   57   58 1    
   115   58  135 1    
   116   58  136 1    
   117   59   60 am   BACKBONE|DICT|INTERRES
   118   59  137 1    
   119   60   61 2    
   120   60   62 1    
   121   62   63 1    
   122   62   64 1    
   123   62  138 1    
   124   63  139 1    
   125   63  140 1    
   126   63  141 1    
   127   64   65 am   BACKBONE|DICT|INTERRES
   128   64  142 1    
   129   65   66 2    
   130   65   67 1    
   131   67   68 1    
   132   67   69 1    
   133   67  143 1    
   134   68  144 1    
   135   68  145 1    
   136   68  146 1    
   137   69   70 am   BACKBONE|DICT|INTERRES
   138   69  147 1    
   139   70   71 2    
   140   70   72 1    
   141   72   73 1    
   142   72   74 1    
   143   72  148 1    
   144   73  149 1    
   145   73  150 1    
   146   73  151 1    
   147   74   75 am   BACKBONE|DICT|INTERRES
   148   74  152 1    
   149   75   76 2    
   150   75   77 1    
   151   77   78 1    
   152   77   79 1    
   153   77  153 1    
   154   78  154 1    
   155   78  155 1    
   156   78  156 1    
   157   79   80 am   BACKBONE|DICT|INTERRES
   158   79  157 1    
   159   80   81 2    
@<TRIPOS>SUBSTRUCTURE
     1 UNK         1 GROUP             0       ****    0 ROOT    
