@<TRIPOS>MOLECULE
3R207
157   159    1
SMALL
USER_CHARGES


@<TRIPOS>ATOM
      1 CA        -48.2733  -23.7030    3.0768 C.3       0 UNK        -0.1975 
      2 C         -48.4993  -24.5841    4.2962 C.2       0 UNK         0.4852 
      3 O         -48.0531  -24.2332    5.3885 O.2       0 UNK        -0.5216 
      4 N         -49.1823  -25.7250    4.1086 N.am      1 UNK        -0.4461 
      5 CA        -49.5372  -26.7004    5.1492 C.3       1 UNK         0.0864 
      6 C6        -50.4072  -27.8436    4.5683 C.3       14 UNK        -0.0898 
      7 S7        -51.2605  -28.8495    5.8337 S.3       14 UNK        -0.2598 
      8 C8        -52.9899  -28.2933    5.6790 C.3       14 UNK         0.0286 
      9 C9        -53.2762  -27.0890    6.5641 C.ar      14 UNK        -0.0844 
     10 C10       -52.9206  -25.8026    6.1495 C.ar      14 UNK        -0.0881 
     11 C11       -53.1671  -24.6984    6.9703 C.ar      14 UNK        -0.0643 
     12 C12       -53.7995  -24.8835    8.2029 C.ar      14 UNK        -0.0930 
     13 C13       -54.1674  -26.1641    8.6257 C.ar      14 UNK        -0.0827 
     14 C14       -53.9062  -27.2619    7.8002 C.ar      14 UNK        -0.1249 
     15 C15       -54.8571  -26.3516    9.9686 C.3       14 UNK         0.0141 
     16 S16       -53.6588  -26.6108   11.3131 S.3       14 UNK        -0.2313 
     17 C17       -53.4220  -28.4173   11.2506 C.3       14 UNK        -0.0915 
     18 CA        -54.3905  -29.2018   12.1743 C.3       13 UNK         0.0968 
     19 C         -54.1753  -30.7328   11.9827 C.2       13 UNK         0.5732 
     20 N         -53.5314  -31.4394   12.9064 N.am      13 UNK        -0.7310 
     21 O         -54.6039  -31.2874   10.9737 O.2       13 UNK        -0.5035 
     22 N         -54.2864  -28.7467   13.5670 N.am      13 UNK        -0.4233 
     23 C         -55.0807  -29.1238   14.5776 C.2       13 UNK         0.4989 
     24 O         -56.1255  -29.7583   14.4223 O.2       13 UNK        -0.4996 
     25 CA        -54.6193  -28.7430   16.0030 C.3       12 UNK         0.0216 
     26 CB        -54.9888  -29.8218   17.0433 C.3       12 UNK        -0.1964 
     27 N         -53.1876  -28.4023   16.0976 N.am      12 UNK        -0.4276 
     28 C         -52.1492  -29.1925   15.7746 C.2       12 UNK         0.5020 
     29 O         -52.2727  -30.3549   15.3849 O.2       12 UNK        -0.5489 
     30 CA        -50.7432  -28.5745   15.7987 C.3       11 UNK         0.0294 
     31 CB        -50.2906  -28.2572   14.3624 C.3       11 UNK        -0.2019 
     32 N         -50.6407  -27.3547   16.6006 N.am      11 UNK        -0.4493 
     33 C         -50.4822  -27.3296   17.9303 C.2       11 UNK         0.4932 
     34 O         -50.5077  -28.3342   18.6414 O.2       11 UNK        -0.5029 
     35 CA        -50.2323  -25.9585   18.5739 C.3       10 UNK         0.0280 
     36 CB        -48.7862  -25.5020   18.3152 C.3       10 UNK        -0.1976 
     37 N         -51.1547  -24.9485   18.0541 N.am      10 UNK        -0.4242 
     38 C         -52.1281  -24.3603   18.7641 C.2       10 UNK         0.5072 
     39 O         -52.3446  -24.5907   19.9549 O.2       10 UNK        -0.5224 
     40 CA        -53.0163  -23.3278   18.0396 C.3       9 UNK         0.0343 
     41 CB        -52.5376  -21.9000   18.3500 C.3       9 UNK        -0.2003 
     42 N         -53.0815  -23.5026   16.5864 N.am      9 UNK        -0.4272 
     43 C         -53.6024  -24.5704   15.9672 C.2       9 UNK         0.4988 
     44 O         -54.1229  -25.5158   16.5567 O.2       9 UNK        -0.5108 
     45 CA        -53.4759  -24.6261   14.4357 C.3       8 UNK         0.0248 
     46 CB        -54.7174  -24.0043   13.7770 C.3       8 UNK        -0.2001 
     47 N         -52.2677  -23.9974   13.8869 N.am      8 UNK        -0.4140 
     48 C         -51.0026  -24.2515   14.2477 C.2       8 UNK         0.5028 
     49 O         -50.6987  -25.0051   15.1748 O.2       8 UNK        -0.5428 
     50 CA        -49.9017  -23.5406   13.4411 C.3       7 UNK         0.0264 
     51 CB        -48.4926  -23.8457   13.9826 C.3       7 UNK        -0.1988 
     52 N         -49.9545  -23.8844   12.0161 N.am      7 UNK        -0.4454 
     53 C         -50.8035  -23.3421   11.1261 C.2       7 UNK         0.5027 
     54 O         -51.6850  -22.5466   11.4600 O.2       7 UNK        -0.5083 
     55 CA        -50.6792  -23.7442    9.6339 C.3       6 UNK         0.0844 
     56 C56       -51.0590  -22.5685    8.6882 C.3       14 UNK        -0.0967 
     57 S57       -50.9952  -22.9907    6.9116 S.3       14 UNK        -0.2604 
     58 C58       -52.7440  -23.3092    6.5210 C.3       14 UNK         0.0134 
     59 N         -49.3984  -24.3790    9.3067 N.am      6 UNK        -0.4116 
     60 C         -48.1716  -23.8417    9.3785 C.2       5 UNK         0.5034 
     61 O         -47.9506  -22.6636    9.6634 O.2       5 UNK        -0.5045 
     62 CA        -46.9938  -24.8102    9.1335 C.3       5 UNK         0.0224 
     63 CB        -45.7143  -24.3943    9.8891 C.3       5 UNK        -0.1978 
     64 N         -47.3324  -26.2147    9.4171 N.am      5 UNK        -0.4737 
     65 C         -47.7524  -26.7394   10.5788 C.2       4 UNK         0.5027 
     66 O         -47.8464  -26.0895   11.6187 O.2       4 UNK        -0.5211 
     67 CA        -48.2287  -28.2014   10.5775 C.3       4 UNK         0.0297 
     68 CB        -49.7636  -28.2452   10.6620 C.3       4 UNK        -0.1993 
     69 N         -47.8106  -28.9440    9.3846 N.am      4 UNK        -0.4486 
     70 C         -47.1403  -30.1044    9.3887 C.2       3 UNK         0.4961 
     71 O         -46.7716  -30.6807   10.4128 O.2       3 UNK        -0.5105 
     72 CA        -46.8351  -30.7523    8.0219 C.3       3 UNK         0.0299 
     73 CB        -47.9193  -31.7835    7.6690 C.3       3 UNK        -0.1972 
     74 N         -46.7188  -29.7891    6.9240 N.am      3 UNK        -0.4305 
     75 C         -45.7425  -28.8789    6.8059 C.2       2 UNK         0.5006 
     76 O         -44.7682  -28.8256    7.5569 O.2       2 UNK        -0.5106 
     77 CA        -45.8698  -27.8310    5.6811 C.3       2 UNK         0.0296 
     78 CB        -44.9727  -28.2167    4.4933 C.3       2 UNK        -0.2002 
     79 N         -47.2234  -27.5434    5.1801 N.am      2 UNK        -0.4032 
     80 C         -48.3088  -27.2390    5.9098 C.2       1 UNK         0.5000 
     81 O         -48.3607  -27.3339    7.1352 O.2       1 UNK        -0.5238 
     82 H82       -47.2058  -23.5689    2.9039 H         1 UNK         0.0889 
     83 H83       -48.7184  -22.7216    3.2385 H         1 UNK         0.0889 
     84 H84       -48.7124  -24.1301    2.1755 H         1 UNK         0.0889 
     85 H85       -49.5110  -25.9430    3.1785 H         1 UNK         0.3028 
     86 H86       -50.1340  -26.1543    5.8825 H         1 UNK         0.0864 
     87 H87       -49.8038  -28.5120    3.9512 H         1 UNK         0.0720 
     88 H88       -51.1570  -27.4295    3.8932 H         1 UNK         0.0720 
     89 H89       -53.6412  -29.1222    5.9606 H         1 UNK         0.0814 
     90 H90       -53.2328  -28.0683    4.6397 H         1 UNK         0.0814 
     91 H91       -52.4372  -25.6596    5.1932 H         1 UNK         0.1469 
     92 H92       -53.9944  -24.0317    8.8401 H         1 UNK         0.1381 
     93 H93       -54.1943  -28.2541    8.1177 H         1 UNK         0.1206 
     94 H94       -55.5594  -27.1854    9.9268 H         1 UNK         0.0813 
     95 H95       -55.4536  -25.4685   10.2021 H         1 UNK         0.0813 
     96 H96       -52.3928  -28.6218   11.5447 H         1 UNK         0.0638 
     97 H97       -53.5089  -28.7546   10.2180 H         1 UNK         0.0638 
     98 H98       -55.4105  -28.9924   11.8473 H         1 UNK         0.0568 
     99 H99       -53.4048  -32.4284   12.7651 H         1 UNK         0.3450 
    100 H100      -53.1635  -31.0011   13.7455 H         1 UNK         0.3450 
    101 H101      -53.4602  -28.2153   13.7885 H         1 UNK         0.2987 
    102 H102      -55.1738  -27.8410   16.2609 H         1 UNK         0.0766 
    103 H103      -56.0678  -29.9760   17.0836 H         1 UNK         0.0798 
    104 H104      -54.6679  -29.5328   18.0441 H         1 UNK         0.0798 
    105 H105      -54.5324  -30.7841   16.8092 H         1 UNK         0.0798 
    106 H106      -52.9938  -27.4534   16.3958 H         1 UNK         0.3198 
    107 H107      -50.0645  -29.3242   16.2117 H         1 UNK         0.0843 
    108 H108      -50.9366  -27.5166   13.8892 H         1 UNK         0.0831 
    109 H109      -50.3071  -29.1521   13.7386 H         1 UNK         0.0831 
    110 H110      -49.2718  -27.8691   14.3418 H         1 UNK         0.0831 
    111 H111      -50.6016  -26.4766   16.0801 H         1 UNK         0.3133 
    112 H112      -50.3570  -26.0745   19.6525 H         1 UNK         0.0566 
    113 H113      -48.5717  -24.5640   18.8276 H         1 UNK         0.0814 
    114 H114      -48.5902  -25.3533   17.2522 H         1 UNK         0.0814 
    115 H115      -48.0715  -26.2411   18.6798 H         1 UNK         0.0814 
    116 H116      -51.0690  -24.7280   17.0660 H         1 UNK         0.3091 
    117 H117      -54.0293  -23.4417   18.4315 H         1 UNK         0.0702 
    118 H118      -53.2068  -21.1540   17.9209 H         1 UNK         0.0785 
    119 H119      -51.5347  -21.7173   17.9618 H         1 UNK         0.0785 
    120 H120      -52.5074  -21.7237   19.4262 H         1 UNK         0.0785 
    121 H121      -52.6681  -22.7767   16.0197 H         1 UNK         0.2998 
    122 H122      -53.4346  -25.6810   14.1602 H         1 UNK         0.0697 
    123 H123      -54.8084  -22.9426   14.0095 H         1 UNK         0.0825 
    124 H124      -55.6291  -24.4946   14.1216 H         1 UNK         0.0825 
    125 H125      -54.6881  -24.1064   12.6922 H         1 UNK         0.0825 
    126 H126      -52.3961  -23.3745   13.0945 H         1 UNK         0.3029 
    127 H127      -50.0667  -22.4663   13.5486 H         1 UNK         0.0897 
    128 H128      -48.2744  -24.9141   13.9616 H         1 UNK         0.0792 
    129 H129      -48.3923  -23.5157   15.0174 H         1 UNK         0.0792 
    130 H130      -47.7234  -23.3357   13.4022 H         1 UNK         0.0792 
    131 H131      -49.2727  -24.5679   11.7014 H         1 UNK         0.3086 
    132 H132      -51.4202  -24.5310    9.4966 H         1 UNK         0.0583 
    133 H133      -52.0576  -22.1951    8.9211 H         1 UNK         0.1020 
    134 H134      -50.3864  -21.7249    8.8521 H         1 UNK         0.1020 
    135 H135      -53.3772  -22.5430    6.9706 H         1 UNK         0.0694 
    136 H136      -52.8814  -23.2188    5.4424 H         1 UNK         0.0694 
    137 H137      -49.4552  -25.3502    9.0373 H         1 UNK         0.2989 
    138 H138      -46.7843  -24.7560    8.0634 H         1 UNK         0.1055 
    139 H139      -45.8755  -24.3555   10.9669 H         1 UNK         0.0806 
    140 H140      -45.3780  -23.4053    9.5755 H         1 UNK         0.0806 
    141 H141      -44.8970  -25.0891    9.6963 H         1 UNK         0.0806 
    142 H142      -47.4163  -26.7970    8.5879 H         1 UNK         0.3061 
    143 H143      -47.8195  -28.6608   11.4796 H         1 UNK         0.0734 
    144 H144      -50.2318  -27.8526    9.7580 H         1 UNK         0.0832 
    145 H145      -50.1183  -29.2659   10.8053 H         1 UNK         0.0832 
    146 H146      -50.1297  -27.6517   11.5003 H         1 UNK         0.0832 
    147 H147      -48.0698  -28.5365    8.4883 H         1 UNK         0.3156 
    148 H148      -45.8813  -31.2767    8.1116 H         1 UNK         0.0589 
    149 H149      -48.8969  -31.3152    7.5443 H         1 UNK         0.0808 
    150 H150      -48.0156  -32.5331    8.4558 H         1 UNK         0.0808 
    151 H151      -47.6795  -32.3137    6.7471 H         1 UNK         0.0808 
    152 H152      -47.4812  -29.7572    6.2631 H         1 UNK         0.3098 
    153 H153      -45.4934  -26.8931    6.0945 H         1 UNK         0.0720 
    154 H154      -43.9492  -28.4081    4.8194 H         1 UNK         0.0791 
    155 H155      -44.9274  -27.4186    3.7520 H         1 UNK         0.0791 
    156 H156      -45.3302  -29.1193    3.9960 H         1 UNK         0.0791 
    157 H157      -47.3022  -27.4333    4.1796 H         1 UNK         0.3028 
@<TRIPOS>BOND
     1    1    2 1    
     2    1   82 1    
     3    1   83 1    
     4    1   84 1    
     5    2    3 2    
     6    2    4 am   BACKBONE|DICT|INTERRES
     7    4    5 1    
     8    4   85 1    
     9    5    6 1    
    10    5   80 1    
    11    5   86 1    
    12    6    7 1    
    13    6   87 1    
    14    6   88 1    
    15    7    8 1    
    16    8    9 1    
    17    8   89 1    
    18    8   90 1    
    19    9   10 ar   
    20    9   14 ar   
    21   10   11 ar   
    22   10   91 1    
    23   11   12 ar   
    24   11   58 1    
    25   12   13 ar   
    26   12   92 1    
    27   13   14 ar   
    28   13   15 1    
    29   14   93 1    
    30   15   16 1    
    31   15   94 1    
    32   15   95 1    
    33   16   17 1    
    34   17   18 1    
    35   17   96 1    
    36   17   97 1    
    37   18   19 1    
    38   18   22 1    
    39   18   98 1    
    40   19   20 am   BACKBONE|DICT|INTERRES
    41   19   21 2    
    42   20   99 1    
    43   20  100 1    
    44   22   23 am   BACKBONE|DICT|INTERRES
    45   22  101 1    
    46   23   24 2    
    47   23   25 1    
    48   25   26 1    
    49   25   27 1    
    50   25  102 1    
    51   26  103 1    
    52   26  104 1    
    53   26  105 1    
    54   27   28 am   BACKBONE|DICT|INTERRES
    55   27  106 1    
    56   28   29 2    
    57   28   30 1    
    58   30   31 1    
    59   30   32 1    
    60   30  107 1    
    61   31  108 1    
    62   31  109 1    
    63   31  110 1    
    64   32   33 am   BACKBONE|DICT|INTERRES
    65   32  111 1    
    66   33   34 2    
    67   33   35 1    
    68   35   36 1    
    69   35   37 1    
    70   35  112 1    
    71   36  113 1    
    72   36  114 1    
    73   36  115 1    
    74   37   38 am   BACKBONE|DICT|INTERRES
    75   37  116 1    
    76   38   39 2    
    77   38   40 1    
    78   40   41 1    
    79   40   42 1    
    80   40  117 1    
    81   41  118 1    
    82   41  119 1    
    83   41  120 1    
    84   42   43 am   BACKBONE|DICT|INTERRES
    85   42  121 1    
    86   43   44 2    
    87   43   45 1    
    88   45   46 1    
    89   45   47 1    
    90   45  122 1    
    91   46  123 1    
    92   46  124 1    
    93   46  125 1    
    94   47   48 am   BACKBONE|DICT|INTERRES
    95   47  126 1    
    96   48   49 2    
    97   48   50 1    
    98   50   51 1    
    99   50   52 1    
   100   50  127 1    
   101   51  128 1    
   102   51  129 1    
   103   51  130 1    
   104   52   53 am   BACKBONE|DICT|INTERRES
   105   52  131 1    
   106   53   54 2    
   107   53   55 1    
   108   55   56 1    
   109   55   59 1    
   110   55  132 1    
   111   56   57 1    
   112   56  133 1    
   113   56  134 1    
   114   57   58 1    
   115   58  135 1    
   116   58  136 1    
   117   59   60 am   BACKBONE|DICT|INTERRES
   118   59  137 1    
   119   60   61 2    
   120   60   62 1    
   121   62   63 1    
   122   62   64 1    
   123   62  138 1    
   124   63  139 1    
   125   63  140 1    
   126   63  141 1    
   127   64   65 am   BACKBONE|DICT|INTERRES
   128   64  142 1    
   129   65   66 2    
   130   65   67 1    
   131   67   68 1    
   132   67   69 1    
   133   67  143 1    
   134   68  144 1    
   135   68  145 1    
   136   68  146 1    
   137   69   70 am   BACKBONE|DICT|INTERRES
   138   69  147 1    
   139   70   71 2    
   140   70   72 1    
   141   72   73 1    
   142   72   74 1    
   143   72  148 1    
   144   73  149 1    
   145   73  150 1    
   146   73  151 1    
   147   74   75 am   BACKBONE|DICT|INTERRES
   148   74  152 1    
   149   75   76 2    
   150   75   77 1    
   151   77   78 1    
   152   77   79 1    
   153   77  153 1    
   154   78  154 1    
   155   78  155 1    
   156   78  156 1    
   157   79   80 am   BACKBONE|DICT|INTERRES
   158   79  157 1    
   159   80   81 2    
@<TRIPOS>SUBSTRUCTURE
     1 UNK         1 GROUP             0       ****    0 ROOT    
