@<TRIPOS>MOLECULE
3R207
157   159    1
SMALL
USER_CHARGES


@<TRIPOS>ATOM
      1 CA        -49.2493  -28.0638    4.8027 C.3       0 UNK        -0.1975 
      2 C         -48.6246  -27.4764    6.0580 C.2       0 UNK         0.4852 
      3 O         -48.4071  -26.2677    6.1268 O.2       0 UNK        -0.5216 
      4 N         -48.3257  -28.3174    7.0546 N.am      1 UNK        -0.4461 
      5 CA        -47.7754  -27.9329    8.3613 C.3       1 UNK         0.0864 
      6 C6        -48.3274  -28.8405    9.4921 C.3       14 UNK        -0.0898 
      7 S7        -50.0704  -28.4524    9.8444 S.3       14 UNK        -0.2598 
      8 C8        -50.9692  -29.6388    8.8012 C.3       14 UNK         0.0286 
      9 C9        -52.3624  -29.1060    8.5171 C.ar      14 UNK        -0.0844 
     10 C10       -52.5781  -28.2420    7.4394 C.ar      14 UNK        -0.0881 
     11 C11       -53.8368  -27.6688    7.2248 C.ar      14 UNK        -0.0643 
     12 C12       -54.8928  -28.0080    8.0787 C.ar      14 UNK        -0.0930 
     13 C13       -54.6970  -28.9025    9.1360 C.ar      14 UNK        -0.0827 
     14 C14       -53.4284  -29.4445    9.3521 C.ar      14 UNK        -0.1249 
     15 C15       -55.8566  -29.3084   10.0313 C.3       14 UNK         0.0141 
     16 S16       -55.8670  -28.3865   11.5990 S.3       14 UNK        -0.2313 
     17 C17       -57.3266  -29.1638   12.3654 C.3       14 UNK        -0.0915 
     18 CA        -57.6492  -28.6227   13.7813 C.3       13 UNK         0.0968 
     19 C         -59.0163  -29.1815   14.2759 C.2       13 UNK         0.5732 
     20 N         -59.0597  -30.0520   15.2779 N.am      13 UNK        -0.7310 
     21 O         -60.0588  -28.8125   13.7401 O.2       13 UNK        -0.5035 
     22 N         -56.5276  -28.8297   14.7109 N.am      13 UNK        -0.4233 
     23 C         -56.3903  -28.2303   15.8986 C.2       13 UNK         0.4989 
     24 O         -57.1965  -27.4141   16.3471 O.2       13 UNK        -0.4996 
     25 CA        -55.1494  -28.5852   16.7374 C.3       12 UNK         0.0216 
     26 CB        -55.4254  -29.7823   17.6685 C.3       12 UNK        -0.1964 
     27 N         -53.9137  -28.7678   15.9612 N.am      12 UNK        -0.4276 
     28 C         -53.5761  -29.7484   15.1125 C.2       12 UNK         0.5020 
     29 O         -54.3228  -30.6855   14.8267 O.2       12 UNK        -0.5489 
     30 CA        -52.1935  -29.6660   14.4370 C.3       11 UNK         0.0294 
     31 CB        -52.3403  -29.4426   12.9239 C.3       11 UNK        -0.2019 
     32 N         -51.3074  -28.6349   14.9883 N.am      11 UNK        -0.4493 
     33 C         -50.6443  -28.7372   16.1497 C.2       11 UNK         0.4932 
     34 O         -50.7375  -29.7024   16.9080 O.2       11 UNK        -0.5029 
     35 CA        -49.7307  -27.5645   16.5346 C.3       10 UNK         0.0280 
     36 CB        -48.4055  -27.6358   15.7569 C.3       10 UNK        -0.1976 
     37 N         -50.3834  -26.2830   16.2664 N.am      10 UNK        -0.4242 
     38 C         -51.0030  -25.5279   17.1854 C.2       10 UNK         0.5072 
     39 O         -51.0432  -25.8028   18.3853 O.2       10 UNK        -0.5224 
     40 CA        -51.7043  -24.2452   16.6923 C.3       9 UNK         0.0343 
     41 CB        -50.7654  -23.0356   16.8266 C.3       9 UNK        -0.2003 
     42 N         -52.1788  -24.3346   15.3091 N.am      9 UNK        -0.4272 
     43 C         -53.1413  -25.1678   14.8888 C.2       9 UNK         0.4988 
     44 O         -53.8137  -25.8591   15.6499 O.2       9 UNK        -0.5108 
     45 CA        -53.3607  -25.2990   13.3700 C.3       8 UNK         0.0248 
     46 CB        -54.5798  -24.4774   12.9246 C.3       8 UNK        -0.2001 
     47 N         -52.1983  -24.9292   12.5528 N.am      8 UNK        -0.4140 
     48 C         -50.9797  -25.4809   12.6170 C.2       8 UNK         0.5028 
     49 O         -50.6930  -26.3838   13.4059 O.2       8 UNK        -0.5428 
     50 CA        -49.9010  -24.8969   11.6806 C.3       7 UNK         0.0264 
     51 CB        -48.5067  -25.4878   11.9706 C.3       7 UNK        -0.1988 
     52 N         -50.1992  -25.0966   10.2618 N.am      7 UNK        -0.4454 
     53 C         -51.1966  -24.5462    9.5570 C.2       7 UNK         0.5027 
     54 O         -52.0144  -23.7501   10.0250 O.2       7 UNK        -0.5083 
     55 CA        -51.2459  -24.9412    8.0686 C.3       6 UNK         0.0844 
     56 C56       -52.6182  -24.6567    7.4029 C.3       14 UNK        -0.0967 
     57 S57       -52.7434  -25.4900    5.7829 S.3       14 UNK        -0.2604 
     58 C58       -54.0840  -26.7008    6.0677 C.3       14 UNK         0.0134 
     59 N         -50.1081  -24.3596    7.3483 N.am      6 UNK        -0.4116 
     60 C         -49.8059  -23.0605    7.2233 C.2       5 UNK         0.5034 
     61 O         -50.5089  -22.1327    7.6288 O.2       5 UNK        -0.5045 
     62 CA        -48.4499  -22.7423    6.5704 C.3       5 UNK         0.0224 
     63 CB        -48.5584  -21.5756    5.5726 C.3       5 UNK        -0.1978 
     64 N         -47.4447  -22.4182    7.5870 N.am      5 UNK        -0.4737 
     65 C         -46.9551  -23.2941    8.4718 C.2       4 UNK         0.5027 
     66 O         -47.2822  -24.4836    8.5179 O.2       4 UNK        -0.5211 
     67 CA        -45.9173  -22.7705    9.4706 C.3       4 UNK         0.0297 
     68 CB        -46.5824  -22.1013   10.6856 C.3       4 UNK        -0.1993 
     69 N         -45.1505  -23.9355    9.8830 N.am      4 UNK        -0.4486 
     70 C         -43.8834  -23.9751   10.3002 C.2       3 UNK         0.4961 
     71 O         -43.2162  -22.9819   10.5906 O.2       3 UNK        -0.5105 
     72 CA        -43.2447  -25.3764   10.3523 C.3       3 UNK         0.0299 
     73 CB        -43.5094  -26.0411   11.7126 C.3       3 UNK        -0.1972 
     74 N         -43.7330  -26.2519    9.2780 N.am      3 UNK        -0.4305 
     75 C         -43.5206  -26.0582    7.9683 C.2       2 UNK         0.5006 
     76 O         -42.7848  -25.1775    7.5219 O.2       2 UNK        -0.5106 
     77 CA        -44.2727  -26.9670    6.9782 C.3       2 UNK         0.0296 
     78 CB        -43.5224  -28.2948    6.7545 C.3       2 UNK        -0.2002 
     79 N         -45.6914  -27.1861    7.3025 N.am      2 UNK        -0.4032 
     80 C         -46.2325  -27.8758    8.3176 C.2       1 UNK         0.5000 
     81 O         -45.5638  -28.4327    9.1911 O.2       1 UNK        -0.5238 
     82 H82       -49.4359  -29.1330    4.9010 H         1 UNK         0.0889 
     83 H83       -48.5904  -27.9089    3.9488 H         1 UNK         0.0889 
     84 H84       -50.1990  -27.5715    4.5940 H         1 UNK         0.0889 
     85 H85       -48.4623  -29.3086    6.9187 H         1 UNK         0.3028 
     86 H86       -48.0904  -26.9137    8.5885 H         1 UNK         0.0864 
     87 H87       -47.7868  -28.6771   10.4262 H         1 UNK         0.0720 
     88 H88       -48.2112  -29.8989    9.2526 H         1 UNK         0.0720 
     89 H89       -51.0181  -30.6038    9.3080 H         1 UNK         0.0814 
     90 H90       -50.4423  -29.8081    7.8629 H         1 UNK         0.0814 
     91 H91       -51.7552  -27.9905    6.7854 H         1 UNK         0.1469 
     92 H92       -55.8740  -27.5836    7.9146 H         1 UNK         0.1381 
     93 H93       -53.2691  -30.1234   10.1775 H         1 UNK         0.1206 
     94 H94       -55.7951  -30.3772   10.2425 H         1 UNK         0.0813 
     95 H95       -56.8052  -29.1525    9.5151 H         1 UNK         0.0813 
     96 H96       -57.1659  -30.2430   12.4031 H         1 UNK         0.0638 
     97 H97       -58.1723  -29.0012   11.6941 H         1 UNK         0.0638 
     98 H98       -57.7880  -27.5436   13.6922 H         1 UNK         0.0568 
     99 H99       -59.9517  -30.4021   15.5895 H         1 UNK         0.3450 
    100 H100      -58.2109  -30.3636   15.7208 H         1 UNK         0.3450 
    101 H101      -55.8317  -29.5200   14.4464 H         1 UNK         0.2987 
    102 H102      -54.9576  -27.7204   17.3747 H         1 UNK         0.0766 
    103 H103      -56.2781  -29.5797   18.3179 H         1 UNK         0.0798 
    104 H104      -54.5699  -29.9880   18.3119 H         1 UNK         0.0798 
    105 H105      -55.6528  -30.6920   17.1124 H         1 UNK         0.0798 
    106 H106      -53.2710  -27.9885   16.0301 H         1 UNK         0.3198 
    107 H107      -51.7156  -30.6368   14.5849 H         1 UNK         0.0843 
    108 H108      -52.7961  -28.4802   12.6936 H         1 UNK         0.0831 
    109 H109      -52.9687  -30.2142   12.4786 H         1 UNK         0.0831 
    110 H110      -51.3740  -29.4821   12.4214 H         1 UNK         0.0831 
    111 H111      -51.1312  -27.8225   14.3970 H         1 UNK         0.3133 
    112 H112      -49.4985  -27.6526   17.5980 H         1 UNK         0.0566 
    113 H113      -47.7300  -26.8334   16.0537 H         1 UNK         0.0814 
    114 H114      -48.5586  -27.5610   14.6794 H         1 UNK         0.0814 
    115 H115      -47.8920  -28.5790   15.9482 H         1 UNK         0.0814 
    116 H116      -50.4420  -26.0141   15.2886 H         1 UNK         0.3091 
    117 H117      -52.5722  -24.0783   17.3340 H         1 UNK         0.0702 
    118 H118      -51.2713  -22.1080   16.5579 H         1 UNK         0.0785 
    119 H119      -49.8836  -23.1351   16.1922 H         1 UNK         0.0785 
    120 H120      -50.4162  -22.9257   17.8544 H         1 UNK         0.0785 
    121 H121      -51.6870  -23.7857   14.6199 H         1 UNK         0.2998 
    122 H122      -53.5760  -26.3496   13.1704 H         1 UNK         0.0697 
    123 H123      -54.4204  -23.4079   13.0665 H         1 UNK         0.0825 
    124 H124      -55.4671  -24.7562   13.4952 H         1 UNK         0.0825 
    125 H125      -54.8084  -24.6481   11.8722 H         1 UNK         0.0825 
    126 H126      -52.3505  -24.2420   11.8182 H         1 UNK         0.3029 
    127 H127      -49.8564  -23.8218   11.8653 H         1 UNK         0.0897 
    128 H128      -48.1967  -25.2734   12.9942 H         1 UNK         0.0792 
    129 H129      -47.7470  -25.0749   11.3081 H         1 UNK         0.0792 
    130 H130      -48.4960  -26.5717   11.8494 H         1 UNK         0.0792 
    131 H131      -49.5915  -25.7433    9.7810 H         1 UNK         0.3086 
    132 H132      -51.0852  -26.0188    8.0481 H         1 UNK         0.0583 
    133 H133      -53.4341  -24.9968    8.0435 H         1 UNK         0.1020 
    134 H134      -52.7733  -23.5853    7.2673 H         1 UNK         0.1020 
    135 H135      -55.0108  -26.1473    6.2271 H         1 UNK         0.0694 
    136 H136      -54.2263  -27.2816    5.1556 H         1 UNK         0.0694 
    137 H137      -49.4349  -25.0317    6.9829 H         1 UNK         0.2989 
    138 H138      -48.1098  -23.6218    6.0190 H         1 UNK         0.1055 
    139 H139      -48.8478  -20.6452    6.0629 H         1 UNK         0.0806 
    140 H140      -49.3076  -21.7873    4.8084 H         1 UNK         0.0806 
    141 H141      -47.6126  -21.4041    5.0585 H         1 UNK         0.0806 
    142 H142      -47.1450  -21.4551    7.6349 H         1 UNK         0.3061 
    143 H143      -45.2578  -22.0627    8.9641 H         1 UNK         0.0734 
    144 H144      -47.2744  -22.7734   11.1925 H         1 UNK         0.0832 
    145 H145      -45.8399  -21.7747   11.4138 H         1 UNK         0.0832 
    146 H146      -47.1490  -21.2200   10.3830 H         1 UNK         0.0832 
    147 H147      -45.6085  -24.8029    9.6281 H         1 UNK         0.3156 
    148 H148      -42.1662  -25.2584   10.2292 H         1 UNK         0.0589 
    149 H149      -44.5743  -26.2058   11.8828 H         1 UNK         0.0808 
    150 H150      -43.1407  -25.4181   12.5289 H         1 UNK         0.0808 
    151 H151      -43.0048  -27.0044   11.7880 H         1 UNK         0.0808 
    152 H152      -44.3308  -27.0329    9.5383 H         1 UNK         0.3098 
    153 H153      -44.2800  -26.4387    6.0233 H         1 UNK         0.0720 
    154 H154      -42.5076  -28.1106    6.3994 H         1 UNK         0.0791 
    155 H155      -44.0207  -28.9103    6.0054 H         1 UNK         0.0791 
    156 H156      -43.4409  -28.8810    7.6703 H         1 UNK         0.0791 
    157 H157      -46.3508  -26.7134    6.6932 H         1 UNK         0.3028 
@<TRIPOS>BOND
     1    1    2 1    
     2    1   82 1    
     3    1   83 1    
     4    1   84 1    
     5    2    3 2    
     6    2    4 am   BACKBONE|DICT|INTERRES
     7    4    5 1    
     8    4   85 1    
     9    5    6 1    
    10    5   80 1    
    11    5   86 1    
    12    6    7 1    
    13    6   87 1    
    14    6   88 1    
    15    7    8 1    
    16    8    9 1    
    17    8   89 1    
    18    8   90 1    
    19    9   10 ar   
    20    9   14 ar   
    21   10   11 ar   
    22   10   91 1    
    23   11   12 ar   
    24   11   58 1    
    25   12   13 ar   
    26   12   92 1    
    27   13   14 ar   
    28   13   15 1    
    29   14   93 1    
    30   15   16 1    
    31   15   94 1    
    32   15   95 1    
    33   16   17 1    
    34   17   18 1    
    35   17   96 1    
    36   17   97 1    
    37   18   19 1    
    38   18   22 1    
    39   18   98 1    
    40   19   20 am   BACKBONE|DICT|INTERRES
    41   19   21 2    
    42   20   99 1    
    43   20  100 1    
    44   22   23 am   BACKBONE|DICT|INTERRES
    45   22  101 1    
    46   23   24 2    
    47   23   25 1    
    48   25   26 1    
    49   25   27 1    
    50   25  102 1    
    51   26  103 1    
    52   26  104 1    
    53   26  105 1    
    54   27   28 am   BACKBONE|DICT|INTERRES
    55   27  106 1    
    56   28   29 2    
    57   28   30 1    
    58   30   31 1    
    59   30   32 1    
    60   30  107 1    
    61   31  108 1    
    62   31  109 1    
    63   31  110 1    
    64   32   33 am   BACKBONE|DICT|INTERRES
    65   32  111 1    
    66   33   34 2    
    67   33   35 1    
    68   35   36 1    
    69   35   37 1    
    70   35  112 1    
    71   36  113 1    
    72   36  114 1    
    73   36  115 1    
    74   37   38 am   BACKBONE|DICT|INTERRES
    75   37  116 1    
    76   38   39 2    
    77   38   40 1    
    78   40   41 1    
    79   40   42 1    
    80   40  117 1    
    81   41  118 1    
    82   41  119 1    
    83   41  120 1    
    84   42   43 am   BACKBONE|DICT|INTERRES
    85   42  121 1    
    86   43   44 2    
    87   43   45 1    
    88   45   46 1    
    89   45   47 1    
    90   45  122 1    
    91   46  123 1    
    92   46  124 1    
    93   46  125 1    
    94   47   48 am   BACKBONE|DICT|INTERRES
    95   47  126 1    
    96   48   49 2    
    97   48   50 1    
    98   50   51 1    
    99   50   52 1    
   100   50  127 1    
   101   51  128 1    
   102   51  129 1    
   103   51  130 1    
   104   52   53 am   BACKBONE|DICT|INTERRES
   105   52  131 1    
   106   53   54 2    
   107   53   55 1    
   108   55   56 1    
   109   55   59 1    
   110   55  132 1    
   111   56   57 1    
   112   56  133 1    
   113   56  134 1    
   114   57   58 1    
   115   58  135 1    
   116   58  136 1    
   117   59   60 am   BACKBONE|DICT|INTERRES
   118   59  137 1    
   119   60   61 2    
   120   60   62 1    
   121   62   63 1    
   122   62   64 1    
   123   62  138 1    
   124   63  139 1    
   125   63  140 1    
   126   63  141 1    
   127   64   65 am   BACKBONE|DICT|INTERRES
   128   64  142 1    
   129   65   66 2    
   130   65   67 1    
   131   67   68 1    
   132   67   69 1    
   133   67  143 1    
   134   68  144 1    
   135   68  145 1    
   136   68  146 1    
   137   69   70 am   BACKBONE|DICT|INTERRES
   138   69  147 1    
   139   70   71 2    
   140   70   72 1    
   141   72   73 1    
   142   72   74 1    
   143   72  148 1    
   144   73  149 1    
   145   73  150 1    
   146   73  151 1    
   147   74   75 am   BACKBONE|DICT|INTERRES
   148   74  152 1    
   149   75   76 2    
   150   75   77 1    
   151   77   78 1    
   152   77   79 1    
   153   77  153 1    
   154   78  154 1    
   155   78  155 1    
   156   78  156 1    
   157   79   80 am   BACKBONE|DICT|INTERRES
   158   79  157 1    
   159   80   81 2    
@<TRIPOS>SUBSTRUCTURE
     1 UNK         1 GROUP             0       ****    0 ROOT    
