@<TRIPOS>MOLECULE
3R207
157   159    1
SMALL
USER_CHARGES


@<TRIPOS>ATOM
      1 CA        -47.7994  -28.2074    6.1589 C.3       0 UNK        -0.1975 
      2 C         -48.3975  -28.6003    4.8105 C.2       0 UNK         0.4852 
      3 O         -47.9921  -29.6254    4.2668 O.2       0 UNK        -0.5216 
      4 N         -49.3377  -27.8522    4.2111 N.am      1 UNK        -0.4461 
      5 CA        -49.9791  -26.5997    4.6475 C.3       1 UNK         0.0864 
      6 C6        -50.8156  -26.7185    5.9554 C.3       14 UNK        -0.0898 
      7 S7        -52.0727  -28.0394    5.8530 S.3       14 UNK        -0.2598 
      8 C8        -52.9169  -27.8784    7.4665 C.3       14 UNK         0.0286 
      9 C9        -52.2916  -28.6544    8.6297 C.ar      14 UNK        -0.0844 
     10 C10       -50.9680  -29.1126    8.6166 C.ar      14 UNK        -0.0881 
     11 C11       -50.4306  -29.7957    9.7108 C.ar      14 UNK        -0.0643 
     12 C12       -51.2333  -30.0432   10.8273 C.ar      14 UNK        -0.0930 
     13 C13       -52.5604  -29.6026   10.8559 C.ar      14 UNK        -0.0827 
     14 C14       -53.0744  -28.8979    9.7625 C.ar      14 UNK        -0.1249 
     15 C15       -53.4221  -29.8450   12.0866 C.3       14 UNK         0.0141 
     16 S16       -54.9600  -30.7410   11.7081 S.3       14 UNK        -0.2313 
     17 C17       -55.7779  -30.7174   13.3403 C.3       14 UNK        -0.0915 
     18 CA        -56.8487  -29.6007   13.4553 C.3       13 UNK         0.0968 
     19 C         -57.7031  -29.7859   14.7376 C.2       13 UNK         0.5732 
     20 N         -57.4122  -29.1025   15.8370 N.am      13 UNK        -0.7310 
     21 O         -58.6599  -30.5570   14.7294 O.2       13 UNK        -0.5035 
     22 N         -56.2477  -28.2602   13.3571 N.am      13 UNK        -0.4233 
     23 C         -56.6268  -27.3168   12.4848 C.2       13 UNK         0.4989 
     24 O         -57.5503  -27.4623   11.6812 O.2       13 UNK        -0.4996 
     25 CA        -55.8197  -26.0010   12.4709 C.3       12 UNK         0.0216 
     26 CB        -56.6147  -24.8115   11.8913 C.3       12 UNK        -0.1964 
     27 N         -55.2195  -25.6481   13.7615 N.am      12 UNK        -0.4276 
     28 C         -55.8454  -25.3858   14.9165 C.2       12 UNK         0.5020 
     29 O         -57.0709  -25.3767   15.0480 O.2       12 UNK        -0.5489 
     30 CA        -54.9332  -25.1158   16.1332 C.3       11 UNK         0.0294 
     31 CB        -55.7075  -25.1343   17.4679 C.3       11 UNK        -0.2019 
     32 N         -53.7689  -26.0109   16.2207 N.am      11 UNK        -0.4493 
     33 C         -53.7742  -27.3537   16.2079 C.2       11 UNK         0.4932 
     34 O         -54.7921  -28.0228   16.0240 O.2       11 UNK        -0.5029 
     35 CA        -52.4361  -28.0889   16.4197 C.3       10 UNK         0.0280 
     36 CB        -52.2744  -29.2588   15.4395 C.3       10 UNK        -0.1976 
     37 N         -51.2677  -27.2161   16.2954 N.am      10 UNK        -0.4242 
     38 C         -50.6753  -26.5798   17.3135 C.2       10 UNK         0.5072 
     39 O         -51.0500  -26.6556   18.4843 O.2       10 UNK        -0.5224 
     40 CA        -49.4721  -25.6873   16.9651 C.3       9 UNK         0.0343 
     41 CB        -48.1888  -26.5284   16.8765 C.3       9 UNK        -0.2003 
     42 N         -49.6476  -24.9203   15.7272 N.am      9 UNK        -0.4272 
     43 C         -50.6065  -24.0020   15.5302 C.2       9 UNK         0.4988 
     44 O         -51.4642  -23.7143   16.3662 O.2       9 UNK        -0.5108 
     45 CA        -50.6370  -23.3085   14.1586 C.3       8 UNK         0.0248 
     46 CB        -49.4929  -22.2899   14.0293 C.3       8 UNK        -0.2001 
     47 N         -50.5817  -24.2562   13.0460 N.am      8 UNK        -0.4140 
     48 C         -51.5042  -25.1948   12.7941 C.2       8 UNK         0.5028 
     49 O         -52.5334  -25.3428   13.4498 O.2       8 UNK        -0.5428 
     50 CA        -51.2049  -26.1689   11.6476 C.3       7 UNK         0.0264 
     51 CB        -51.4749  -25.5184   10.2807 C.3       7 UNK        -0.1988 
     52 N         -49.8338  -26.6752   11.7039 N.am      7 UNK        -0.4454 
     53 C         -49.3343  -27.4113   12.7080 C.2       7 UNK         0.5027 
     54 O         -49.9826  -27.7600   13.6949 O.2       7 UNK        -0.5083 
     55 CA        -47.8395  -27.7722   12.6278 C.3       6 UNK         0.0844 
     56 C56       -47.5910  -29.0815   11.8377 C.3       14 UNK        -0.0967 
     57 S57       -47.8032  -28.9454   10.0266 S.3       14 UNK        -0.2604 
     58 C58       -48.9890  -30.2813    9.6625 C.3       14 UNK         0.0134 
     59 N         -47.0261  -26.6426   12.1630 N.am      6 UNK        -0.4116 
     60 C         -46.8451  -25.5143   12.8680 C.2       5 UNK         0.5034 
     61 O         -47.3065  -25.3268   13.9939 O.2       5 UNK        -0.5045 
     62 CA        -46.0632  -24.3779   12.1873 C.3       5 UNK         0.0224 
     63 CB        -44.5490  -24.6132   12.3031 C.3       5 UNK        -0.1978 
     64 N         -46.4245  -24.1865   10.7804 N.am      5 UNK        -0.4737 
     65 C         -47.6573  -23.9159   10.3320 C.2       4 UNK         0.5027 
     66 O         -48.6187  -23.7506   11.0811 O.2       4 UNK        -0.5211 
     67 CA        -47.8813  -23.8196    8.8102 C.3       4 UNK         0.0297 
     68 CB        -48.4727  -22.4503    8.4360 C.3       4 UNK        -0.1993 
     69 N         -46.7062  -24.0693    7.9677 N.am      4 UNK        -0.4486 
     70 C         -46.0461  -25.2269    7.8446 C.2       3 UNK         0.4961 
     71 O         -46.2696  -26.2196    8.5359 O.2       3 UNK        -0.5105 
     72 CA        -44.9939  -25.2808    6.7234 C.3       3 UNK         0.0299 
     73 CB        -44.0871  -26.5220    6.8150 C.3       3 UNK        -0.1972 
     74 N         -45.6672  -25.2623    5.4232 N.am      3 UNK        -0.4305 
     75 C         -46.1240  -24.1581    4.8158 C.2       2 UNK         0.5006 
     76 O         -45.9195  -23.0159    5.2303 O.2       2 UNK        -0.5106 
     77 CA        -47.0021  -24.3687    3.5711 C.3       2 UNK         0.0296 
     78 CB        -46.1376  -24.6759    2.3373 C.3       2 UNK        -0.2002 
     79 N         -48.0091  -25.4225    3.7470 N.am      2 UNK        -0.4032 
     80 C         -49.0162  -25.3895    4.6365 C.2       1 UNK         0.5000 
     81 O         -49.1995  -24.4565    5.4192 O.2       1 UNK        -0.5238 
     82 H82       -47.9552  -27.1679    6.4317 H         1 UNK         0.0889 
     83 H83       -46.7251  -28.3818    6.1481 H         1 UNK         0.0889 
     84 H84       -48.2172  -28.8310    6.9460 H         1 UNK         0.0889 
     85 H85       -49.6901  -28.1954    3.3281 H         1 UNK         0.3028 
     86 H86       -50.6926  -26.3688    3.8547 H         1 UNK         0.0864 
     87 H87       -50.1822  -26.8785    6.8267 H         1 UNK         0.0720 
     88 H88       -51.3464  -25.7835    6.1446 H         1 UNK         0.0720 
     89 H89       -53.9418  -28.2262    7.3288 H         1 UNK         0.0814 
     90 H90       -52.9892  -26.8243    7.7366 H         1 UNK         0.0814 
     91 H91       -50.3405  -28.9427    7.7572 H         1 UNK         0.1469 
     92 H92       -50.8214  -30.5728   11.6752 H         1 UNK         0.1381 
     93 H93       -54.0955  -28.5423    9.7946 H         1 UNK         0.1206 
     94 H94       -53.6607  -28.8824   12.5388 H         1 UNK         0.0813 
     95 H95       -52.8703  -30.4232   12.8281 H         1 UNK         0.0813 
     96 H96       -55.0309  -30.6198   14.1298 H         1 UNK         0.0638 
     97 H97       -56.2362  -31.6985   13.4786 H         1 UNK         0.0638 
     98 H98       -57.5423  -29.7480   12.6254 H         1 UNK         0.0568 
     99 H99       -57.9835  -29.2251   16.6569 H         1 UNK         0.3450 
    100 H100      -56.5685  -28.5390   15.8889 H         1 UNK         0.3450 
    101 H101      -55.5436  -28.0396   14.0502 H         1 UNK         0.2987 
    102 H102      -54.9784  -26.1844   11.8007 H         1 UNK         0.0766 
    103 H103      -56.0106  -23.9045   11.8693 H         1 UNK         0.0798 
    104 H104      -57.5125  -24.6035   12.4741 H         1 UNK         0.0798 
    105 H105      -56.9312  -25.0117   10.8669 H         1 UNK         0.0798 
    106 H106      -54.1963  -25.5966   13.7594 H         1 UNK         0.3198 
    107 H107      -54.5335  -24.1100   15.9938 H         1 UNK         0.0843 
    108 H108      -56.1632  -26.1075   17.6546 H         1 UNK         0.0831 
    109 H109      -56.5084  -24.3938   17.4677 H         1 UNK         0.0831 
    110 H110      -55.0543  -24.9022   18.3090 H         1 UNK         0.0831 
    111 H111      -52.8741  -25.5450   16.3119 H         1 UNK         0.3133 
    112 H112      -52.4702  -28.5099   17.4263 H         1 UNK         0.0566 
    113 H113      -52.2322  -28.8951   14.4153 H         1 UNK         0.0814 
    114 H114      -51.3562  -29.8138   15.6324 H         1 UNK         0.0814 
    115 H115      -53.1012  -29.9655   15.5148 H         1 UNK         0.0814 
    116 H116      -50.8691  -27.1304   15.3635 H         1 UNK         0.3091 
    117 H117      -49.3506  -24.9693   17.7788 H         1 UNK         0.0702 
    118 H118      -47.3109  -25.8976   16.7360 H         1 UNK         0.0785 
    119 H119      -48.2282  -27.2362   16.0476 H         1 UNK         0.0785 
    120 H120      -48.0319  -27.1023   17.7908 H         1 UNK         0.0785 
    121 H121      -48.9617  -25.0818   14.9942 H         1 UNK         0.2998 
    122 H122      -51.5827  -22.7681   14.0814 H         1 UNK         0.0697 
    123 H123      -48.5152  -22.7720   14.0601 H         1 UNK         0.0825 
    124 H124      -49.5248  -21.5605   14.8396 H         1 UNK         0.0825 
    125 H125      -49.5601  -21.7376   13.0917 H         1 UNK         0.0825 
    126 H126      -49.7868  -24.1769   12.4129 H         1 UNK         0.3029 
    127 H127      -51.8727  -27.0244   11.7578 H         1 UNK         0.0897 
    128 H128      -52.5344  -25.2857   10.1685 H         1 UNK         0.0792 
    129 H129      -51.1988  -26.1821    9.4625 H         1 UNK         0.0792 
    130 H130      -50.9237  -24.5874   10.1504 H         1 UNK         0.0792 
    131 H131      -49.2207  -26.4268   10.9422 H         1 UNK         0.3086 
    132 H132      -47.5262  -27.9739   13.6548 H         1 UNK         0.0583 
    133 H133      -46.5680  -29.4153   12.0178 H         1 UNK         0.1020 
    134 H134      -48.2233  -29.8798   12.2310 H         1 UNK         0.1020 
    135 H135      -48.7768  -30.6670    8.6643 H         1 UNK         0.0694 
    136 H136      -48.8359  -31.1214   10.3415 H         1 UNK         0.0694 
    137 H137      -46.6465  -26.7093   11.2278 H         1 UNK         0.2989 
    138 H138      -46.3086  -23.4545   12.7164 H         1 UNK         0.1055 
    139 H139      -44.2540  -24.7475   13.3449 H         1 UNK         0.0806 
    140 H140      -43.9848  -23.7643   11.9163 H         1 UNK         0.0806 
    141 H141      -44.2335  -25.5034   11.7572 H         1 UNK         0.0806 
    142 H142      -45.6988  -24.3327   10.0941 H         1 UNK         0.3061 
    143 H143      -48.6215  -24.5827    8.5600 H         1 UNK         0.0734 
    144 H144      -49.3882  -22.2498    8.9946 H         1 UNK         0.0832 
    145 H145      -48.7296  -22.4062    7.3771 H         1 UNK         0.0832 
    146 H146      -47.7759  -21.6389    8.6490 H         1 UNK         0.0832 
    147 H147      -46.4622  -23.3339    7.3137 H         1 UNK         0.3156 
    148 H148      -44.3565  -24.3989    6.8175 H         1 UNK         0.0589 
    149 H149      -44.6503  -27.4512    6.7322 H         1 UNK         0.0808 
    150 H150      -43.3302  -26.5181    6.0305 H         1 UNK         0.0808 
    151 H151      -43.5616  -26.5476    7.7706 H         1 UNK         0.0808 
    152 H152      -45.8922  -26.1583    5.0181 H         1 UNK         0.3098 
    153 H153      -47.5349  -23.4334    3.3860 H         1 UNK         0.0720 
    154 H154      -46.7426  -24.7250    1.4317 H         1 UNK         0.0791 
    155 H155      -45.6055  -25.6227    2.4373 H         1 UNK         0.0791 
    156 H156      -45.3898  -23.8968    2.1818 H         1 UNK         0.0791 
    157 H157      -47.9426  -26.2231    3.1346 H         1 UNK         0.3028 
@<TRIPOS>BOND
     1    1    2 1    
     2    1   82 1    
     3    1   83 1    
     4    1   84 1    
     5    2    3 2    
     6    2    4 am   BACKBONE|DICT|INTERRES
     7    4    5 1    
     8    4   85 1    
     9    5    6 1    
    10    5   80 1    
    11    5   86 1    
    12    6    7 1    
    13    6   87 1    
    14    6   88 1    
    15    7    8 1    
    16    8    9 1    
    17    8   89 1    
    18    8   90 1    
    19    9   10 ar   
    20    9   14 ar   
    21   10   11 ar   
    22   10   91 1    
    23   11   12 ar   
    24   11   58 1    
    25   12   13 ar   
    26   12   92 1    
    27   13   14 ar   
    28   13   15 1    
    29   14   93 1    
    30   15   16 1    
    31   15   94 1    
    32   15   95 1    
    33   16   17 1    
    34   17   18 1    
    35   17   96 1    
    36   17   97 1    
    37   18   19 1    
    38   18   22 1    
    39   18   98 1    
    40   19   20 am   BACKBONE|DICT|INTERRES
    41   19   21 2    
    42   20   99 1    
    43   20  100 1    
    44   22   23 am   BACKBONE|DICT|INTERRES
    45   22  101 1    
    46   23   24 2    
    47   23   25 1    
    48   25   26 1    
    49   25   27 1    
    50   25  102 1    
    51   26  103 1    
    52   26  104 1    
    53   26  105 1    
    54   27   28 am   BACKBONE|DICT|INTERRES
    55   27  106 1    
    56   28   29 2    
    57   28   30 1    
    58   30   31 1    
    59   30   32 1    
    60   30  107 1    
    61   31  108 1    
    62   31  109 1    
    63   31  110 1    
    64   32   33 am   BACKBONE|DICT|INTERRES
    65   32  111 1    
    66   33   34 2    
    67   33   35 1    
    68   35   36 1    
    69   35   37 1    
    70   35  112 1    
    71   36  113 1    
    72   36  114 1    
    73   36  115 1    
    74   37   38 am   BACKBONE|DICT|INTERRES
    75   37  116 1    
    76   38   39 2    
    77   38   40 1    
    78   40   41 1    
    79   40   42 1    
    80   40  117 1    
    81   41  118 1    
    82   41  119 1    
    83   41  120 1    
    84   42   43 am   BACKBONE|DICT|INTERRES
    85   42  121 1    
    86   43   44 2    
    87   43   45 1    
    88   45   46 1    
    89   45   47 1    
    90   45  122 1    
    91   46  123 1    
    92   46  124 1    
    93   46  125 1    
    94   47   48 am   BACKBONE|DICT|INTERRES
    95   47  126 1    
    96   48   49 2    
    97   48   50 1    
    98   50   51 1    
    99   50   52 1    
   100   50  127 1    
   101   51  128 1    
   102   51  129 1    
   103   51  130 1    
   104   52   53 am   BACKBONE|DICT|INTERRES
   105   52  131 1    
   106   53   54 2    
   107   53   55 1    
   108   55   56 1    
   109   55   59 1    
   110   55  132 1    
   111   56   57 1    
   112   56  133 1    
   113   56  134 1    
   114   57   58 1    
   115   58  135 1    
   116   58  136 1    
   117   59   60 am   BACKBONE|DICT|INTERRES
   118   59  137 1    
   119   60   61 2    
   120   60   62 1    
   121   62   63 1    
   122   62   64 1    
   123   62  138 1    
   124   63  139 1    
   125   63  140 1    
   126   63  141 1    
   127   64   65 am   BACKBONE|DICT|INTERRES
   128   64  142 1    
   129   65   66 2    
   130   65   67 1    
   131   67   68 1    
   132   67   69 1    
   133   67  143 1    
   134   68  144 1    
   135   68  145 1    
   136   68  146 1    
   137   69   70 am   BACKBONE|DICT|INTERRES
   138   69  147 1    
   139   70   71 2    
   140   70   72 1    
   141   72   73 1    
   142   72   74 1    
   143   72  148 1    
   144   73  149 1    
   145   73  150 1    
   146   73  151 1    
   147   74   75 am   BACKBONE|DICT|INTERRES
   148   74  152 1    
   149   75   76 2    
   150   75   77 1    
   151   77   78 1    
   152   77   79 1    
   153   77  153 1    
   154   78  154 1    
   155   78  155 1    
   156   78  156 1    
   157   79   80 am   BACKBONE|DICT|INTERRES
   158   79  157 1    
   159   80   81 2    
@<TRIPOS>SUBSTRUCTURE
     1 UNK         1 GROUP             0       ****    0 ROOT    
