@<TRIPOS>MOLECULE
3R207
157   159    1
SMALL
USER_CHARGES


@<TRIPOS>ATOM
      1 CA        -51.7524  -28.9648    1.0545 C.3       0 UNK        -0.1975 
      2 C         -50.7788  -29.2149    2.1972 C.2       0 UNK         0.4852 
      3 O         -49.6021  -29.4791    1.9456 O.2       0 UNK        -0.5216 
      4 N         -51.2669  -29.1371    3.4434 N.am      1 UNK        -0.4461 
      5 CA        -50.5055  -29.2937    4.6892 C.3       1 UNK         0.0864 
      6 C6        -49.9135  -30.7303    4.8466 C.3       14 UNK        -0.0898 
      7 S7        -49.4088  -31.2152    6.5374 S.3       14 UNK        -0.2598 
      8 C8        -50.9822  -31.7266    7.3070 C.3       14 UNK         0.0286 
      9 C9        -51.8961  -30.5416    7.5892 C.ar      14 UNK        -0.0844 
     10 C10       -51.4266  -29.4495    8.3279 C.ar      14 UNK        -0.0881 
     11 C11       -52.2424  -28.3371    8.5400 C.ar      14 UNK        -0.0643 
     12 C12       -53.5384  -28.3241    8.0230 C.ar      14 UNK        -0.0930 
     13 C13       -54.0399  -29.4274    7.3245 C.ar      14 UNK        -0.0827 
     14 C14       -53.2073  -30.5290    7.1003 C.ar      14 UNK        -0.1249 
     15 C15       -55.4671  -29.4236    6.7875 C.3       14 UNK         0.0141 
     16 S16       -56.6843  -28.7684    7.9805 S.3       14 UNK        -0.2313 
     17 C17       -56.9809  -30.1876    9.0941 C.3       14 UNK        -0.0915 
     18 CA        -56.1994  -30.1775   10.4438 C.3       13 UNK         0.0968 
     19 C         -54.8849  -31.0127   10.3996 C.2       13 UNK         0.5732 
     20 N         -53.7313  -30.4721   10.7686 N.am      13 UNK        -0.7310 
     21 O         -54.9216  -32.1924   10.0569 O.2       13 UNK        -0.5035 
     22 N         -56.0810  -28.8271   11.0228 N.am      13 UNK        -0.4233 
     23 C         -55.9100  -28.5634   12.3226 C.2       13 UNK         0.4989 
     24 O         -55.8761  -29.4277   13.2040 O.2       13 UNK        -0.4996 
     25 CA        -55.7731  -27.0849   12.7114 C.3       12 UNK         0.0216 
     26 CB        -57.1330  -26.3634   12.6667 C.3       12 UNK        -0.1964 
     27 N         -55.2193  -27.0290   14.0604 N.am      12 UNK        -0.4276 
     28 C         -54.5232  -26.0232   14.5974 C.2       12 UNK         0.5020 
     29 O         -54.3340  -24.9424   14.0347 O.2       12 UNK        -0.5489 
     30 CA        -53.9490  -26.2789   16.0005 C.3       11 UNK         0.0294 
     31 CB        -53.1886  -27.6188   16.0772 C.3       11 UNK        -0.2019 
     32 N         -53.0258  -25.2107   16.3774 N.am      11 UNK        -0.4493 
     33 C         -53.0350  -24.5319   17.5297 C.2       11 UNK         0.4932 
     34 O         -53.8954  -24.6605   18.4030 O.2       11 UNK        -0.5029 
     35 CA        -51.8329  -23.5912   17.7458 C.3       10 UNK         0.0280 
     36 CB        -51.8371  -22.8839   19.1177 C.3       10 UNK        -0.1976 
     37 N         -50.5709  -24.3040   17.5082 N.am      10 UNK        -0.4242 
     38 C         -50.1002  -25.3729   18.1709 C.2       10 UNK         0.5072 
     39 O         -50.5858  -25.8115   19.2146 O.2       10 UNK        -0.5224 
     40 CA        -48.9058  -26.1177   17.5469 C.3       9 UNK         0.0343 
     41 CB        -49.3984  -27.3779   16.8168 C.3       9 UNK        -0.2003 
     42 N         -48.1181  -25.3058   16.6156 N.am      9 UNK        -0.4272 
     43 C         -47.2815  -24.3272   16.9889 C.2       9 UNK         0.4988 
     44 O         -47.0688  -24.0171   18.1617 O.2       9 UNK        -0.5108 
     45 CA        -46.5643  -23.5593   15.8663 C.3       8 UNK         0.0248 
     46 CB        -45.3535  -24.3567   15.3552 C.3       8 UNK        -0.2001 
     47 N         -47.4471  -23.2234   14.7457 N.am      8 UNK        -0.4140 
     48 C         -48.4848  -22.3764   14.8240 C.2       8 UNK         0.5028 
     49 O         -48.7914  -21.7588   15.8440 O.2       8 UNK        -0.5428 
     50 CA        -49.3510  -22.2115   13.5633 C.3       7 UNK         0.0264 
     51 CB        -48.6739  -21.2752   12.5504 C.3       7 UNK        -0.1988 
     52 N         -49.6744  -23.4881   12.9222 N.am      7 UNK        -0.4454 
     53 C         -50.3894  -24.4653   13.5005 C.2       7 UNK         0.5027 
     54 O         -50.8852  -24.3805   14.6239 O.2       7 UNK        -0.5083 
     55 CA        -50.5510  -25.7779   12.7147 C.3       6 UNK         0.0844 
     56 C56       -51.7186  -25.6675   11.7094 C.3       14 UNK        -0.0967 
     57 S57       -52.2263  -27.2968   11.0780 S.3       14 UNK        -0.2604 
     58 C58       -51.7372  -27.1510    9.3374 C.3       14 UNK         0.0134 
     59 N         -49.2931  -26.1835   12.0818 N.am      6 UNK        -0.4116 
     60 C         -48.1792  -26.5194   12.7481 C.2       5 UNK         0.5034 
     61 O         -48.0959  -26.5694   13.9749 O.2       5 UNK        -0.5045 
     62 CA        -46.9284  -26.7814   11.8980 C.3       5 UNK         0.0224 
     63 CB        -46.9733  -28.1842   11.2708 C.3       5 UNK        -0.1978 
     64 N         -46.7599  -25.7662   10.8546 N.am      5 UNK        -0.4737 
     65 C         -46.4507  -24.4845   11.1082 C.2       4 UNK         0.5027 
     66 O         -46.2486  -24.0462   12.2394 O.2       4 UNK        -0.5211 
     67 CA        -46.3903  -23.5133    9.9161 C.3       4 UNK         0.0297 
     68 CB        -44.9681  -23.4693    9.3365 C.3       4 UNK        -0.1993 
     69 N         -47.3403  -23.8297    8.8491 N.am      4 UNK        -0.4486 
     70 C         -48.6715  -23.8986    8.9890 C.2       3 UNK         0.4961 
     71 O         -49.2672  -23.6499   10.0382 O.2       3 UNK        -0.5105 
     72 CA        -49.4689  -24.3791    7.7632 C.3       3 UNK         0.0299 
     73 CB        -49.9505  -23.1777    6.9358 C.3       3 UNK        -0.1972 
     74 N         -48.7486  -25.3174    6.8895 N.am      3 UNK        -0.4305 
     75 C         -48.1876  -26.4734    7.2736 C.2       2 UNK         0.5006 
     76 O         -48.1781  -26.8782    8.4372 O.2       2 UNK        -0.5106 
     77 CA        -47.5325  -27.3215    6.1727 C.3       2 UNK         0.0296 
     78 CB        -46.2501  -28.0087    6.6756 C.3       2 UNK        -0.2002 
     79 N         -48.4713  -28.3406    5.7119 N.am      2 UNK        -0.4032 
     80 C         -49.5166  -28.1206    4.9063 C.2       1 UNK         0.5000 
     81 O         -49.7395  -27.0244    4.3823 O.2       1 UNK        -0.5238 
     82 H82       -51.4253  -28.1091    0.4644 H         1 UNK         0.0889 
     83 H83       -52.7614  -28.7631    1.4138 H         1 UNK         0.0889 
     84 H84       -51.7939  -29.8349    0.3997 H         1 UNK         0.0889 
     85 H85       -52.2367  -28.8831    3.5697 H         1 UNK         0.3028 
     86 H86       -51.2541  -29.1538    5.4652 H         1 UNK         0.0864 
     87 H87       -50.6449  -31.4648    4.5057 H         1 UNK         0.0720 
     88 H88       -49.0502  -30.8558    4.1911 H         1 UNK         0.0720 
     89 H89       -50.7657  -32.2314    8.2493 H         1 UNK         0.0814 
     90 H90       -51.4735  -32.4626    6.6687 H         1 UNK         0.0814 
     91 H91       -50.4199  -29.4576    8.7236 H         1 UNK         0.1469 
     92 H92       -54.1654  -27.4591    8.1885 H         1 UNK         0.1381 
     93 H93       -53.5793  -31.3764    6.5408 H         1 UNK         0.1206 
     94 H94       -55.4919  -28.8010    5.8924 H         1 UNK         0.0813 
     95 H95       -55.7716  -30.4234    6.4744 H         1 UNK         0.0813 
     96 H96       -58.0480  -30.1659    9.3203 H         1 UNK         0.0638 
     97 H97       -56.8342  -31.1199    8.5459 H         1 UNK         0.0638 
     98 H98       -56.8227  -30.7433   11.1394 H         1 UNK         0.0568 
     99 H99       -52.8961  -31.0314   10.7247 H         1 UNK         0.3450 
    100 H100      -53.6705  -29.4960   11.0098 H         1 UNK         0.3450 
    101 H101      -56.0976  -28.0706   10.3545 H         1 UNK         0.2987 
    102 H102      -55.0785  -26.6070   12.0173 H         1 UNK         0.0766 
    103 H103      -57.0336  -25.3131   12.9412 H         1 UNK         0.0798 
    104 H104      -57.8527  -26.8200   13.3473 H         1 UNK         0.0798 
    105 H105      -57.5637  -26.3944   11.6652 H         1 UNK         0.0798 
    106 H106      -55.2999  -27.9083   14.5585 H         1 UNK         0.3198 
    107 H107      -54.7933  -26.3087   16.6924 H         1 UNK         0.0843 
    108 H108      -52.4151  -27.6862   15.3109 H         1 UNK         0.0831 
    109 H109      -53.8564  -28.4707   15.9463 H         1 UNK         0.0831 
    110 H110      -52.7063  -27.7434   17.0472 H         1 UNK         0.0831 
    111 H111      -52.3247  -24.9643   15.6805 H         1 UNK         0.3133 
    112 H112      -51.8976  -22.8202   16.9764 H         1 UNK         0.0566 
    113 H113      -50.9727  -22.2290   19.2270 H         1 UNK         0.0814 
    114 H114      -52.7291  -22.2670   19.2322 H         1 UNK         0.0814 
    115 H115      -51.8274  -23.5935   19.9453 H         1 UNK         0.0814 
    116 H116      -50.1214  -24.0785   16.6287 H         1 UNK         0.3091 
    117 H117      -48.2529  -26.4317   18.3641 H         1 UNK         0.0702 
    118 H118      -49.9751  -28.0200   17.4840 H         1 UNK         0.0785 
    119 H119      -50.0387  -27.1250   15.9709 H         1 UNK         0.0785 
    120 H120      -48.5640  -27.9690   16.4389 H         1 UNK         0.0785 
    121 H121      -48.1889  -25.5470   15.6303 H         1 UNK         0.2998 
    122 H122      -46.1967  -22.6224   16.2900 H         1 UNK         0.0697 
    123 H123      -45.6567  -25.2874   14.8740 H         1 UNK         0.0825 
    124 H124      -44.6799  -24.6146   16.1735 H         1 UNK         0.0825 
    125 H125      -44.7775  -23.7801   14.6311 H         1 UNK         0.0825 
    126 H126      -47.2216  -23.6457   13.8480 H         1 UNK         0.3029 
    127 H127      -50.2941  -21.7534   13.8694 H         1 UNK         0.0897 
    128 H128      -49.2931  -21.1319   11.6644 H         1 UNK         0.0792 
    129 H129      -47.7085  -21.6622   12.2258 H         1 UNK         0.0792 
    130 H130      -48.4988  -20.2915   12.9878 H         1 UNK         0.0792 
    131 H131      -49.3531  -23.6179   11.9657 H         1 UNK         0.3086 
    132 H132      -50.8077  -26.5482   13.4456 H         1 UNK         0.0583 
    133 H133      -52.5962  -25.2254   12.1819 H         1 UNK         0.1020 
    134 H134      -51.4626  -24.9978   10.8866 H         1 UNK         0.1020 
    135 H135      -52.1444  -26.2299    8.9184 H         1 UNK         0.0694 
    136 H136      -50.6519  -27.0799    9.2725 H         1 UNK         0.0694 
    137 H137      -49.2553  -26.1406   11.0741 H         1 UNK         0.2989 
    138 H138      -46.0612  -26.7325   12.5607 H         1 UNK         0.1055 
    139 H139      -47.0207  -28.9524   12.0437 H         1 UNK         0.0806 
    140 H140      -46.0837  -28.3807   10.6722 H         1 UNK         0.0806 
    141 H141      -47.8444  -28.3179   10.6285 H         1 UNK         0.0806 
    142 H142      -46.9830  -26.0457    9.9047 H         1 UNK         0.3061 
    143 H143      -46.6375  -22.5176   10.2881 H         1 UNK         0.0734 
    144 H144      -44.8809  -22.7188    8.5507 H         1 UNK         0.0832 
    145 H145      -44.2415  -23.2118   10.1087 H         1 UNK         0.0832 
    146 H146      -44.6710  -24.4322    8.9188 H         1 UNK         0.0832 
    147 H147      -46.9505  -24.0553    7.9458 H         1 UNK         0.3156 
    148 H148      -50.3490  -24.9003    8.1387 H         1 UNK         0.0589 
    149 H149      -49.1168  -22.6300    6.4944 H         1 UNK         0.0808 
    150 H150      -50.6129  -23.4910    6.1285 H         1 UNK         0.0808 
    151 H151      -50.5099  -22.4755    7.5560 H         1 UNK         0.0808 
    152 H152      -48.7474  -25.0991    5.9022 H         1 UNK         0.3098 
    153 H153      -47.2635  -26.6741    5.3353 H         1 UNK         0.0720 
    154 H154      -45.7602  -28.5647    5.8761 H         1 UNK         0.0791 
    155 H155      -46.4534  -28.7053    7.4903 H         1 UNK         0.0791 
    156 H156      -45.5338  -27.2744    7.0463 H         1 UNK         0.0791 
    157 H157      -48.3950  -29.2563    6.1379 H         1 UNK         0.3028 
@<TRIPOS>BOND
     1    1    2 1    
     2    1   82 1    
     3    1   83 1    
     4    1   84 1    
     5    2    3 2    
     6    2    4 am   BACKBONE|DICT|INTERRES
     7    4    5 1    
     8    4   85 1    
     9    5    6 1    
    10    5   80 1    
    11    5   86 1    
    12    6    7 1    
    13    6   87 1    
    14    6   88 1    
    15    7    8 1    
    16    8    9 1    
    17    8   89 1    
    18    8   90 1    
    19    9   10 ar   
    20    9   14 ar   
    21   10   11 ar   
    22   10   91 1    
    23   11   12 ar   
    24   11   58 1    
    25   12   13 ar   
    26   12   92 1    
    27   13   14 ar   
    28   13   15 1    
    29   14   93 1    
    30   15   16 1    
    31   15   94 1    
    32   15   95 1    
    33   16   17 1    
    34   17   18 1    
    35   17   96 1    
    36   17   97 1    
    37   18   19 1    
    38   18   22 1    
    39   18   98 1    
    40   19   20 am   BACKBONE|DICT|INTERRES
    41   19   21 2    
    42   20   99 1    
    43   20  100 1    
    44   22   23 am   BACKBONE|DICT|INTERRES
    45   22  101 1    
    46   23   24 2    
    47   23   25 1    
    48   25   26 1    
    49   25   27 1    
    50   25  102 1    
    51   26  103 1    
    52   26  104 1    
    53   26  105 1    
    54   27   28 am   BACKBONE|DICT|INTERRES
    55   27  106 1    
    56   28   29 2    
    57   28   30 1    
    58   30   31 1    
    59   30   32 1    
    60   30  107 1    
    61   31  108 1    
    62   31  109 1    
    63   31  110 1    
    64   32   33 am   BACKBONE|DICT|INTERRES
    65   32  111 1    
    66   33   34 2    
    67   33   35 1    
    68   35   36 1    
    69   35   37 1    
    70   35  112 1    
    71   36  113 1    
    72   36  114 1    
    73   36  115 1    
    74   37   38 am   BACKBONE|DICT|INTERRES
    75   37  116 1    
    76   38   39 2    
    77   38   40 1    
    78   40   41 1    
    79   40   42 1    
    80   40  117 1    
    81   41  118 1    
    82   41  119 1    
    83   41  120 1    
    84   42   43 am   BACKBONE|DICT|INTERRES
    85   42  121 1    
    86   43   44 2    
    87   43   45 1    
    88   45   46 1    
    89   45   47 1    
    90   45  122 1    
    91   46  123 1    
    92   46  124 1    
    93   46  125 1    
    94   47   48 am   BACKBONE|DICT|INTERRES
    95   47  126 1    
    96   48   49 2    
    97   48   50 1    
    98   50   51 1    
    99   50   52 1    
   100   50  127 1    
   101   51  128 1    
   102   51  129 1    
   103   51  130 1    
   104   52   53 am   BACKBONE|DICT|INTERRES
   105   52  131 1    
   106   53   54 2    
   107   53   55 1    
   108   55   56 1    
   109   55   59 1    
   110   55  132 1    
   111   56   57 1    
   112   56  133 1    
   113   56  134 1    
   114   57   58 1    
   115   58  135 1    
   116   58  136 1    
   117   59   60 am   BACKBONE|DICT|INTERRES
   118   59  137 1    
   119   60   61 2    
   120   60   62 1    
   121   62   63 1    
   122   62   64 1    
   123   62  138 1    
   124   63  139 1    
   125   63  140 1    
   126   63  141 1    
   127   64   65 am   BACKBONE|DICT|INTERRES
   128   64  142 1    
   129   65   66 2    
   130   65   67 1    
   131   67   68 1    
   132   67   69 1    
   133   67  143 1    
   134   68  144 1    
   135   68  145 1    
   136   68  146 1    
   137   69   70 am   BACKBONE|DICT|INTERRES
   138   69  147 1    
   139   70   71 2    
   140   70   72 1    
   141   72   73 1    
   142   72   74 1    
   143   72  148 1    
   144   73  149 1    
   145   73  150 1    
   146   73  151 1    
   147   74   75 am   BACKBONE|DICT|INTERRES
   148   74  152 1    
   149   75   76 2    
   150   75   77 1    
   151   77   78 1    
   152   77   79 1    
   153   77  153 1    
   154   78  154 1    
   155   78  155 1    
   156   78  156 1    
   157   79   80 am   BACKBONE|DICT|INTERRES
   158   79  157 1    
   159   80   81 2    
@<TRIPOS>SUBSTRUCTURE
     1 UNK         1 GROUP             0       ****    0 ROOT    
