@<TRIPOS>MOLECULE
3R207
157   159    1
SMALL
USER_CHARGES


@<TRIPOS>ATOM
      1 CA        -45.3788  -31.1777    6.1149 C.3       0 UNK        -0.1975 
      2 C         -46.3146  -30.3225    5.2738 C.2       0 UNK         0.4852 
      3 O         -46.1076  -30.1931    4.0669 O.2       0 UNK        -0.5216 
      4 N         -47.3412  -29.7357    5.9042 N.am      1 UNK        -0.4461 
      5 CA        -48.3602  -28.8925    5.2609 C.3       1 UNK         0.0864 
      6 C6        -49.5553  -28.6061    6.2041 C.3       14 UNK        -0.0898 
      7 S7        -50.2795  -30.0822    6.9966 S.3       14 UNK        -0.2598 
      8 C8        -50.6210  -29.4562    8.6774 C.3       14 UNK         0.0286 
      9 C9        -51.8948  -28.6206    8.7412 C.ar      14 UNK        -0.0844 
     10 C10       -51.9333  -27.3364    8.1885 C.ar      14 UNK        -0.0881 
     11 C11       -53.0857  -26.5525    8.2749 C.ar      14 UNK        -0.0643 
     12 C12       -54.2155  -27.0642    8.9174 C.ar      14 UNK        -0.0930 
     13 C13       -54.1932  -28.3454    9.4758 C.ar      14 UNK        -0.0827 
     14 C14       -53.0322  -29.1196    9.3840 C.ar      14 UNK        -0.1249 
     15 C15       -55.4264  -28.8899   10.1755 C.3       14 UNK         0.0141 
     16 S16       -55.5836  -28.2090   11.8540 S.3       14 UNK        -0.2313 
     17 C17       -57.0857  -29.0779   12.4223 C.3       14 UNK        -0.0915 
     18 CA        -56.8206  -30.1635   13.4981 C.3       13 UNK         0.0968 
     19 C         -56.0164  -31.3756   12.9441 C.2       13 UNK         0.5732 
     20 N         -56.6474  -32.2122   12.1308 N.am      13 UNK        -0.7310 
     21 O         -54.8298  -31.5516   13.2162 O.2       13 UNK        -0.5035 
     22 N         -56.2461  -29.5727   14.7129 N.am      13 UNK        -0.4233 
     23 C         -56.1639  -30.1860   15.8998 C.2       13 UNK         0.4989 
     24 O         -56.6126  -31.3113   16.1247 O.2       13 UNK        -0.4996 
     25 CA        -55.4796  -29.4148   17.0423 C.3       12 UNK         0.0216 
     26 CB        -54.0185  -29.8705   17.1873 C.3       12 UNK        -0.1964 
     27 N         -55.5403  -27.9529   16.8948 N.am      12 UNK        -0.4276 
     28 C         -56.6709  -27.2384   17.0253 C.2       12 UNK         0.5020 
     29 O         -57.7674  -27.7539   17.2499 O.2       12 UNK        -0.5489 
     30 CA        -56.5993  -25.7024   16.9220 C.3       11 UNK         0.0294 
     31 CB        -56.9409  -25.0570   18.2765 C.3       11 UNK        -0.2019 
     32 N         -55.3020  -25.1924   16.4794 N.am      11 UNK        -0.4493 
     33 C         -54.9117  -25.0760   15.2041 C.2       11 UNK         0.4932 
     34 O         -55.6089  -25.4016   14.2436 O.2       11 UNK        -0.5029 
     35 CA        -53.4995  -24.5046   14.9567 C.3       10 UNK         0.0280 
     36 CB        -52.8981  -23.7700   16.1761 C.3       10 UNK        -0.1976 
     37 N         -52.5582  -25.5191   14.4733 N.am      10 UNK        -0.4242 
     38 C         -52.3206  -26.7235   15.0144 C.2       10 UNK         0.5072 
     39 O         -52.8879  -27.1520   16.0204 O.2       10 UNK        -0.5224 
     40 CA        -51.2485  -27.5870   14.3320 C.3       9 UNK         0.0343 
     41 CB        -51.7195  -28.0696   12.9484 C.3       9 UNK        -0.2003 
     42 N         -49.9674  -26.8872   14.2126 N.am      9 UNK        -0.4272 
     43 C         -49.1891  -26.5343   15.2476 C.2       9 UNK         0.4988 
     44 O         -49.4382  -26.8113   16.4215 O.2       9 UNK        -0.5108 
     45 CA        -47.9099  -25.7410   14.9269 C.3       8 UNK         0.0248 
     46 CB        -46.7815  -26.6825   14.4763 C.3       8 UNK        -0.2001 
     47 N         -48.1258  -24.6999   13.9197 N.am      8 UNK        -0.4140 
     48 C         -48.8562  -23.5934   14.1220 C.2       8 UNK         0.5028 
     49 O         -49.3495  -23.2880   15.2078 O.2       8 UNK        -0.5428 
     50 CA        -49.0930  -22.6733   12.9108 C.3       7 UNK         0.0264 
     51 CB        -47.9391  -21.6704   12.7541 C.3       7 UNK        -0.1988 
     52 N         -49.2851  -23.4021   11.6542 N.am      7 UNK        -0.4454 
     53 C         -50.2980  -24.2476   11.4107 C.2       7 UNK         0.5027 
     54 O         -51.2019  -24.4807   12.2144 O.2       7 UNK        -0.5083 
     55 CA        -50.2627  -25.0085   10.0692 C.3       6 UNK         0.0844 
     56 C56       -50.7492  -24.1389    8.8824 C.3       14 UNK        -0.0967 
     57 S57       -52.5589  -23.8962    8.8717 S.3       14 UNK        -0.2604 
     58 C58       -53.1092  -25.1542    7.6753 C.3       14 UNK         0.0134 
     59 N         -48.9442  -25.5935    9.8085 N.am      6 UNK        -0.4116 
     60 C         -48.3446  -26.5078   10.5845 C.2       5 UNK         0.5034 
     61 O         -48.8756  -27.0372   11.5585 O.2       5 UNK        -0.5045 
     62 CA        -46.8817  -26.8447   10.2569 C.3       5 UNK         0.0224 
     63 CB        -46.7860  -27.9431    9.1861 C.3       5 UNK        -0.1978 
     64 N         -46.1328  -25.6580    9.8349 N.am      5 UNK        -0.4737 
     65 C         -45.7903  -24.6589   10.6614 C.2       4 UNK         0.5027 
     66 O         -46.0234  -24.6661   11.8689 O.2       4 UNK        -0.5211 
     67 CA        -45.1144  -23.4297   10.0302 C.3       4 UNK         0.0297 
     68 CB        -43.6011  -23.6582    9.8932 C.3       4 UNK        -0.1993 
     69 N         -45.6792  -23.0781    8.7247 N.am      4 UNK        -0.4486 
     70 C         -46.9364  -22.6541    8.5289 C.2       3 UNK         0.4961 
     71 O         -47.7421  -22.4600    9.4382 O.2       3 UNK        -0.5105 
     72 CA        -47.3909  -22.4779    7.0678 C.3       3 UNK         0.0299 
     73 CB        -47.0530  -21.0661    6.5644 C.3       3 UNK        -0.1972 
     74 N         -46.8229  -23.4797    6.1557 N.am      3 UNK        -0.4305 
     75 C         -47.0044  -24.8016    6.2787 C.2       2 UNK         0.5006 
     76 O         -47.6946  -25.3109    7.1672 O.2       2 UNK        -0.5106 
     77 CA        -46.2264  -25.6970    5.2976 C.3       2 UNK         0.0296 
     78 CB        -44.7259  -25.6917    5.6397 C.3       2 UNK        -0.2002 
     79 N         -46.7115  -27.0738    5.3740 N.am      2 UNK        -0.4032 
     80 C         -47.8079  -27.5382    4.7603 C.2       1 UNK         0.5000 
     81 O         -48.4104  -26.9250    3.8766 O.2       1 UNK        -0.5238 
     82 H82       -45.3779  -32.2038    5.7482 H         1 UNK         0.0889 
     83 H83       -45.6720  -31.1932    7.1646 H         1 UNK         0.0889 
     84 H84       -44.3613  -30.7927    6.0530 H         1 UNK         0.0889 
     85 H85       -47.4907  -29.9214    6.8855 H         1 UNK         0.3028 
     86 H86       -48.7338  -29.4334    4.3888 H         1 UNK         0.0864 
     87 H87       -49.2361  -27.9151    6.9854 H         1 UNK         0.0720 
     88 H88       -50.3542  -28.1012    5.6570 H         1 UNK         0.0720 
     89 H89       -49.7777  -28.8710    9.0449 H         1 UNK         0.0814 
     90 H90       -50.7012  -30.3120    9.3494 H         1 UNK         0.0814 
     91 H91       -51.0604  -26.9261    7.7068 H         1 UNK         0.1469 
     92 H92       -55.1099  -26.4610    8.9945 H         1 UNK         0.1381 
     93 H93       -53.0128  -30.1080    9.8226 H         1 UNK         0.1206 
     94 H94       -56.3171  -28.6408    9.5965 H         1 UNK         0.0813 
     95 H95       -55.3844  -29.9790   10.2272 H         1 UNK         0.0813 
     96 H96       -57.7634  -28.3253   12.8284 H         1 UNK         0.0638 
     97 H97       -57.6127  -29.5068   11.5683 H         1 UNK         0.0638 
     98 H98       -57.7947  -30.5597   13.7921 H         1 UNK         0.0568 
     99 H99       -57.6185  -32.0812   11.8950 H         1 UNK         0.3450 
    100 H100      -56.1430  -32.9992   11.7541 H         1 UNK         0.3450 
    101 H101      -55.8281  -28.6606   14.6052 H         1 UNK         0.2987 
    102 H102      -56.0017  -29.6738   17.9661 H         1 UNK         0.0766 
    103 H103      -53.5082  -29.3328   17.9866 H         1 UNK         0.0798 
    104 H104      -53.4551  -29.7195   16.2657 H         1 UNK         0.0798 
    105 H105      -53.9656  -30.9337   17.4255 H         1 UNK         0.0798 
    106 H106      -54.6643  -27.4792   16.6810 H         1 UNK         0.3198 
    107 H107      -57.3612  -25.3959   16.2016 H         1 UNK         0.0843 
    108 H108      -56.2217  -25.3328   19.0488 H         1 UNK         0.0831 
    109 H109      -57.9263  -25.3715   18.6233 H         1 UNK         0.0831 
    110 H110      -56.9589  -23.9693   18.2055 H         1 UNK         0.0831 
    111 H111      -54.6451  -24.9328   17.2014 H         1 UNK         0.3133 
    112 H112      -53.6020  -23.7756   14.1516 H         1 UNK         0.0566 
    113 H113      -51.9712  -23.2661   15.9029 H         1 UNK         0.0814 
    114 H114      -53.5750  -23.0018   16.5525 H         1 UNK         0.0814 
    115 H115      -52.6662  -24.4494   16.9972 H         1 UNK         0.0814 
    116 H116      -52.0406  -25.2593   13.6339 H         1 UNK         0.3091 
    117 H117      -51.0884  -28.4688   14.9559 H         1 UNK         0.0702 
    118 H118      -52.6657  -28.6075   13.0233 H         1 UNK         0.0785 
    119 H119      -50.9961  -28.7497   12.4985 H         1 UNK         0.0785 
    120 H120      -51.8700  -27.2421   12.2539 H         1 UNK         0.0785 
    121 H121      -49.6479  -26.6842   13.2691 H         1 UNK         0.2998 
    122 H122      -47.5863  -25.2492   15.8468 H         1 UNK         0.0697 
    123 H123      -47.0390  -27.2149   13.5610 H         1 UNK         0.0825 
    124 H124      -46.5725  -27.4322   15.2404 H         1 UNK         0.0825 
    125 H125      -45.8558  -26.1355   14.2966 H         1 UNK         0.0825 
    126 H126      -47.6678  -24.8248   13.0223 H         1 UNK         0.3029 
    127 H127      -50.0088  -22.1106   13.1042 H         1 UNK         0.0897 
    128 H128      -48.1311  -20.9681   11.9426 H         1 UNK         0.0792 
    129 H129      -46.9940  -22.1720   12.5451 H         1 UNK         0.0792 
    130 H130      -47.8041  -21.0857   13.6650 H         1 UNK         0.0792 
    131 H131      -48.6121  -23.2181   10.9125 H         1 UNK         0.3086 
    132 H132      -50.9469  -25.8504   10.1818 H         1 UNK         0.0583 
    133 H133      -50.2699  -23.1586    8.8924 H         1 UNK         0.1020 
    134 H134      -50.4530  -24.5906    7.9345 H         1 UNK         0.1020 
    135 H135      -54.1233  -24.9093    7.3558 H         1 UNK         0.0694 
    136 H136      -52.4926  -25.1109    6.7761 H         1 UNK         0.0694 
    137 H137      -48.4410  -25.2539    8.9947 H         1 UNK         0.2989 
    138 H138      -46.4206  -27.2273   11.1701 H         1 UNK         0.1055 
    139 H139      -47.2861  -28.8530    9.5204 H         1 UNK         0.0806 
    140 H140      -45.7483  -28.2039    8.9776 H         1 UNK         0.0806 
    141 H141      -47.2519  -27.6395    8.2509 H         1 UNK         0.0806 
    142 H142      -45.9614  -25.5505    8.8461 H         1 UNK         0.3061 
    143 H143      -45.2725  -22.5836   10.7024 H         1 UNK         0.0734 
    144 H144      -43.0960  -22.7651    9.5248 H         1 UNK         0.0832 
    145 H145      -43.1565  -23.9037   10.8589 H         1 UNK         0.0832 
    146 H146      -43.3732  -24.4794    9.2123 H         1 UNK         0.0832 
    147 H147      -45.0838  -23.1987    7.9187 H         1 UNK         0.3156 
    148 H148      -48.4764  -22.5945    7.0472 H         1 UNK         0.0589 
    149 H149      -45.9765  -20.8937    6.5296 H         1 UNK         0.0808 
    150 H150      -47.4540  -20.8939    5.5654 H         1 UNK         0.0808 
    151 H151      -47.4833  -20.3063    7.2187 H         1 UNK         0.0808 
    152 H152      -46.2432  -23.1341    5.4038 H         1 UNK         0.3098 
    153 H153      -46.3666  -25.3153    4.2841 H         1 UNK         0.0720 
    154 H154      -44.1669  -26.3423    4.9665 H         1 UNK         0.0791 
    155 H155      -44.5391  -26.0303    6.6598 H         1 UNK         0.0791 
    156 H156      -44.2988  -24.6928    5.5430 H         1 UNK         0.0791 
    157 H157      -46.3033  -27.6525    6.0916 H         1 UNK         0.3028 
@<TRIPOS>BOND
     1    1    2 1    
     2    1   82 1    
     3    1   83 1    
     4    1   84 1    
     5    2    3 2    
     6    2    4 am   BACKBONE|DICT|INTERRES
     7    4    5 1    
     8    4   85 1    
     9    5    6 1    
    10    5   80 1    
    11    5   86 1    
    12    6    7 1    
    13    6   87 1    
    14    6   88 1    
    15    7    8 1    
    16    8    9 1    
    17    8   89 1    
    18    8   90 1    
    19    9   10 ar   
    20    9   14 ar   
    21   10   11 ar   
    22   10   91 1    
    23   11   12 ar   
    24   11   58 1    
    25   12   13 ar   
    26   12   92 1    
    27   13   14 ar   
    28   13   15 1    
    29   14   93 1    
    30   15   16 1    
    31   15   94 1    
    32   15   95 1    
    33   16   17 1    
    34   17   18 1    
    35   17   96 1    
    36   17   97 1    
    37   18   19 1    
    38   18   22 1    
    39   18   98 1    
    40   19   20 am   BACKBONE|DICT|INTERRES
    41   19   21 2    
    42   20   99 1    
    43   20  100 1    
    44   22   23 am   BACKBONE|DICT|INTERRES
    45   22  101 1    
    46   23   24 2    
    47   23   25 1    
    48   25   26 1    
    49   25   27 1    
    50   25  102 1    
    51   26  103 1    
    52   26  104 1    
    53   26  105 1    
    54   27   28 am   BACKBONE|DICT|INTERRES
    55   27  106 1    
    56   28   29 2    
    57   28   30 1    
    58   30   31 1    
    59   30   32 1    
    60   30  107 1    
    61   31  108 1    
    62   31  109 1    
    63   31  110 1    
    64   32   33 am   BACKBONE|DICT|INTERRES
    65   32  111 1    
    66   33   34 2    
    67   33   35 1    
    68   35   36 1    
    69   35   37 1    
    70   35  112 1    
    71   36  113 1    
    72   36  114 1    
    73   36  115 1    
    74   37   38 am   BACKBONE|DICT|INTERRES
    75   37  116 1    
    76   38   39 2    
    77   38   40 1    
    78   40   41 1    
    79   40   42 1    
    80   40  117 1    
    81   41  118 1    
    82   41  119 1    
    83   41  120 1    
    84   42   43 am   BACKBONE|DICT|INTERRES
    85   42  121 1    
    86   43   44 2    
    87   43   45 1    
    88   45   46 1    
    89   45   47 1    
    90   45  122 1    
    91   46  123 1    
    92   46  124 1    
    93   46  125 1    
    94   47   48 am   BACKBONE|DICT|INTERRES
    95   47  126 1    
    96   48   49 2    
    97   48   50 1    
    98   50   51 1    
    99   50   52 1    
   100   50  127 1    
   101   51  128 1    
   102   51  129 1    
   103   51  130 1    
   104   52   53 am   BACKBONE|DICT|INTERRES
   105   52  131 1    
   106   53   54 2    
   107   53   55 1    
   108   55   56 1    
   109   55   59 1    
   110   55  132 1    
   111   56   57 1    
   112   56  133 1    
   113   56  134 1    
   114   57   58 1    
   115   58  135 1    
   116   58  136 1    
   117   59   60 am   BACKBONE|DICT|INTERRES
   118   59  137 1    
   119   60   61 2    
   120   60   62 1    
   121   62   63 1    
   122   62   64 1    
   123   62  138 1    
   124   63  139 1    
   125   63  140 1    
   126   63  141 1    
   127   64   65 am   BACKBONE|DICT|INTERRES
   128   64  142 1    
   129   65   66 2    
   130   65   67 1    
   131   67   68 1    
   132   67   69 1    
   133   67  143 1    
   134   68  144 1    
   135   68  145 1    
   136   68  146 1    
   137   69   70 am   BACKBONE|DICT|INTERRES
   138   69  147 1    
   139   70   71 2    
   140   70   72 1    
   141   72   73 1    
   142   72   74 1    
   143   72  148 1    
   144   73  149 1    
   145   73  150 1    
   146   73  151 1    
   147   74   75 am   BACKBONE|DICT|INTERRES
   148   74  152 1    
   149   75   76 2    
   150   75   77 1    
   151   77   78 1    
   152   77   79 1    
   153   77  153 1    
   154   78  154 1    
   155   78  155 1    
   156   78  156 1    
   157   79   80 am   BACKBONE|DICT|INTERRES
   158   79  157 1    
   159   80   81 2    
@<TRIPOS>SUBSTRUCTURE
     1 UNK         1 GROUP             0       ****    0 ROOT    
