@<TRIPOS>MOLECULE
3R207
157   159    1
SMALL
USER_CHARGES


@<TRIPOS>ATOM
      1 CA        -48.8815  -25.7107    3.2127 C.3       0 UNK        -0.1975 
      2 C         -48.7995  -26.1112    4.6775 C.2       0 UNK         0.4852 
      3 O         -47.7256  -26.0221    5.2739 O.2       0 UNK        -0.5216 
      4 N         -49.9303  -26.5255    5.2690 N.am      1 UNK        -0.4461 
      5 CA        -50.0534  -27.0347    6.6462 C.3       1 UNK         0.0864 
      6 C6        -49.4162  -28.4422    6.8119 C.3       14 UNK        -0.0898 
      7 S7        -50.3014  -29.6660    5.7748 S.3       14 UNK        -0.2598 
      8 C8        -50.5718  -31.0999    6.8757 C.3       14 UNK         0.0286 
      9 C9        -51.1194  -30.7253    8.2473 C.ar      14 UNK        -0.0844 
     10 C10       -50.3933  -31.0591    9.3931 C.ar      14 UNK        -0.0881 
     11 C11       -50.8268  -30.6495   10.6575 C.ar      14 UNK        -0.0643 
     12 C12       -52.0284  -29.9435   10.7714 C.ar      14 UNK        -0.0930 
     13 C13       -52.7852  -29.6343    9.6371 C.ar      14 UNK        -0.0827 
     14 C14       -52.3247  -30.0280    8.3765 C.ar      14 UNK        -0.1249 
     15 C15       -54.0758  -28.8369    9.7609 C.3       14 UNK         0.0141 
     16 S16       -55.5396  -29.9076    9.8985 S.3       14 UNK        -0.2313 
     17 C17       -55.6120  -30.2619   11.6881 C.3       14 UNK        -0.0915 
     18 CA        -56.6513  -29.3645   12.4118 C.3       13 UNK         0.0968 
     19 C         -56.9885  -29.9070   13.8227 C.2       13 UNK         0.5732 
     20 N         -58.2254  -30.3392   14.0521 N.am      13 UNK        -0.7310 
     21 O         -56.1246  -29.9784   14.6957 O.2       13 UNK        -0.5035 
     22 N         -56.1907  -27.9727   12.4918 N.am      13 UNK        -0.4233 
     23 C         -56.9992  -26.9076   12.5310 C.2       13 UNK         0.4989 
     24 O         -58.2307  -26.9766   12.5204 O.2       13 UNK        -0.4996 
     25 CA        -56.2960  -25.5380   12.5479 C.3       12 UNK         0.0216 
     26 CB        -57.2720  -24.3536   12.3759 C.3       12 UNK        -0.1964 
     27 N         -55.4413  -25.3459   13.7250 N.am      12 UNK        -0.4276 
     28 C         -55.8106  -25.2847   15.0128 C.2       12 UNK         0.5020 
     29 O         -56.9632  -25.4476   15.4183 O.2       12 UNK        -0.5489 
     30 CA        -54.6757  -24.9620   16.0024 C.3       11 UNK         0.0294 
     31 CB        -55.1594  -24.7422   17.4526 C.3       11 UNK        -0.2019 
     32 N         -53.6004  -25.9554   15.9312 N.am      11 UNK        -0.4493 
     33 C         -53.6470  -27.2470   16.2898 C.2       11 UNK         0.4932 
     34 O         -54.6158  -27.7821   16.8276 O.2       11 UNK        -0.5029 
     35 CA        -52.3979  -28.0997   15.9981 C.3       10 UNK         0.0280 
     36 CB        -52.6237  -28.9582   14.7436 C.3       10 UNK        -0.1976 
     37 N         -51.1716  -27.3151   15.8248 N.am      10 UNK        -0.4242 
     38 C         -50.5126  -26.6922   16.8123 C.2       10 UNK         0.5072 
     39 O         -50.8483  -26.7358   17.9966 O.2       10 UNK        -0.5224 
     40 CA        -49.2785  -25.8658   16.4081 C.3       9 UNK         0.0343 
     41 CB        -48.0551  -26.7748   16.2060 C.3       9 UNK        -0.2003 
     42 N         -49.4961  -25.0621   15.2021 N.am      9 UNK        -0.4272 
     43 C         -50.3643  -24.0429   15.1093 C.2       9 UNK         0.4988 
     44 O         -51.0554  -23.6400   16.0446 O.2       9 UNK        -0.5108 
     45 CA        -50.5211  -23.3883   13.7269 C.3       8 UNK         0.0248 
     46 CB        -49.3516  -22.4375   13.4214 C.3       8 UNK        -0.2001 
     47 N         -50.6442  -24.3891   12.6671 N.am      8 UNK        -0.4140 
     48 C         -51.7093  -25.1865   12.5052 C.2       8 UNK         0.5028 
     49 O         -52.7381  -25.1055   13.1758 O.2       8 UNK        -0.5428 
     50 CA        -51.6034  -26.2896   11.4422 C.3       7 UNK         0.0264 
     51 CB        -52.2017  -25.8181   10.1100 C.3       7 UNK        -0.1988 
     52 N         -50.2328  -26.7757   11.2492 N.am      7 UNK        -0.4454 
     53 C         -49.5570  -27.4601   12.1857 C.2       7 UNK         0.5027 
     54 O         -50.0156  -27.7242   13.2964 O.2       7 UNK        -0.5083 
     55 CA        -48.1123  -27.8648   11.8488 C.3       6 UNK         0.0844 
     56 C56       -48.0639  -29.0735   10.8859 C.3       14 UNK        -0.0967 
     57 S57       -48.2022  -30.6914   11.7246 S.3       14 UNK        -0.2604 
     58 C58       -50.0051  -30.9517   11.9076 C.3       14 UNK         0.0134 
     59 N         -47.3582  -26.7311   11.3189 N.am      6 UNK        -0.4116 
     60 C         -47.0331  -25.6244   11.9970 C.2       5 UNK         0.5034 
     61 O         -47.3940  -25.4107   13.1550 O.2       5 UNK        -0.5045 
     62 CA        -46.2083  -24.5526   11.2593 C.3       5 UNK         0.0224 
     63 CB        -44.9670  -24.1284   12.0700 C.3       5 UNK        -0.1978 
     64 N         -45.8556  -24.8965    9.8715 N.am      5 UNK        -0.4737 
     65 C         -45.0136  -25.8423    9.4223 C.2       4 UNK         0.5027 
     66 O         -44.3614  -26.5791   10.1608 O.2       4 UNK        -0.5211 
     67 CA        -44.9177  -26.0512    7.8953 C.3       4 UNK         0.0297 
     68 CB        -45.4356  -27.4502    7.5199 C.3       4 UNK        -0.1993 
     69 N         -45.6649  -25.0604    7.1171 N.am      4 UNK        -0.4486 
     70 C         -45.3024  -23.7841    6.9297 C.2       3 UNK         0.4961 
     71 O         -44.2232  -23.3145    7.2897 O.2       3 UNK        -0.5105 
     72 CA        -46.3594  -22.8636    6.2948 C.3       3 UNK         0.0299 
     73 CB        -46.2621  -22.8883    4.7609 C.3       3 UNK        -0.1972 
     74 N         -47.7210  -23.2137    6.7203 N.am      3 UNK        -0.4305 
     75 C         -48.1855  -23.0531    7.9695 C.2       2 UNK         0.5006 
     76 O         -47.5307  -22.5400    8.8753 O.2       2 UNK        -0.5106 
     77 CA        -49.5934  -23.5789    8.2874 C.3       2 UNK         0.0296 
     78 CB        -50.6358  -22.4629    8.1134 C.3       2 UNK        -0.2002 
     79 N         -49.9690  -24.7318    7.4672 N.am      2 UNK        -0.4032 
     80 C         -49.5856  -25.9976    7.6959 C.2       1 UNK         0.5000 
     81 O         -48.9157  -26.3400    8.6751 O.2       1 UNK        -0.5238 
     82 H82       -49.8772  -25.8727    2.8003 H         1 UNK         0.0889 
     83 H83       -48.1732  -26.2959    2.6269 H         1 UNK         0.0889 
     84 H84       -48.6314  -24.6567    3.0958 H         1 UNK         0.0889 
     85 H85       -50.7776  -26.5727    4.7196 H         1 UNK         0.3028 
     86 H86       -51.1229  -27.1451    6.8345 H         1 UNK         0.0864 
     87 H87       -48.3639  -28.4324    6.5255 H         1 UNK         0.0720 
     88 H88       -49.4424  -28.7561    7.8537 H         1 UNK         0.0720 
     89 H89       -49.6278  -31.6389    6.9707 H         1 UNK         0.0814 
     90 H90       -51.2670  -31.7879    6.3931 H         1 UNK         0.0814 
     91 H91       -49.4641  -31.6046    9.3003 H         1 UNK         0.1469 
     92 H92       -52.3679  -29.6255   11.7463 H         1 UNK         0.1381 
     93 H93       -52.8923  -29.7733    7.4918 H         1 UNK         0.1206 
     94 H94       -54.1956  -28.2020    8.8817 H         1 UNK         0.0813 
     95 H95       -54.0321  -28.1599   10.6129 H         1 UNK         0.0813 
     96 H96       -54.6243  -30.1656   12.1398 H         1 UNK         0.0638 
     97 H97       -55.8856  -31.3141   11.7868 H         1 UNK         0.0638 
     98 H98       -57.5678  -29.3892   11.8176 H         1 UNK         0.0568 
     99 H99       -58.4516  -30.7089   14.9620 H         1 UNK         0.3450 
    100 H100      -58.9416  -30.2850   13.3408 H         1 UNK         0.3450 
    101 H101      -55.1967  -27.8364   12.5832 H         1 UNK         0.2987 
    102 H102      -55.6275  -25.5275   11.6853 H         1 UNK         0.0766 
    103 H103      -56.7388  -23.4039   12.3334 H         1 UNK         0.0798 
    104 H104      -57.9932  -24.2968   13.1919 H         1 UNK         0.0798 
    105 H105      -57.8393  -24.4481   11.4491 H         1 UNK         0.0798 
    106 H106      -54.4457  -25.2221   13.5244 H         1 UNK         0.3198 
    107 H107      -54.2350  -24.0214   15.6668 H         1 UNK         0.0843 
    108 H108      -55.6683  -25.6186   17.8545 H         1 UNK         0.0831 
    109 H109      -55.8645  -23.9117   17.5020 H         1 UNK         0.0831 
    110 H110      -54.3277  -24.5026   18.1151 H         1 UNK         0.0831 
    111 H111      -52.7619  -25.6383   15.4612 H         1 UNK         0.3133 
    112 H112      -52.2522  -28.7710   16.8470 H         1 UNK         0.0566 
    113 H113      -52.7849  -28.3413   13.8598 H         1 UNK         0.0814 
    114 H114      -51.7713  -29.6092   14.5519 H         1 UNK         0.0814 
    115 H115      -53.4975  -29.5993   14.8611 H         1 UNK         0.0814 
    116 H116      -50.7734  -27.2955   14.8865 H         1 UNK         0.3091 
    117 H117      -49.0578  -25.1789   17.2278 H         1 UNK         0.0702 
    118 H118      -47.1583  -26.1904   15.9990 H         1 UNK         0.0785 
    119 H119      -48.1983  -27.4683   15.3765 H         1 UNK         0.0785 
    120 H120      -47.8572  -27.3687   17.0993 H         1 UNK         0.0785 
    121 H121      -48.9263  -25.2980   14.3948 H         1 UNK         0.2998 
    122 H122      -51.4398  -22.7974   13.7398 H         1 UNK         0.0697 
    123 H123      -48.3925  -22.9550   13.4080 H         1 UNK         0.0825 
    124 H124      -49.2842  -21.6537   14.1770 H         1 UNK         0.0825 
    125 H125      -49.4810  -21.9454   12.4572 H         1 UNK         0.0825 
    126 H126      -49.8347  -24.5480   12.0875 H         1 UNK         0.3029 
    127 H127      -52.1992  -27.1306   11.7985 H         1 UNK         0.0897 
    128 H128      -53.2591  -25.5758   10.2245 H         1 UNK         0.0792 
    129 H129      -52.1272  -26.5889    9.3434 H         1 UNK         0.0792 
    130 H130      -51.7080  -24.9213    9.7412 H         1 UNK         0.0792 
    131 H131      -49.7823  -26.5936   10.3551 H         1 UNK         0.3086 
    132 H132      -47.6241  -28.1483   12.7840 H         1 UNK         0.0583 
    133 H133      -48.7927  -28.9761   10.0819 H         1 UNK         0.1020 
    134 H134      -47.0969  -29.0955   10.3802 H         1 UNK         0.1020 
    135 H135      -50.1780  -31.9897   12.1937 H         1 UNK         0.0694 
    136 H136      -50.3503  -30.3463   12.7456 H         1 UNK         0.0694 
    137 H137      -47.0822  -26.7832   10.3492 H         1 UNK         0.2989 
    138 H138      -46.8609  -23.6810   11.1925 H         1 UNK         0.1055 
    139 H139      -45.2547  -23.7314   13.0444 H         1 UNK         0.0806 
    140 H140      -44.4061  -23.3475   11.5565 H         1 UNK         0.0806 
    141 H141      -44.2917  -24.9649   12.2512 H         1 UNK         0.0806 
    142 H142      -46.3309  -24.3365    9.1741 H         1 UNK         0.3061 
    143 H143      -43.8632  -25.9853    7.6197 H         1 UNK         0.0734 
    144 H144      -45.3590  -27.6288    6.4470 H         1 UNK         0.0832 
    145 H145      -44.8601  -28.2307    8.0195 H         1 UNK         0.0832 
    146 H146      -46.4797  -27.5803    7.8063 H         1 UNK         0.0832 
    147 H147      -46.5341  -25.3769    6.6935 H         1 UNK         0.3156 
    148 H148      -46.1558  -21.8437    6.6285 H         1 UNK         0.0589 
    149 H149      -46.4190  -23.8885    4.3569 H         1 UNK         0.0808 
    150 H150      -46.9933  -22.2211    4.3042 H         1 UNK         0.0808 
    151 H151      -45.2755  -22.5597    4.4316 H         1 UNK         0.0808 
    152 H152      -48.3023  -23.6799    6.0404 H         1 UNK         0.3098 
    153 H153      -49.5942  -23.8807    9.3370 H         1 UNK         0.0720 
    154 H154      -51.6325  -22.7997    8.3986 H         1 UNK         0.0791 
    155 H155      -50.6837  -22.1091    7.0827 H         1 UNK         0.0791 
    156 H156      -50.3949  -21.6039    8.7415 H         1 UNK         0.0791 
    157 H157      -50.5330  -24.5457    6.6501 H         1 UNK         0.3028 
@<TRIPOS>BOND
     1    1    2 1    
     2    1   82 1    
     3    1   83 1    
     4    1   84 1    
     5    2    3 2    
     6    2    4 am   BACKBONE|DICT|INTERRES
     7    4    5 1    
     8    4   85 1    
     9    5    6 1    
    10    5   80 1    
    11    5   86 1    
    12    6    7 1    
    13    6   87 1    
    14    6   88 1    
    15    7    8 1    
    16    8    9 1    
    17    8   89 1    
    18    8   90 1    
    19    9   10 ar   
    20    9   14 ar   
    21   10   11 ar   
    22   10   91 1    
    23   11   12 ar   
    24   11   58 1    
    25   12   13 ar   
    26   12   92 1    
    27   13   14 ar   
    28   13   15 1    
    29   14   93 1    
    30   15   16 1    
    31   15   94 1    
    32   15   95 1    
    33   16   17 1    
    34   17   18 1    
    35   17   96 1    
    36   17   97 1    
    37   18   19 1    
    38   18   22 1    
    39   18   98 1    
    40   19   20 am   BACKBONE|DICT|INTERRES
    41   19   21 2    
    42   20   99 1    
    43   20  100 1    
    44   22   23 am   BACKBONE|DICT|INTERRES
    45   22  101 1    
    46   23   24 2    
    47   23   25 1    
    48   25   26 1    
    49   25   27 1    
    50   25  102 1    
    51   26  103 1    
    52   26  104 1    
    53   26  105 1    
    54   27   28 am   BACKBONE|DICT|INTERRES
    55   27  106 1    
    56   28   29 2    
    57   28   30 1    
    58   30   31 1    
    59   30   32 1    
    60   30  107 1    
    61   31  108 1    
    62   31  109 1    
    63   31  110 1    
    64   32   33 am   BACKBONE|DICT|INTERRES
    65   32  111 1    
    66   33   34 2    
    67   33   35 1    
    68   35   36 1    
    69   35   37 1    
    70   35  112 1    
    71   36  113 1    
    72   36  114 1    
    73   36  115 1    
    74   37   38 am   BACKBONE|DICT|INTERRES
    75   37  116 1    
    76   38   39 2    
    77   38   40 1    
    78   40   41 1    
    79   40   42 1    
    80   40  117 1    
    81   41  118 1    
    82   41  119 1    
    83   41  120 1    
    84   42   43 am   BACKBONE|DICT|INTERRES
    85   42  121 1    
    86   43   44 2    
    87   43   45 1    
    88   45   46 1    
    89   45   47 1    
    90   45  122 1    
    91   46  123 1    
    92   46  124 1    
    93   46  125 1    
    94   47   48 am   BACKBONE|DICT|INTERRES
    95   47  126 1    
    96   48   49 2    
    97   48   50 1    
    98   50   51 1    
    99   50   52 1    
   100   50  127 1    
   101   51  128 1    
   102   51  129 1    
   103   51  130 1    
   104   52   53 am   BACKBONE|DICT|INTERRES
   105   52  131 1    
   106   53   54 2    
   107   53   55 1    
   108   55   56 1    
   109   55   59 1    
   110   55  132 1    
   111   56   57 1    
   112   56  133 1    
   113   56  134 1    
   114   57   58 1    
   115   58  135 1    
   116   58  136 1    
   117   59   60 am   BACKBONE|DICT|INTERRES
   118   59  137 1    
   119   60   61 2    
   120   60   62 1    
   121   62   63 1    
   122   62   64 1    
   123   62  138 1    
   124   63  139 1    
   125   63  140 1    
   126   63  141 1    
   127   64   65 am   BACKBONE|DICT|INTERRES
   128   64  142 1    
   129   65   66 2    
   130   65   67 1    
   131   67   68 1    
   132   67   69 1    
   133   67  143 1    
   134   68  144 1    
   135   68  145 1    
   136   68  146 1    
   137   69   70 am   BACKBONE|DICT|INTERRES
   138   69  147 1    
   139   70   71 2    
   140   70   72 1    
   141   72   73 1    
   142   72   74 1    
   143   72  148 1    
   144   73  149 1    
   145   73  150 1    
   146   73  151 1    
   147   74   75 am   BACKBONE|DICT|INTERRES
   148   74  152 1    
   149   75   76 2    
   150   75   77 1    
   151   77   78 1    
   152   77   79 1    
   153   77  153 1    
   154   78  154 1    
   155   78  155 1    
   156   78  156 1    
   157   79   80 am   BACKBONE|DICT|INTERRES
   158   79  157 1    
   159   80   81 2    
@<TRIPOS>SUBSTRUCTURE
     1 UNK         1 GROUP             0       ****    0 ROOT    
