@<TRIPOS>MOLECULE
3R207
157   159    1
SMALL
USER_CHARGES


@<TRIPOS>ATOM
      1 CA        -44.7106  -28.8382    7.5736 C.3       0 UNK        -0.1975 
      2 C         -45.4076  -28.8881    6.2218 C.2       0 UNK         0.4852 
      3 O         -44.8505  -28.4219    5.2277 O.2       0 UNK        -0.5216 
      4 N         -46.6244  -29.4476    6.1805 N.am      1 UNK        -0.4461 
      5 CA        -47.4819  -29.5513    4.9908 C.3       1 UNK         0.0864 
      6 C6        -48.6551  -30.5402    5.2143 C.3       14 UNK        -0.0898 
      7 S7        -49.5908  -30.2464    6.7561 S.3       14 UNK        -0.2598 
      8 C8        -51.1164  -29.4941    6.1159 C.3       14 UNK         0.0286 
      9 C9        -52.0790  -29.1521    7.2436 C.ar      14 UNK        -0.0844 
     10 C10       -52.3352  -27.8187    7.5810 C.ar      14 UNK        -0.0881 
     11 C11       -53.2472  -27.4999    8.5976 C.ar      14 UNK        -0.0643 
     12 C12       -53.9022  -28.5366    9.2670 C.ar      14 UNK        -0.0930 
     13 C13       -53.6436  -29.8731    8.9520 C.ar      14 UNK        -0.0827 
     14 C14       -52.7348  -30.1744    7.9353 C.ar      14 UNK        -0.1249 
     15 C15       -54.3702  -30.9901    9.6864 C.3       14 UNK         0.0141 
     16 S16       -53.4128  -31.6403   11.0965 S.3       14 UNK        -0.2313 
     17 C17       -53.4525  -30.2451   12.2712 C.3       14 UNK        -0.0915 
     18 CA        -54.8675  -30.0030   12.8805 C.3       13 UNK         0.0968 
     19 C         -54.9756  -30.4665   14.3625 C.2       13 UNK         0.5732 
     20 N         -55.4393  -29.6346   15.2875 N.am      13 UNK        -0.7310 
     21 O         -54.6480  -31.6076   14.6782 O.2       13 UNK        -0.5035 
     22 N         -55.3051  -28.6182   12.6470 N.am      13 UNK        -0.4233 
     23 C         -56.5506  -28.2284   12.3570 C.2       13 UNK         0.4989 
     24 O         -57.5059  -28.9993   12.2533 O.2       13 UNK        -0.4996 
     25 CA        -56.7527  -26.7104   12.1651 C.3       12 UNK         0.0216 
     26 CB        -58.1423  -26.3653   11.5975 C.3       12 UNK        -0.1964 
     27 N         -56.5498  -25.9707   13.4143 N.am      12 UNK        -0.4276 
     28 C         -55.3646  -25.7511   13.9958 C.2       12 UNK         0.5020 
     29 O         -54.2900  -26.1146   13.5067 O.2       12 UNK        -0.5489 
     30 CA        -55.3899  -25.0660   15.3678 C.3       11 UNK         0.0294 
     31 CB        -56.0481  -25.9880   16.4184 C.3       11 UNK        -0.2019 
     32 N         -54.0109  -24.7716   15.7410 N.am      11 UNK        -0.4493 
     33 C         -53.5818  -24.1135   16.8238 C.2       11 UNK         0.4932 
     34 O         -54.3311  -23.5564   17.6280 O.2       11 UNK        -0.5029 
     35 CA        -52.0558  -24.0756   17.0400 C.3       10 UNK         0.0280 
     36 CB        -51.6554  -23.8491   18.5129 C.3       10 UNK        -0.1976 
     37 N         -51.3768  -25.2492   16.4788 N.am      10 UNK        -0.4242 
     38 C         -51.5043  -26.5362   16.8373 C.2       10 UNK         0.5072 
     39 O         -52.1857  -26.9306   17.7844 O.2       10 UNK        -0.5224 
     40 CA        -50.7518  -27.5674   15.9754 C.3       9 UNK         0.0343 
     41 CB        -51.6706  -28.1119   14.8695 C.3       9 UNK        -0.2003 
     42 N         -49.5329  -27.0277   15.3659 N.am      9 UNK        -0.4272 
     43 C         -48.4245  -26.7045   16.0484 C.2       9 UNK         0.4988 
     44 O         -48.2736  -26.9163   17.2523 O.2       9 UNK        -0.5108 
     45 CA        -47.3029  -26.0041   15.2629 C.3       8 UNK         0.0248 
     46 CB        -46.4555  -27.0302   14.4940 C.3       8 UNK        -0.2001 
     47 N         -47.8046  -24.9750   14.3457 N.am      8 UNK        -0.4140 
     48 C         -48.4236  -23.8493   14.7353 C.2       8 UNK         0.5028 
     49 O         -48.5899  -23.5312   15.9126 O.2       8 UNK        -0.5428 
     50 CA        -48.9775  -22.9290   13.6349 C.3       7 UNK         0.0264 
     51 CB        -47.8673  -22.0334   13.0629 C.3       7 UNK        -0.1988 
     52 N         -49.6287  -23.6600   12.5471 N.am      7 UNK        -0.4454 
     53 C         -50.7401  -24.4024   12.6710 C.2       7 UNK         0.5027 
     54 O         -51.3708  -24.5190   13.7206 O.2       7 UNK        -0.5083 
     55 CA        -51.1895  -25.1766   11.4147 C.3       6 UNK         0.0844 
     56 C56       -51.9737  -24.2411   10.4559 C.3       14 UNK        -0.0967 
     57 S57       -52.2022  -24.8935    8.7664 S.3       14 UNK        -0.2604 
     58 C58       -53.5923  -26.0550    8.9590 C.3       14 UNK         0.0134 
     59 N         -50.0489  -25.8424   10.7800 N.am      6 UNK        -0.4116 
     60 C         -49.2984  -26.7947   11.3516 C.2       5 UNK         0.5034 
     61 O         -49.5038  -27.2590   12.4727 O.2       5 UNK        -0.5045 
     62 CA        -48.0732  -27.2647   10.5577 C.3       5 UNK         0.0224 
     63 CB        -48.4716  -28.3396    9.5367 C.3       5 UNK        -0.1978 
     64 N         -47.4086  -26.1464    9.8828 N.am      5 UNK        -0.4737 
     65 C         -46.6909  -25.2122   10.5246 C.2       4 UNK         0.5027 
     66 O         -46.4824  -25.2319   11.7366 O.2       4 UNK        -0.5211 
     67 CA        -46.1460  -24.0377    9.6918 C.3       4 UNK         0.0297 
     68 CB        -44.7763  -24.3967    9.0950 C.3       4 UNK        -0.1993 
     69 N         -47.0487  -23.6154    8.6190 N.am      4 UNK        -0.4486 
     70 C         -48.2939  -23.1529    8.7994 C.2       3 UNK         0.4961 
     71 O         -48.7947  -22.9567    9.9063 O.2       3 UNK        -0.5105 
     72 CA        -49.1428  -22.9098    7.5370 C.3       3 UNK         0.0299 
     73 CB        -49.0413  -21.4379    7.1076 C.3       3 UNK        -0.1972 
     74 N         -48.8267  -23.7735    6.3892 N.am      3 UNK        -0.4305 
     75 C         -48.7478  -25.1131    6.3964 C.2       2 UNK         0.5006 
     76 O         -48.8928  -25.8033    7.4089 O.2       2 UNK        -0.5106 
     77 CA        -48.4020  -25.7932    5.0630 C.3       2 UNK         0.0296 
     78 CB        -47.2359  -25.0912    4.3309 C.3       2 UNK        -0.2002 
     79 N         -48.0531  -27.1827    5.3420 N.am      2 UNK        -0.4032 
     80 C         -47.9754  -28.1855    4.4602 C.2       1 UNK         0.5000 
     81 O         -48.2580  -28.0688    3.2660 O.2       1 UNK        -0.5238 
     82 H82       -45.2455  -29.4114    8.3305 H         1 UNK         0.0889 
     83 H83       -44.6336  -27.8075    7.9182 H         1 UNK         0.0889 
     84 H84       -43.7037  -29.2468    7.4922 H         1 UNK         0.0889 
     85 H85       -47.0297  -29.8296    7.0237 H         1 UNK         0.3028 
     86 H86       -46.8608  -29.9669    4.1941 H         1 UNK         0.0864 
     87 H87       -49.3321  -30.5504    4.3576 H         1 UNK         0.0720 
     88 H88       -48.2554  -31.5536    5.2737 H         1 UNK         0.0720 
     89 H89       -51.6011  -30.1858    5.4253 H         1 UNK         0.0814 
     90 H90       -50.8656  -28.6023    5.5396 H         1 UNK         0.0814 
     91 H91       -51.8305  -27.0299    7.0405 H         1 UNK         0.1469 
     92 H92       -54.6226  -28.3025   10.0359 H         1 UNK         0.1381 
     93 H93       -52.5368  -31.2066    7.6795 H         1 UNK         0.1206 
     94 H94       -54.5670  -31.8107    8.9948 H         1 UNK         0.0813 
     95 H95       -55.3488  -30.6477   10.0253 H         1 UNK         0.0813 
     96 H96       -53.0738  -29.3589   11.7610 H         1 UNK         0.0638 
     97 H97       -52.7097  -30.4482   13.0447 H         1 UNK         0.0638 
     98 H98       -55.5775  -30.6504   12.3642 H         1 UNK         0.0568 
     99 H99       -55.7358  -28.7078   15.0354 H         1 UNK         0.3450 
    100 H100      -55.5118  -29.9516   16.2411 H         1 UNK         0.3450 
    101 H101      -54.6163  -27.8887   12.8129 H         1 UNK         0.2987 
    102 H102      -56.0093  -26.3739   11.4393 H         1 UNK         0.0766 
    103 H103      -58.9431  -26.6531   12.2800 H         1 UNK         0.0798 
    104 H104      -58.2365  -25.2971   11.4010 H         1 UNK         0.0798 
    105 H105      -58.3175  -26.8823   10.6530 H         1 UNK         0.0798 
    106 H106      -57.3858  -25.6633   13.8912 H         1 UNK         0.3198 
    107 H107      -55.9444  -24.1295   15.2835 H         1 UNK         0.0843 
    108 H108      -57.0530  -26.2896   16.1213 H         1 UNK         0.0831 
    109 H109      -56.1465  -25.4912   17.3833 H         1 UNK         0.0831 
    110 H110      -55.4642  -26.8959   16.5750 H         1 UNK         0.0831 
    111 H111      -53.3306  -25.1430   15.0833 H         1 UNK         0.3133 
    112 H112      -51.6915  -23.2225   16.4659 H         1 UNK         0.0566 
    113 H113      -50.5715  -23.8276   18.6276 H         1 UNK         0.0814 
    114 H114      -52.0385  -22.8964   18.8800 H         1 UNK         0.0814 
    115 H115      -52.0480  -24.6297   19.1650 H         1 UNK         0.0814 
    116 H116      -50.8588  -25.0614   15.6271 H         1 UNK         0.3091 
    117 H117      -50.4693  -28.3982   16.6252 H         1 UNK         0.0702 
    118 H118      -51.1845  -28.9127   14.3124 H         1 UNK         0.0785 
    119 H119      -51.9480  -27.3338   14.1574 H         1 UNK         0.0785 
    120 H120      -52.5928  -28.5167   15.2882 H         1 UNK         0.0785 
    121 H121      -49.5472  -26.8933   14.3576 H         1 UNK         0.2998 
    122 H122      -46.6536  -25.5085   15.9878 H         1 UNK         0.0697 
    123 H123      -47.0379  -27.5440   13.7292 H         1 UNK         0.0825 
    124 H124      -46.0578  -27.7909   15.1671 H         1 UNK         0.0825 
    125 H125      -45.6051  -26.5551   14.0047 H         1 UNK         0.0825 
    126 H126      -47.6325  -25.1242   13.3556 H         1 UNK         0.3029 
    127 H127      -49.7310  -22.2852   14.0937 H         1 UNK         0.0897 
    128 H128      -48.2631  -21.3309   12.3290 H         1 UNK         0.0792 
    129 H129      -47.3935  -21.4473   13.8515 H         1 UNK         0.0792 
    130 H130      -47.0865  -22.6187   12.5768 H         1 UNK         0.0792 
    131 H131      -49.2114  -23.5666   11.6226 H         1 UNK         0.3086 
    132 H132      -51.8715  -25.9650   11.7412 H         1 UNK         0.0583 
    133 H133      -52.9486  -23.9977   10.8830 H         1 UNK         0.1020 
    134 H134      -51.4581  -23.2852   10.3430 H         1 UNK         0.1020 
    135 H135      -53.9629  -26.0050    9.9839 H         1 UNK         0.0694 
    136 H136      -54.4108  -25.7244    8.3188 H         1 UNK         0.0694 
    137 H137      -49.8139  -25.5335    9.8465 H         1 UNK         0.2989 
    138 H138      -47.3670  -27.7100   11.2620 H         1 UNK         0.1055 
    139 H139      -48.8976  -29.2107   10.0364 H         1 UNK         0.0806 
    140 H140      -47.6112  -28.6828    8.9649 H         1 UNK         0.0806 
    141 H141      -49.2230  -27.9770    8.8343 H         1 UNK         0.0806 
    142 H142      -47.6331  -26.0095    8.9020 H         1 UNK         0.3061 
    143 H143      -46.0145  -23.1891   10.3662 H         1 UNK         0.0734 
    144 H144      -44.0796  -24.7036    9.8766 H         1 UNK         0.0832 
    145 H145      -44.8476  -25.2187    8.3816 H         1 UNK         0.0832 
    146 H146      -44.3296  -23.5441    8.5832 H         1 UNK         0.0832 
    147 H147      -46.7225  -23.7379    7.6721 H         1 UNK         0.3156 
    148 H148      -50.1802  -23.1056    7.8069 H         1 UNK         0.0589 
    149 H149      -48.0336  -21.1811    6.7785 H         1 UNK         0.0808 
    150 H150      -49.7302  -21.2120    6.2934 H         1 UNK         0.0808 
    151 H151      -49.2936  -20.7719    7.9343 H         1 UNK         0.0808 
    152 H152      -48.6829  -23.2994    5.5094 H         1 UNK         0.3098 
    153 H153      -49.2962  -25.7734    4.4371 H         1 UNK         0.0720 
    154 H154      -46.9681  -25.6141    3.4128 H         1 UNK         0.0791 
    155 H155      -46.3415  -25.0443    4.9538 H         1 UNK         0.0791 
    156 H156      -47.4933  -24.0721    4.0414 H         1 UNK         0.0791 
    157 H157      -47.8991  -27.3791    6.3227 H         1 UNK         0.3028 
@<TRIPOS>BOND
     1    1    2 1    
     2    1   82 1    
     3    1   83 1    
     4    1   84 1    
     5    2    3 2    
     6    2    4 am   BACKBONE|DICT|INTERRES
     7    4    5 1    
     8    4   85 1    
     9    5    6 1    
    10    5   80 1    
    11    5   86 1    
    12    6    7 1    
    13    6   87 1    
    14    6   88 1    
    15    7    8 1    
    16    8    9 1    
    17    8   89 1    
    18    8   90 1    
    19    9   10 ar   
    20    9   14 ar   
    21   10   11 ar   
    22   10   91 1    
    23   11   12 ar   
    24   11   58 1    
    25   12   13 ar   
    26   12   92 1    
    27   13   14 ar   
    28   13   15 1    
    29   14   93 1    
    30   15   16 1    
    31   15   94 1    
    32   15   95 1    
    33   16   17 1    
    34   17   18 1    
    35   17   96 1    
    36   17   97 1    
    37   18   19 1    
    38   18   22 1    
    39   18   98 1    
    40   19   20 am   BACKBONE|DICT|INTERRES
    41   19   21 2    
    42   20   99 1    
    43   20  100 1    
    44   22   23 am   BACKBONE|DICT|INTERRES
    45   22  101 1    
    46   23   24 2    
    47   23   25 1    
    48   25   26 1    
    49   25   27 1    
    50   25  102 1    
    51   26  103 1    
    52   26  104 1    
    53   26  105 1    
    54   27   28 am   BACKBONE|DICT|INTERRES
    55   27  106 1    
    56   28   29 2    
    57   28   30 1    
    58   30   31 1    
    59   30   32 1    
    60   30  107 1    
    61   31  108 1    
    62   31  109 1    
    63   31  110 1    
    64   32   33 am   BACKBONE|DICT|INTERRES
    65   32  111 1    
    66   33   34 2    
    67   33   35 1    
    68   35   36 1    
    69   35   37 1    
    70   35  112 1    
    71   36  113 1    
    72   36  114 1    
    73   36  115 1    
    74   37   38 am   BACKBONE|DICT|INTERRES
    75   37  116 1    
    76   38   39 2    
    77   38   40 1    
    78   40   41 1    
    79   40   42 1    
    80   40  117 1    
    81   41  118 1    
    82   41  119 1    
    83   41  120 1    
    84   42   43 am   BACKBONE|DICT|INTERRES
    85   42  121 1    
    86   43   44 2    
    87   43   45 1    
    88   45   46 1    
    89   45   47 1    
    90   45  122 1    
    91   46  123 1    
    92   46  124 1    
    93   46  125 1    
    94   47   48 am   BACKBONE|DICT|INTERRES
    95   47  126 1    
    96   48   49 2    
    97   48   50 1    
    98   50   51 1    
    99   50   52 1    
   100   50  127 1    
   101   51  128 1    
   102   51  129 1    
   103   51  130 1    
   104   52   53 am   BACKBONE|DICT|INTERRES
   105   52  131 1    
   106   53   54 2    
   107   53   55 1    
   108   55   56 1    
   109   55   59 1    
   110   55  132 1    
   111   56   57 1    
   112   56  133 1    
   113   56  134 1    
   114   57   58 1    
   115   58  135 1    
   116   58  136 1    
   117   59   60 am   BACKBONE|DICT|INTERRES
   118   59  137 1    
   119   60   61 2    
   120   60   62 1    
   121   62   63 1    
   122   62   64 1    
   123   62  138 1    
   124   63  139 1    
   125   63  140 1    
   126   63  141 1    
   127   64   65 am   BACKBONE|DICT|INTERRES
   128   64  142 1    
   129   65   66 2    
   130   65   67 1    
   131   67   68 1    
   132   67   69 1    
   133   67  143 1    
   134   68  144 1    
   135   68  145 1    
   136   68  146 1    
   137   69   70 am   BACKBONE|DICT|INTERRES
   138   69  147 1    
   139   70   71 2    
   140   70   72 1    
   141   72   73 1    
   142   72   74 1    
   143   72  148 1    
   144   73  149 1    
   145   73  150 1    
   146   73  151 1    
   147   74   75 am   BACKBONE|DICT|INTERRES
   148   74  152 1    
   149   75   76 2    
   150   75   77 1    
   151   77   78 1    
   152   77   79 1    
   153   77  153 1    
   154   78  154 1    
   155   78  155 1    
   156   78  156 1    
   157   79   80 am   BACKBONE|DICT|INTERRES
   158   79  157 1    
   159   80   81 2    
@<TRIPOS>SUBSTRUCTURE
     1 UNK         1 GROUP             0       ****    0 ROOT    
