@<TRIPOS>MOLECULE
3R207
157   159    1
SMALL
USER_CHARGES


@<TRIPOS>ATOM
      1 CA        -49.3018  -29.4933    9.7131 C.3       0 UNK        -0.1975 
      2 C         -48.8668  -29.5971    8.2602 C.2       0 UNK         0.4852 
      3 O         -47.7399  -30.0044    7.9790 O.2       0 UNK        -0.5216 
      4 N         -49.7618  -29.2326    7.3356 N.am      1 UNK        -0.4461 
      5 CA        -49.5693  -29.3603    5.8835 C.3       1 UNK         0.0864 
      6 C6        -50.9203  -29.5758    5.1574 C.3       14 UNK        -0.0898 
      7 S7        -51.7819  -31.0685    5.7622 S.3       14 UNK        -0.2598 
      8 C8        -53.3295  -30.3860    6.4370 C.3       14 UNK         0.0286 
      9 C9        -53.1215  -29.5465    7.6922 C.ar      14 UNK        -0.0844 
     10 C10       -53.2512  -28.1554    7.6367 C.ar      14 UNK        -0.0881 
     11 C11       -53.1489  -27.3780    8.7938 C.ar      14 UNK        -0.0643 
     12 C12       -52.9141  -28.0179   10.0170 C.ar      14 UNK        -0.0930 
     13 C13       -52.7908  -29.4067   10.0969 C.ar      14 UNK        -0.0827 
     14 C14       -52.8722  -30.1645    8.9218 C.ar      14 UNK        -0.1249 
     15 C15       -52.5725  -30.0355   11.4741 C.3       14 UNK         0.0141 
     16 S16       -53.2619  -31.7095   11.7067 S.3       14 UNK        -0.2313 
     17 C17       -55.0287  -31.5340   11.2625 C.3       14 UNK        -0.0915 
     18 CA        -55.9258  -30.7035   12.2265 C.3       13 UNK         0.0968 
     19 C         -55.8832  -31.1327   13.7213 C.2       13 UNK         0.5732 
     20 N         -55.9304  -30.2124   14.6807 N.am      13 UNK        -0.7310 
     21 O         -55.8402  -32.3230   14.0234 O.2       13 UNK        -0.5035 
     22 N         -55.7780  -29.2572   12.0368 N.am      13 UNK        -0.4233 
     23 C         -56.3531  -28.5319   11.0764 C.2       13 UNK         0.4989 
     24 O         -57.0120  -29.0239   10.1588 O.2       13 UNK        -0.4996 
     25 CA        -56.1921  -26.9967   11.1298 C.3       12 UNK         0.0216 
     26 CB        -57.5649  -26.3160   11.3055 C.3       12 UNK        -0.1964 
     27 N         -55.2309  -26.4409   12.1027 N.am      12 UNK        -0.4276 
     28 C         -55.2531  -26.5331   13.4402 C.2       12 UNK         0.5020 
     29 O         -56.0024  -27.2931   14.0633 O.2       12 UNK        -0.5489 
     30 CA        -54.2888  -25.6177   14.2127 C.3       11 UNK         0.0294 
     31 CB        -54.5626  -24.1357   13.8728 C.3       11 UNK        -0.2019 
     32 N         -54.5153  -25.8647   15.6361 N.am      11 UNK        -0.4493 
     33 C         -53.7481  -25.6017   16.7014 C.2       11 UNK         0.4932 
     34 O         -54.1377  -25.8735   17.8371 O.2       11 UNK        -0.5029 
     35 CA        -52.3505  -24.9680   16.5138 C.3       10 UNK         0.0280 
     36 CB        -51.7609  -24.4400   17.8396 C.3       10 UNK        -0.1976 
     37 N         -51.3920  -25.8662   15.8649 N.am      10 UNK        -0.4242 
     38 C         -51.0023  -27.0884   16.2580 C.2       10 UNK         0.5072 
     39 O         -51.4545  -27.6930   17.2310 O.2       10 UNK        -0.5224 
     40 CA        -49.8764  -27.7364   15.4340 C.3       9 UNK         0.0343 
     41 CB        -50.4405  -28.3931   14.1617 C.3       9 UNK        -0.2003 
     42 N         -48.8172  -26.7853   15.0791 N.am      9 UNK        -0.4272 
     43 C         -48.0115  -26.1666   15.9570 C.2       9 UNK         0.4988 
     44 O         -48.0190  -26.3872   17.1687 O.2       9 UNK        -0.5108 
     45 CA        -47.0343  -25.1170   15.3963 C.3       8 UNK         0.0248 
     46 CB        -45.7756  -25.7889   14.8246 C.3       8 UNK        -0.2001 
     47 N         -47.6470  -24.2547   14.3821 N.am      8 UNK        -0.4140 
     48 C         -48.6035  -23.3490   14.6370 C.2       8 UNK         0.5028 
     49 O         -49.0078  -23.0796   15.7680 O.2       8 UNK        -0.5428 
     50 CA        -49.2401  -22.6363   13.4299 C.3       7 UNK         0.0264 
     51 CB        -48.4170  -21.4038   13.0231 C.3       7 UNK        -0.1988 
     52 N         -49.4247  -23.5131   12.2704 N.am      7 UNK        -0.4454 
     53 C         -50.2154  -24.5977   12.2602 C.2       7 UNK         0.5027 
     54 O         -50.9025  -24.9511   13.2189 O.2       7 UNK        -0.5083 
     55 CA        -50.1867  -25.4696   10.9892 C.3       6 UNK         0.0844 
     56 C56       -51.0135  -24.8459    9.8383 C.3       14 UNK        -0.0967 
     57 S57       -52.8158  -24.8772   10.1146 S.3       14 UNK        -0.2604 
     58 C58       -53.3708  -25.8676    8.6818 C.3       14 UNK         0.0134 
     59 N         -48.8119  -25.7343   10.5632 N.am      6 UNK        -0.4116 
     60 C         -47.8701  -26.3734   11.2683 C.2       5 UNK         0.5034 
     61 O         -48.0788  -26.9205   12.3481 O.2       5 UNK        -0.5045 
     62 CA        -46.4405  -26.3460   10.7012 C.3       5 UNK         0.0224 
     63 CB        -46.2068  -27.4716    9.6851 C.3       5 UNK        -0.1978 
     64 N         -46.1204  -25.0616   10.0783 N.am      5 UNK        -0.4737 
     65 C         -45.9193  -23.9259   10.7580 C.2       4 UNK         0.5027 
     66 O         -45.9603  -23.8498   11.9852 O.2       4 UNK        -0.5211 
     67 CA        -45.6618  -22.6613    9.9225 C.3       4 UNK         0.0297 
     68 CB        -44.1741  -22.5521    9.5533 C.3       4 UNK        -0.1993 
     69 N         -46.4779  -22.6111    8.7051 N.am      4 UNK        -0.4486 
     70 C         -47.8100  -22.4660    8.7031 C.2       3 UNK         0.4961 
     71 O         -48.4880  -22.3543    9.7252 O.2       3 UNK        -0.5105 
     72 CA        -48.5079  -22.4972    7.3309 C.3       3 UNK         0.0299 
     73 CB        -48.3389  -21.1525    6.6056 C.3       3 UNK        -0.1972 
     74 N         -48.0800  -23.5951    6.4506 N.am      3 UNK        -0.4305 
     75 C         -48.1342  -24.8937    6.7746 C.2       2 UNK         0.5006 
     76 O         -48.4348  -25.3053    7.8955 O.2       2 UNK        -0.5106 
     77 CA        -47.7907  -25.9183    5.6907 C.3       2 UNK         0.0296 
     78 CB        -46.2702  -26.1440    5.6084 C.3       2 UNK        -0.2002 
     79 N         -48.4680  -27.1583    6.0602 N.am      2 UNK        -0.4032 
     80 C         -48.7798  -28.1838    5.2615 C.2       1 UNK         0.5000 
     81 O         -48.4760  -28.2256    4.0675 O.2       1 UNK        -0.5238 
     82 H82       -48.4435  -29.4132   10.3777 H         1 UNK         0.0889 
     83 H83       -49.8570  -30.3881    9.9912 H         1 UNK         0.0889 
     84 H84       -49.9365  -28.6225    9.8752 H         1 UNK         0.0889 
     85 H85       -50.6898  -28.9546    7.6274 H         1 UNK         0.3028 
     86 H86       -48.9613  -30.2495    5.7012 H         1 UNK         0.0864 
     87 H87       -50.7631  -29.7055    4.0848 H         1 UNK         0.0720 
     88 H88       -51.5624  -28.7004    5.2651 H         1 UNK         0.0720 
     89 H89       -53.9983  -31.2146    6.6745 H         1 UNK         0.0814 
     90 H90       -53.8351  -29.8083    5.6616 H         1 UNK         0.0814 
     91 H91       -53.4649  -27.6755    6.6910 H         1 UNK         0.1469 
     92 H92       -52.8509  -27.4436   10.9283 H         1 UNK         0.1381 
     93 H93       -52.7767  -31.2406    8.9626 H         1 UNK         0.1206 
     94 H94       -52.9921  -29.3944   12.2500 H         1 UNK         0.0813 
     95 H95       -51.5021  -30.0779   11.6730 H         1 UNK         0.0813 
     96 H96       -55.4298  -32.5467   11.2006 H         1 UNK         0.0638 
     97 H97       -55.1049  -31.1433   10.2477 H         1 UNK         0.0638 
     98 H98       -56.9554  -30.9344   11.9471 H         1 UNK         0.0568 
     99 H99       -55.9121  -30.5182   15.6404 H         1 UNK         0.3450 
    100 H100      -56.0469  -29.2261   14.4760 H         1 UNK         0.3450 
    101 H101      -55.3393  -28.7564   12.7973 H         1 UNK         0.2987 
    102 H102      -55.8148  -26.7140   10.1476 H         1 UNK         0.0766 
    103 H103      -58.2624  -26.6269   10.5265 H         1 UNK         0.0798 
    104 H104      -57.4802  -25.2309   11.2457 H         1 UNK         0.0798 
    105 H105      -58.0193  -26.5647   12.2652 H         1 UNK         0.0798 
    106 H106      -54.5434  -25.8199   11.6944 H         1 UNK         0.3198 
    107 H107      -53.2697  -25.8927   13.9411 H         1 UNK         0.0843 
    108 H108      -53.9805  -23.4452   14.4783 H         1 UNK         0.0831 
    109 H109      -55.6140  -23.8820   14.0153 H         1 UNK         0.0831 
    110 H110      -54.3143  -23.9169   12.8337 H         1 UNK         0.0831 
    111 H111      -55.3825  -26.3684   15.7850 H         1 UNK         0.3133 
    112 H112      -52.4516  -24.1078   15.8564 H         1 UNK         0.0566 
    113 H113      -50.8048  -23.9427   17.6761 H         1 UNK         0.0814 
    114 H114      -51.5990  -25.2408   18.5620 H         1 UNK         0.0814 
    115 H115      -52.4296  -23.7132   18.3021 H         1 UNK         0.0814 
    116 H116      -51.0005  -25.5113   14.9943 H         1 UNK         0.3091 
    117 H117      -49.4240  -28.5187   16.0470 H         1 UNK         0.0702 
    118 H118      -51.2123  -29.1230   14.4094 H         1 UNK         0.0785 
    119 H119      -50.8872  -27.6604   13.4896 H         1 UNK         0.0785 
    120 H120      -49.6617  -28.9195   13.6095 H         1 UNK         0.0785 
    121 H121      -48.6783  -26.6120   14.0864 H         1 UNK         0.2998 
    122 H122      -46.7233  -24.4792   16.2265 H         1 UNK         0.0697 
    123 H123      -46.0120  -26.4592   13.9989 H         1 UNK         0.0825 
    124 H124      -45.2708  -26.3814   15.5888 H         1 UNK         0.0825 
    125 H125      -45.0607  -25.0499   14.4619 H         1 UNK         0.0825 
    126 H126      -47.3034  -24.3445   13.4313 H         1 UNK         0.3029 
    127 H127      -50.2301  -22.2948   13.7401 H         1 UNK         0.0897 
    128 H128      -47.4171  -21.6776   12.6864 H         1 UNK         0.0792 
    129 H129      -48.3021  -20.7173   13.8630 H         1 UNK         0.0792 
    130 H130      -48.9011  -20.8524   12.2167 H         1 UNK         0.0792 
    131 H131      -48.9291  -23.2572   11.4202 H         1 UNK         0.3086 
    132 H132      -50.6241  -26.4369   11.2421 H         1 UNK         0.0583 
    133 H133      -50.7094  -23.8161    9.6453 H         1 UNK         0.1020 
    134 H134      -50.8053  -25.3868    8.9149 H         1 UNK         0.1020 
    135 H135      -54.4369  -25.6892    8.5397 H         1 UNK         0.0694 
    136 H136      -52.8834  -25.4877    7.7824 H         1 UNK         0.0694 
    137 H137      -48.5575  -25.3798    9.6425 H         1 UNK         0.2989 
    138 H138      -45.7528  -26.4984   11.5360 H         1 UNK         0.1055 
    139 H139      -46.8872  -27.4013    8.8367 H         1 UNK         0.0806 
    140 H140      -45.1885  -27.4498    9.2969 H         1 UNK         0.0806 
    141 H141      -46.3479  -28.4489   10.1465 H         1 UNK         0.0806 
    142 H142      -46.1179  -25.0267    9.0696 H         1 UNK         0.3061 
    143 H143      -45.9232  -21.7993   10.5403 H         1 UNK         0.0734 
    144 H144      -43.8514  -23.3761    8.9157 H         1 UNK         0.0832 
    145 H145      -43.9619  -21.6190    9.0312 H         1 UNK         0.0832 
    146 H146      -43.5498  -22.5694   10.4479 H         1 UNK         0.0832 
    147 H147      -46.0000  -22.7026    7.8203 H         1 UNK         0.3156 
    148 H148      -49.5739  -22.6406    7.5198 H         1 UNK         0.0589 
    149 H149      -48.9398  -21.1133    5.6968 H         1 UNK         0.0808 
    150 H150      -48.6611  -20.3243    7.2387 H         1 UNK         0.0808 
    151 H151      -47.3003  -20.9665    6.3297 H         1 UNK         0.0808 
    152 H152      -47.8049  -23.3411    5.5123 H         1 UNK         0.3098 
    153 H153      -48.1745  -25.5664    4.7310 H         1 UNK         0.0720 
    154 H154      -45.7478  -25.2205    5.3559 H         1 UNK         0.0791 
    155 H155      -46.0193  -26.8758    4.8404 H         1 UNK         0.0791 
    156 H156      -45.8643  -26.5034    6.5549 H         1 UNK         0.0791 
    157 H157      -48.7782  -27.1755    7.0238 H         1 UNK         0.3028 
@<TRIPOS>BOND
     1    1    2 1    
     2    1   82 1    
     3    1   83 1    
     4    1   84 1    
     5    2    3 2    
     6    2    4 am   BACKBONE|DICT|INTERRES
     7    4    5 1    
     8    4   85 1    
     9    5    6 1    
    10    5   80 1    
    11    5   86 1    
    12    6    7 1    
    13    6   87 1    
    14    6   88 1    
    15    7    8 1    
    16    8    9 1    
    17    8   89 1    
    18    8   90 1    
    19    9   10 ar   
    20    9   14 ar   
    21   10   11 ar   
    22   10   91 1    
    23   11   12 ar   
    24   11   58 1    
    25   12   13 ar   
    26   12   92 1    
    27   13   14 ar   
    28   13   15 1    
    29   14   93 1    
    30   15   16 1    
    31   15   94 1    
    32   15   95 1    
    33   16   17 1    
    34   17   18 1    
    35   17   96 1    
    36   17   97 1    
    37   18   19 1    
    38   18   22 1    
    39   18   98 1    
    40   19   20 am   BACKBONE|DICT|INTERRES
    41   19   21 2    
    42   20   99 1    
    43   20  100 1    
    44   22   23 am   BACKBONE|DICT|INTERRES
    45   22  101 1    
    46   23   24 2    
    47   23   25 1    
    48   25   26 1    
    49   25   27 1    
    50   25  102 1    
    51   26  103 1    
    52   26  104 1    
    53   26  105 1    
    54   27   28 am   BACKBONE|DICT|INTERRES
    55   27  106 1    
    56   28   29 2    
    57   28   30 1    
    58   30   31 1    
    59   30   32 1    
    60   30  107 1    
    61   31  108 1    
    62   31  109 1    
    63   31  110 1    
    64   32   33 am   BACKBONE|DICT|INTERRES
    65   32  111 1    
    66   33   34 2    
    67   33   35 1    
    68   35   36 1    
    69   35   37 1    
    70   35  112 1    
    71   36  113 1    
    72   36  114 1    
    73   36  115 1    
    74   37   38 am   BACKBONE|DICT|INTERRES
    75   37  116 1    
    76   38   39 2    
    77   38   40 1    
    78   40   41 1    
    79   40   42 1    
    80   40  117 1    
    81   41  118 1    
    82   41  119 1    
    83   41  120 1    
    84   42   43 am   BACKBONE|DICT|INTERRES
    85   42  121 1    
    86   43   44 2    
    87   43   45 1    
    88   45   46 1    
    89   45   47 1    
    90   45  122 1    
    91   46  123 1    
    92   46  124 1    
    93   46  125 1    
    94   47   48 am   BACKBONE|DICT|INTERRES
    95   47  126 1    
    96   48   49 2    
    97   48   50 1    
    98   50   51 1    
    99   50   52 1    
   100   50  127 1    
   101   51  128 1    
   102   51  129 1    
   103   51  130 1    
   104   52   53 am   BACKBONE|DICT|INTERRES
   105   52  131 1    
   106   53   54 2    
   107   53   55 1    
   108   55   56 1    
   109   55   59 1    
   110   55  132 1    
   111   56   57 1    
   112   56  133 1    
   113   56  134 1    
   114   57   58 1    
   115   58  135 1    
   116   58  136 1    
   117   59   60 am   BACKBONE|DICT|INTERRES
   118   59  137 1    
   119   60   61 2    
   120   60   62 1    
   121   62   63 1    
   122   62   64 1    
   123   62  138 1    
   124   63  139 1    
   125   63  140 1    
   126   63  141 1    
   127   64   65 am   BACKBONE|DICT|INTERRES
   128   64  142 1    
   129   65   66 2    
   130   65   67 1    
   131   67   68 1    
   132   67   69 1    
   133   67  143 1    
   134   68  144 1    
   135   68  145 1    
   136   68  146 1    
   137   69   70 am   BACKBONE|DICT|INTERRES
   138   69  147 1    
   139   70   71 2    
   140   70   72 1    
   141   72   73 1    
   142   72   74 1    
   143   72  148 1    
   144   73  149 1    
   145   73  150 1    
   146   73  151 1    
   147   74   75 am   BACKBONE|DICT|INTERRES
   148   74  152 1    
   149   75   76 2    
   150   75   77 1    
   151   77   78 1    
   152   77   79 1    
   153   77  153 1    
   154   78  154 1    
   155   78  155 1    
   156   78  156 1    
   157   79   80 am   BACKBONE|DICT|INTERRES
   158   79  157 1    
   159   80   81 2    
@<TRIPOS>SUBSTRUCTURE
     1 UNK         1 GROUP             0       ****    0 ROOT    
