@<TRIPOS>MOLECULE
3R207
157   159    1
SMALL
USER_CHARGES


@<TRIPOS>ATOM
      1 CA        -49.7549  -32.0857    7.7616 C.3       0 UNK        -0.1975 
      2 C         -49.8838  -31.1882    6.5399 C.2       0 UNK         0.4852 
      3 O         -49.2224  -31.4306    5.5299 O.2       0 UNK        -0.5216 
      4 N         -50.7366  -30.1579    6.6268 N.am      1 UNK        -0.4461 
      5 CA        -50.9828  -29.1664    5.5720 C.3       1 UNK         0.0864 
      6 C6        -52.2281  -28.3155    5.9177 C.3       14 UNK        -0.0898 
      7 S7        -52.8763  -27.3132    4.5331 S.3       14 UNK        -0.2598 
      8 C8        -54.5942  -26.9832    5.0661 C.3       14 UNK         0.0286 
      9 C9        -54.6784  -26.6270    6.5445 C.ar      14 UNK        -0.0844 
     10 C10       -54.0978  -25.4483    7.0210 C.ar      14 UNK        -0.0881 
     11 C11       -54.0537  -25.1855    8.3933 C.ar      14 UNK        -0.0643 
     12 C12       -54.6338  -26.0902    9.2882 C.ar      14 UNK        -0.0930 
     13 C13       -55.2437  -27.2573    8.8191 C.ar      14 UNK        -0.0827 
     14 C14       -55.2687  -27.5169    7.4464 C.ar      14 UNK        -0.1249 
     15 C15       -55.8303  -28.2677    9.7912 C.3       14 UNK         0.0141 
     16 S16       -54.6155  -29.5709   10.1485 S.3       14 UNK        -0.2313 
     17 C17       -55.5779  -30.6981   11.2163 C.3       14 UNK        -0.0915 
     18 CA        -55.2149  -30.5795   12.7271 C.3       13 UNK         0.0968 
     19 C         -56.0595  -31.5288   13.6287 C.2       13 UNK         0.5732 
     20 N         -55.5175  -32.0635   14.7167 N.am      13 UNK        -0.7310 
     21 O         -57.2359  -31.7621   13.3597 O.2       13 UNK        -0.5035 
     22 N         -53.7650  -30.6159   12.9839 N.am      13 UNK        -0.4233 
     23 C         -52.9219  -31.6139   12.6811 C.2       13 UNK         0.4989 
     24 O         -53.2790  -32.6987   12.2204 O.2       13 UNK        -0.4996 
     25 CA        -51.4161  -31.3617   12.8933 C.3       12 UNK         0.0216 
     26 CB        -50.6963  -31.2616   11.5371 C.3       12 UNK        -0.1964 
     27 N         -51.1345  -30.1502   13.6676 N.am      12 UNK        -0.4276 
     28 C         -51.1926  -30.0696   15.0023 C.2       12 UNK         0.5020 
     29 O         -51.4367  -31.0272   15.7371 O.2       12 UNK        -0.5489 
     30 CA        -50.9636  -28.6788   15.6201 C.3       11 UNK         0.0294 
     31 CB        -49.4753  -28.4784   15.9426 C.3       11 UNK        -0.2019 
     32 N         -51.4421  -27.5551   14.8029 N.am      11 UNK        -0.4493 
     33 C         -52.7093  -27.3688   14.4060 C.2       11 UNK         0.4932 
     34 O         -53.6110  -28.1868   14.5904 O.2       11 UNK        -0.5029 
     35 CA        -53.0023  -26.0425   13.6826 C.3       10 UNK         0.0280 
     36 CB        -54.4938  -25.8589   13.3305 C.3       10 UNK        -0.1976 
     37 N         -52.4845  -24.8875   14.4285 N.am      10 UNK        -0.4242 
     38 C         -52.8314  -24.4866   15.6615 C.2       10 UNK         0.5072 
     39 O         -53.6946  -25.0315   16.3523 O.2       10 UNK        -0.5224 
     40 CA        -52.0859  -23.2495   16.1962 C.3       9 UNK         0.0343 
     41 CB        -52.3931  -22.9380   17.6775 C.3       9 UNK        -0.2003 
     42 N         -50.6399  -23.3039   15.9496 N.am      9 UNK        -0.4272 
     43 C         -49.7408  -24.1501   16.4780 C.2       9 UNK         0.4988 
     44 O         -50.0334  -25.0393   17.2777 O.2       9 UNK        -0.5108 
     45 CA        -48.2632  -23.9758   16.0569 C.3       8 UNK         0.0248 
     46 CB        -47.5215  -25.3208   15.9578 C.3       8 UNK        -0.2001 
     47 N         -48.1110  -23.2654   14.7857 N.am      8 UNK        -0.4140 
     48 C         -48.0597  -21.9355   14.6338 C.2       8 UNK         0.5028 
     49 O         -48.0552  -21.1390   15.5723 O.2       8 UNK        -0.5428 
     50 CA        -48.0729  -21.3989   13.1905 C.3       7 UNK         0.0264 
     51 CB        -46.6377  -21.1660   12.6929 C.3       7 UNK        -0.1988 
     52 N         -48.7781  -22.2700   12.2430 N.am      7 UNK        -0.4454 
     53 C         -50.0751  -22.6075   12.3126 C.2       7 UNK         0.5027 
     54 O         -50.8464  -22.1930   13.1782 O.2       7 UNK        -0.5083 
     55 CA        -50.5807  -23.6401   11.2880 C.3       6 UNK         0.0844 
     56 C56       -50.8970  -22.9623    9.9333 C.3       14 UNK        -0.0967 
     57 S57       -51.5293  -24.1553    8.7119 S.3       14 UNK        -0.2604 
     58 C58       -53.3267  -23.9548    8.9094 C.3       14 UNK         0.0134 
     59 N         -49.6600  -24.7766   11.1663 N.am      6 UNK        -0.4116 
     60 C         -49.3479  -25.6293   12.1534 C.2       5 UNK         0.5034 
     61 O         -49.8298  -25.5842   13.2852 O.2       5 UNK        -0.5045 
     62 CA        -48.2869  -26.6911   11.8401 C.3       5 UNK         0.0224 
     63 CB        -48.9165  -27.9046   11.1377 C.3       5 UNK        -0.1978 
     64 N         -47.2048  -26.1348   11.0262 N.am      5 UNK        -0.4737 
     65 C         -46.2638  -25.3094   11.5101 C.2       4 UNK         0.5027 
     66 O         -46.1750  -25.0005   12.6980 O.2       4 UNK        -0.5211 
     67 CA        -45.2785  -24.6959   10.4994 C.3       4 UNK         0.0297 
     68 CB        -44.0633  -25.6167   10.3075 C.3       4 UNK        -0.1993 
     69 N         -45.8883  -24.4145    9.1974 N.am      4 UNK        -0.4486 
     70 C         -46.8836  -23.5399    8.9937 C.2       3 UNK         0.4961 
     71 O         -47.3574  -22.8267    9.8766 O.2       3 UNK        -0.5105 
     72 CA        -47.4880  -23.4799    7.5802 C.3       3 UNK         0.0299 
     73 CB        -46.8169  -22.3685    6.7587 C.3       3 UNK        -0.1972 
     74 N         -47.4216  -24.7460    6.8406 N.am      3 UNK        -0.4305 
     75 C         -47.9823  -25.8979    7.2341 C.2       2 UNK         0.5006 
     76 O         -48.5636  -26.0518    8.3111 O.2       2 UNK        -0.5106 
     77 CA        -47.8055  -27.0939    6.2962 C.3       2 UNK         0.0296 
     78 CB        -46.5978  -27.9398    6.7343 C.3       2 UNK        -0.2002 
     79 N         -49.0097  -27.9183    6.3482 N.am      2 UNK        -0.4032 
     80 C         -49.7376  -28.2942    5.2879 C.2       1 UNK         0.5000 
     81 O         -49.4482  -28.0109    4.1230 O.2       1 UNK        -0.5238 
     82 H82       -48.7730  -31.9612    8.2174 H         1 UNK         0.0889 
     83 H83       -49.8683  -33.1308    7.4745 H         1 UNK         0.0889 
     84 H84       -50.5118  -31.8596    8.5117 H         1 UNK         0.0889 
     85 H85       -51.2616  -30.0270    7.4797 H         1 UNK         0.3028 
     86 H86       -51.2000  -29.7234    4.6578 H         1 UNK         0.0864 
     87 H87       -52.0227  -27.6564    6.7641 H         1 UNK         0.0720 
     88 H88       -53.0330  -28.9783    6.2405 H         1 UNK         0.0720 
     89 H89       -55.2040  -27.8609    4.8464 H         1 UNK         0.0814 
     90 H90       -55.0048  -26.1674    4.4697 H         1 UNK         0.0814 
     91 H91       -53.6213  -24.7669    6.3293 H         1 UNK         0.1469 
     92 H92       -54.5863  -25.9002   10.3509 H         1 UNK         0.1381 
     93 H93       -55.7081  -28.4375    7.0868 H         1 UNK         0.1206 
     94 H94       -56.7316  -28.7114    9.3653 H         1 UNK         0.0813 
     95 H95       -56.1294  -27.7809   10.7206 H         1 UNK         0.0813 
     96 H96       -56.6414  -30.5069   11.0636 H         1 UNK         0.0638 
     97 H97       -55.4062  -31.7164   10.8644 H         1 UNK         0.0638 
     98 H98       -55.5211  -29.5806   13.0392 H         1 UNK         0.0568 
     99 H99       -56.0739  -32.6675   15.3006 H         1 UNK         0.3450 
    100 H100      -54.5585  -31.8683   14.9563 H         1 UNK         0.3450 
    101 H101      -53.4047  -29.7854   13.4398 H         1 UNK         0.2987 
    102 H102      -51.0133  -32.2242   13.4289 H         1 UNK         0.0766 
    103 H103      -51.0831  -30.4399   10.9326 H         1 UNK         0.0798 
    104 H104      -50.8280  -32.1788   10.9617 H         1 UNK         0.0798 
    105 H105      -49.6236  -31.1142   11.6638 H         1 UNK         0.0798 
    106 H106      -50.9412  -29.3066   13.1500 H         1 UNK         0.3198 
    107 H107      -51.5206  -28.6521   16.5591 H         1 UNK         0.0843 
    108 H108      -49.3240  -27.5818   16.5420 H         1 UNK         0.0831 
    109 H109      -48.8712  -28.3912   15.0389 H         1 UNK         0.0831 
    110 H110      -49.0819  -29.3164   16.5200 H         1 UNK         0.0831 
    111 H111      -50.7701  -26.8281   14.5754 H         1 UNK         0.3133 
    112 H112      -52.4529  -26.0807   12.7415 H         1 UNK         0.0566 
    113 H113      -54.8483  -26.6771   12.7026 H         1 UNK         0.0814 
    114 H114      -55.1232  -25.8418   14.2207 H         1 UNK         0.0814 
    115 H115      -54.6612  -24.9313   12.7834 H         1 UNK         0.0814 
    116 H116      -51.7120  -24.4019   13.9911 H         1 UNK         0.3091 
    117 H117      -52.4540  -22.4067   15.6089 H         1 UNK         0.0702 
    118 H118      -51.8646  -22.0459   18.0133 H         1 UNK         0.0785 
    119 H119      -52.1128  -23.7622   18.3340 H         1 UNK         0.0785 
    120 H120      -53.4586  -22.7570   17.8240 H         1 UNK         0.0785 
    121 H121      -50.3067  -22.6402   15.2612 H         1 UNK         0.2998 
    122 H122      -47.7827  -23.3938   16.8458 H         1 UNK         0.0697 
    123 H123      -46.4741  -25.1754   15.6926 H         1 UNK         0.0825 
    124 H124      -47.5405  -25.8555   16.9081 H         1 UNK         0.0825 
    125 H125      -47.9655  -25.9694   15.2034 H         1 UNK         0.0825 
    126 H126      -48.1031  -23.8416   13.9545 H         1 UNK         0.3029 
    127 H127      -48.5932  -20.4389   13.2042 H         1 UNK         0.0897 
    128 H128      -46.6301  -20.7082   11.7035 H         1 UNK         0.0792 
    129 H129      -46.0937  -20.4989   13.3631 H         1 UNK         0.0792 
    130 H130      -46.0768  -22.0996   12.6333 H         1 UNK         0.0792 
    131 H131      -48.2292  -22.6157   11.4559 H         1 UNK         0.3086 
    132 H132      -51.5197  -24.0385   11.6765 H         1 UNK         0.0583 
    133 H133      -51.6255  -22.1590   10.0621 H         1 UNK         0.1020 
    134 H134      -50.0053  -22.4916    9.5168 H         1 UNK         0.1020 
    135 H135      -53.5646  -23.7876    9.9612 H         1 UNK         0.0694 
    136 H136      -53.6582  -23.0684    8.3667 H         1 UNK         0.0694 
    137 H137      -49.2419  -24.9200   10.2556 H         1 UNK         0.2989 
    138 H138      -47.8659  -27.0304   12.7895 H         1 UNK         0.1055 
    139 H139      -49.3991  -27.6325   10.1990 H         1 UNK         0.0806 
    140 H140      -49.6780  -28.3608   11.7689 H         1 UNK         0.0806 
    141 H141      -48.1715  -28.6709   10.9231 H         1 UNK         0.0806 
    142 H142      -47.2630  -26.2850   10.0261 H         1 UNK         0.3061 
    143 H143      -44.9288  -23.7483   10.9148 H         1 UNK         0.0734 
    144 H144      -43.3152  -25.1587    9.6603 H         1 UNK         0.0832 
    145 H145      -43.5785  -25.8244   11.2626 H         1 UNK         0.0832 
    146 H146      -44.3459  -26.5757    9.8711 H         1 UNK         0.0832 
    147 H147      -45.5590  -24.9529    8.4099 H         1 UNK         0.3156 
    148 H148      -48.5444  -23.2282    7.6908 H         1 UNK         0.0589 
    149 H149      -45.7614  -22.5777    6.5800 H         1 UNK         0.0808 
    150 H150      -47.3036  -22.2390    5.7919 H         1 UNK         0.0808 
    151 H151      -46.8755  -21.4106    7.2781 H         1 UNK         0.0808 
    152 H152      -46.9451  -24.7202    5.9501 H         1 UNK         0.3098 
    153 H153      -47.6333  -26.7237    5.2834 H         1 UNK         0.0720 
    154 H154      -45.6751  -27.3595    6.6951 H         1 UNK         0.0791 
    155 H155      -46.7106  -28.3091    7.7548 H         1 UNK         0.0791 
    156 H156      -46.4650  -28.8029    6.0814 H         1 UNK         0.0791 
    157 H157      -49.3479  -28.1312    7.2763 H         1 UNK         0.3028 
@<TRIPOS>BOND
     1    1    2 1    
     2    1   82 1    
     3    1   83 1    
     4    1   84 1    
     5    2    3 2    
     6    2    4 am   BACKBONE|DICT|INTERRES
     7    4    5 1    
     8    4   85 1    
     9    5    6 1    
    10    5   80 1    
    11    5   86 1    
    12    6    7 1    
    13    6   87 1    
    14    6   88 1    
    15    7    8 1    
    16    8    9 1    
    17    8   89 1    
    18    8   90 1    
    19    9   10 ar   
    20    9   14 ar   
    21   10   11 ar   
    22   10   91 1    
    23   11   12 ar   
    24   11   58 1    
    25   12   13 ar   
    26   12   92 1    
    27   13   14 ar   
    28   13   15 1    
    29   14   93 1    
    30   15   16 1    
    31   15   94 1    
    32   15   95 1    
    33   16   17 1    
    34   17   18 1    
    35   17   96 1    
    36   17   97 1    
    37   18   19 1    
    38   18   22 1    
    39   18   98 1    
    40   19   20 am   BACKBONE|DICT|INTERRES
    41   19   21 2    
    42   20   99 1    
    43   20  100 1    
    44   22   23 am   BACKBONE|DICT|INTERRES
    45   22  101 1    
    46   23   24 2    
    47   23   25 1    
    48   25   26 1    
    49   25   27 1    
    50   25  102 1    
    51   26  103 1    
    52   26  104 1    
    53   26  105 1    
    54   27   28 am   BACKBONE|DICT|INTERRES
    55   27  106 1    
    56   28   29 2    
    57   28   30 1    
    58   30   31 1    
    59   30   32 1    
    60   30  107 1    
    61   31  108 1    
    62   31  109 1    
    63   31  110 1    
    64   32   33 am   BACKBONE|DICT|INTERRES
    65   32  111 1    
    66   33   34 2    
    67   33   35 1    
    68   35   36 1    
    69   35   37 1    
    70   35  112 1    
    71   36  113 1    
    72   36  114 1    
    73   36  115 1    
    74   37   38 am   BACKBONE|DICT|INTERRES
    75   37  116 1    
    76   38   39 2    
    77   38   40 1    
    78   40   41 1    
    79   40   42 1    
    80   40  117 1    
    81   41  118 1    
    82   41  119 1    
    83   41  120 1    
    84   42   43 am   BACKBONE|DICT|INTERRES
    85   42  121 1    
    86   43   44 2    
    87   43   45 1    
    88   45   46 1    
    89   45   47 1    
    90   45  122 1    
    91   46  123 1    
    92   46  124 1    
    93   46  125 1    
    94   47   48 am   BACKBONE|DICT|INTERRES
    95   47  126 1    
    96   48   49 2    
    97   48   50 1    
    98   50   51 1    
    99   50   52 1    
   100   50  127 1    
   101   51  128 1    
   102   51  129 1    
   103   51  130 1    
   104   52   53 am   BACKBONE|DICT|INTERRES
   105   52  131 1    
   106   53   54 2    
   107   53   55 1    
   108   55   56 1    
   109   55   59 1    
   110   55  132 1    
   111   56   57 1    
   112   56  133 1    
   113   56  134 1    
   114   57   58 1    
   115   58  135 1    
   116   58  136 1    
   117   59   60 am   BACKBONE|DICT|INTERRES
   118   59  137 1    
   119   60   61 2    
   120   60   62 1    
   121   62   63 1    
   122   62   64 1    
   123   62  138 1    
   124   63  139 1    
   125   63  140 1    
   126   63  141 1    
   127   64   65 am   BACKBONE|DICT|INTERRES
   128   64  142 1    
   129   65   66 2    
   130   65   67 1    
   131   67   68 1    
   132   67   69 1    
   133   67  143 1    
   134   68  144 1    
   135   68  145 1    
   136   68  146 1    
   137   69   70 am   BACKBONE|DICT|INTERRES
   138   69  147 1    
   139   70   71 2    
   140   70   72 1    
   141   72   73 1    
   142   72   74 1    
   143   72  148 1    
   144   73  149 1    
   145   73  150 1    
   146   73  151 1    
   147   74   75 am   BACKBONE|DICT|INTERRES
   148   74  152 1    
   149   75   76 2    
   150   75   77 1    
   151   77   78 1    
   152   77   79 1    
   153   77  153 1    
   154   78  154 1    
   155   78  155 1    
   156   78  156 1    
   157   79   80 am   BACKBONE|DICT|INTERRES
   158   79  157 1    
   159   80   81 2    
@<TRIPOS>SUBSTRUCTURE
     1 UNK         1 GROUP             0       ****    0 ROOT    
