@<TRIPOS>MOLECULE
3R207
157   159    1
SMALL
USER_CHARGES


@<TRIPOS>ATOM
      1 CA        -48.2672  -25.8063    5.6063 C.3       0 UNK        -0.1975 
      2 C         -48.1985  -26.5447    6.9344 C.2       0 UNK         0.4852 
      3 O         -47.8873  -25.9383    7.9604 O.2       0 UNK        -0.5216 
      4 N         -48.4779  -27.8533    6.9278 N.am      1 UNK        -0.4461 
      5 CA        -48.4601  -28.7064    8.1191 C.3       1 UNK         0.0864 
      6 C6        -48.9842  -30.1285    7.8034 C.3       14 UNK        -0.0898 
      7 S7        -49.8089  -30.8692    9.2499 S.3       14 UNK        -0.2598 
      8 C8        -51.5610  -30.7707    8.7649 C.3       14 UNK         0.0286 
      9 C9        -52.0821  -29.3395    8.7207 C.ar      14 UNK        -0.0844 
     10 C10       -52.2758  -28.6872    7.4965 C.ar      14 UNK        -0.0881 
     11 C11       -52.8454  -27.4090    7.4516 C.ar      14 UNK        -0.0643 
     12 C12       -53.2146  -26.7873    8.6478 C.ar      14 UNK        -0.0930 
     13 C13       -52.9883  -27.4091    9.8773 C.ar      14 UNK        -0.0827 
     14 C14       -52.4251  -28.6869    9.9081 C.ar      14 UNK        -0.1249 
     15 C15       -53.3649  -26.6956   11.1645 C.3       14 UNK         0.0141 
     16 S16       -55.0972  -27.0049   11.6106 S.3       14 UNK        -0.2313 
     17 C17       -55.3787  -25.6570   12.8101 C.3       14 UNK        -0.0915 
     18 CA        -56.2067  -26.0673   14.0551 C.3       13 UNK         0.0968 
     19 C         -57.6638  -26.4896   13.6935 C.2       13 UNK         0.5732 
     20 N         -58.0918  -27.7221   13.9467 N.am      13 UNK        -0.7310 
     21 O         -58.4282  -25.6713   13.1870 O.2       13 UNK        -0.5035 
     22 N         -55.4813  -27.0141   14.9152 N.am      13 UNK        -0.4233 
     23 C         -55.7725  -27.2161   16.2083 C.2       13 UNK         0.4989 
     24 O         -56.5802  -26.5258   16.8338 O.2       13 UNK        -0.4996 
     25 CA        -55.0588  -28.3784   16.9306 C.3       12 UNK         0.0216 
     26 CB        -55.8936  -28.9454   18.0987 C.3       12 UNK        -0.1964 
     27 N         -54.6216  -29.4691   16.0498 N.am      12 UNK        -0.4276 
     28 C         -55.3698  -30.1943   15.2007 C.2       12 UNK         0.5020 
     29 O         -56.5791  -30.0151   15.0428 O.2       12 UNK        -0.5489 
     30 CA        -54.6623  -31.3035   14.3875 C.3       11 UNK         0.0294 
     31 CB        -55.1834  -31.3725   12.9350 C.3       11 UNK        -0.2019 
     32 N         -53.1921  -31.2338   14.4153 N.am      11 UNK        -0.4493 
     33 C         -52.4312  -30.2360   13.9457 C.2       11 UNK         0.4932 
     34 O         -52.8716  -29.2475   13.3618 O.2       11 UNK        -0.5029 
     35 CA        -50.9258  -30.3216   14.2433 C.3       10 UNK         0.0280 
     36 CB        -50.1289  -30.5710   12.9526 C.3       10 UNK        -0.1976 
     37 N         -50.4518  -29.0878   14.8733 N.am      10 UNK        -0.4242 
     38 C         -50.9153  -28.5691   16.0215 C.2       10 UNK         0.5072 
     39 O         -51.7209  -29.1453   16.7552 O.2       10 UNK        -0.5224 
     40 CA        -50.4091  -27.1672   16.4138 C.3       9 UNK         0.0343 
     41 CB        -49.2887  -27.2744   17.4606 C.3       9 UNK        -0.2003 
     42 N         -49.9288  -26.3857   15.2683 N.am      9 UNK        -0.4272 
     43 C         -50.7190  -25.8772   14.3123 C.2       9 UNK         0.4988 
     44 O         -51.9497  -25.9352   14.3341 O.2       9 UNK        -0.5108 
     45 CA        -49.9866  -25.2689   13.1036 C.3       8 UNK         0.0248 
     46 CB        -49.4348  -26.3869   12.1966 C.3       8 UNK        -0.2001 
     47 N         -50.8422  -24.4074   12.2902 N.am      8 UNK        -0.4140 
     48 C         -51.3233  -23.2053   12.6408 C.2       8 UNK         0.5028 
     49 O         -51.0987  -22.6669   13.7263 O.2       8 UNK        -0.5428 
     50 CA        -52.1552  -22.4692   11.5711 C.3       7 UNK         0.0264 
     51 CB        -52.1014  -20.9361   11.7138 C.3       7 UNK        -0.1988 
     52 N         -51.6891  -22.8588   10.2416 N.am      7 UNK        -0.4454 
     53 C         -52.4241  -23.0436    9.1429 C.2       7 UNK         0.5027 
     54 O         -53.6206  -22.7613    9.0685 O.2       7 UNK        -0.5083 
     55 CA        -51.6875  -23.7022    7.9495 C.3       6 UNK         0.0844 
     56 C56       -52.6074  -24.0021    6.7358 C.3       14 UNK        -0.0967 
     57 S57       -51.9481  -25.3808    5.7336 S.3       14 UNK        -0.2604 
     58 C58       -53.1195  -26.7304    6.1122 C.3       14 UNK         0.0134 
     59 N         -50.4755  -22.9748    7.5425 N.am      6 UNK        -0.4116 
     60 C         -49.3195  -22.9602    8.2175 C.2       5 UNK         0.5034 
     61 O         -49.1710  -23.4797    9.3273 O.2       5 UNK        -0.5045 
     62 CA        -48.1226  -22.2663    7.5619 C.3       5 UNK         0.0224 
     63 CB        -47.7972  -20.9404    8.2744 C.3       5 UNK        -0.1978 
     64 N         -47.0153  -23.2054    7.6745 N.am      5 UNK        -0.4737 
     65 C         -45.8264  -23.1676    7.0669 C.2       4 UNK         0.5027 
     66 O         -45.4712  -22.2635    6.3095 O.2       4 UNK        -0.5211 
     67 CA        -44.8955  -24.3700    7.3426 C.3       4 UNK         0.0297 
     68 CB        -43.4070  -24.0626    7.0720 C.3       4 UNK        -0.1993 
     69 N         -45.1016  -24.9481    8.6804 N.am      4 UNK        -0.4486 
     70 C         -44.8624  -24.3544    9.8603 C.2       3 UNK         0.4961 
     71 O         -44.2922  -23.2694    9.9800 O.2       3 UNK        -0.5105 
     72 CA        -45.3685  -25.0591   11.1315 C.3       3 UNK         0.0299 
     73 CB        -46.4924  -24.2363   11.7839 C.3       3 UNK        -0.1972 
     74 N         -45.8576  -26.4232   10.9018 N.am      3 UNK        -0.4305 
     75 C         -45.1128  -27.5287   11.0497 C.2       2 UNK         0.5006 
     76 O         -43.9084  -27.5113   11.3059 O.2       2 UNK        -0.5106 
     77 CA        -45.8258  -28.8894   10.9262 C.3       2 UNK         0.0296 
     78 CB        -46.1694  -29.4400   12.3208 C.3       2 UNK        -0.2002 
     79 N         -47.0468  -28.8506   10.1177 N.am      2 UNK        -0.4032 
     80 C         -47.0646  -28.7503    8.7828 C.2       1 UNK         0.5000 
     81 O         -46.0463  -28.6994    8.0866 O.2       1 UNK        -0.5238 
     82 H82       -48.8443  -24.8892    5.7169 H         1 UNK         0.0889 
     83 H83       -48.7427  -26.4087    4.8326 H         1 UNK         0.0889 
     84 H84       -47.2665  -25.5416    5.2679 H         1 UNK         0.0889 
     85 H85       -48.6901  -28.3130    6.0548 H         1 UNK         0.3028 
     86 H86       -49.1493  -28.2279    8.8199 H         1 UNK         0.0864 
     87 H87       -49.6983  -30.1018    6.9795 H         1 UNK         0.0720 
     88 H88       -48.1833  -30.7906    7.4675 H         1 UNK         0.0720 
     89 H89       -52.1513  -31.3423    9.4828 H         1 UNK         0.0814 
     90 H90       -51.7014  -31.2649    7.8023 H         1 UNK         0.0814 
     91 H91       -52.0141  -29.1883    6.5749 H         1 UNK         0.1469 
     92 H92       -53.6902  -25.8187    8.6303 H         1 UNK         0.1381 
     93 H93       -52.2752  -29.1843   10.8558 H         1 UNK         0.1206 
     94 H94       -52.7189  -27.0138   11.9826 H         1 UNK         0.0813 
     95 H95       -53.2110  -25.6229   11.0446 H         1 UNK         0.0813 
     96 H96       -55.8687  -24.8358   12.2840 H         1 UNK         0.0638 
     97 H97       -54.4169  -25.2600   13.1391 H         1 UNK         0.0638 
     98 H98       -56.3238  -25.1537   14.6411 H         1 UNK         0.0568 
     99 H99       -57.4780  -28.4198   14.3575 H         1 UNK         0.3450 
    100 H100      -59.0387  -27.9695   13.7104 H         1 UNK         0.3450 
    101 H101      -54.8111  -27.6149   14.4545 H         1 UNK         0.2987 
    102 H102      -54.1494  -27.9489   17.3530 H         1 UNK         0.0766 
    103 H103      -56.1106  -28.1753   18.8400 H         1 UNK         0.0798 
    104 H104      -55.3619  -29.7451   18.6143 H         1 UNK         0.0798 
    105 H105      -56.8481  -29.3447   17.7540 H         1 UNK         0.0798 
    106 H106      -53.6259  -29.6638   16.0909 H         1 UNK         0.3198 
    107 H107      -54.9280  -32.2421   14.8761 H         1 UNK         0.0843 
    108 H108      -55.0369  -30.4302   12.4053 H         1 UNK         0.0831 
    109 H109      -56.2518  -31.5902   12.9124 H         1 UNK         0.0831 
    110 H110      -54.6825  -32.1574   12.3686 H         1 UNK         0.0831 
    111 H111      -52.7330  -31.9913   14.9038 H         1 UNK         0.3133 
    112 H112      -50.7384  -31.1453   14.9351 H         1 UNK         0.0566 
    113 H113      -49.0643  -30.6842   13.1566 H         1 UNK         0.0814 
    114 H114      -50.2512  -29.7557   12.2385 H         1 UNK         0.0814 
    115 H115      -50.4616  -31.4850   12.4586 H         1 UNK         0.0814 
    116 H116      -49.8094  -28.5284   14.3360 H         1 UNK         0.3091 
    117 H117      -51.2484  -26.6322   16.8637 H         1 UNK         0.0702 
    118 H118      -48.9708  -26.2898   17.8042 H         1 UNK         0.0785 
    119 H119      -48.4137  -27.7930   17.0666 H         1 UNK         0.0785 
    120 H120      -49.6273  -27.8275   18.3380 H         1 UNK         0.0785 
    121 H121      -48.9280  -26.2769   15.1850 H         1 UNK         0.2998 
    122 H122      -49.1576  -24.6610   13.4709 H         1 UNK         0.0697 
    123 H123      -50.2174  -27.0843   11.8934 H         1 UNK         0.0825 
    124 H124      -48.6617  -26.9623   12.7060 H         1 UNK         0.0825 
    125 H125      -48.9890  -25.9803   11.2885 H         1 UNK         0.0825 
    126 H126      -51.0939  -24.7689   11.3840 H         1 UNK         0.3029 
    127 H127      -53.1892  -22.7969   11.7006 H         1 UNK         0.0897 
    128 H128      -51.0810  -20.5618   11.6238 H         1 UNK         0.0792 
    129 H129      -52.4844  -20.6178   12.6842 H         1 UNK         0.0792 
    130 H130      -52.7073  -20.4458   10.9517 H         1 UNK         0.0792 
    131 H131      -50.6950  -23.0805   10.1655 H         1 UNK         0.3086 
    132 H132      -51.3551  -24.6667    8.3407 H         1 UNK         0.0583 
    133 H133      -53.6250  -24.2519    7.0374 H         1 UNK         0.1020 
    134 H134      -52.7109  -23.1185    6.1039 H         1 UNK         0.1020 
    135 H135      -54.1427  -26.3527    6.0902 H         1 UNK         0.0694 
    136 H136      -53.0592  -27.4639    5.3069 H         1 UNK         0.0694 
    137 H137      -50.5277  -22.4989    6.6540 H         1 UNK         0.2989 
    138 H138      -48.3276  -22.0830    6.5053 H         1 UNK         0.1055 
    139 H139      -47.5536  -21.0996    9.3259 H         1 UNK         0.0806 
    140 H140      -48.6459  -20.2565    8.2339 H         1 UNK         0.0806 
    141 H141      -46.9515  -20.4336    7.8097 H         1 UNK         0.0806 
    142 H142      -47.2456  -24.0363    8.2163 H         1 UNK         0.3061 
    143 H143      -45.1958  -25.1464    6.6381 H         1 UNK         0.0734 
    144 H144      -43.0479  -23.2247    7.6698 H         1 UNK         0.0832 
    145 H145      -42.7771  -24.9254    7.2880 H         1 UNK         0.0832 
    146 H146      -43.2490  -23.8006    6.0252 H         1 UNK         0.0832 
    147 H147      -45.6127  -25.8216    8.6955 H         1 UNK         0.3156 
    148 H148      -44.5325  -25.0860   11.8338 H         1 UNK         0.0589 
    149 H149      -46.8108  -24.6810   12.7262 H         1 UNK         0.0808 
    150 H150      -46.1589  -23.2216   12.0055 H         1 UNK         0.0808 
    151 H151      -47.3638  -24.1537   11.1345 H         1 UNK         0.0808 
    152 H152      -46.8296  -26.5218   10.6483 H         1 UNK         0.3098 
    153 H153      -45.1253  -29.5814   10.4533 H         1 UNK         0.0720 
    154 H154      -45.2756  -29.5135   12.9421 H         1 UNK         0.0791 
    155 H155      -46.5984  -30.4403   12.2573 H         1 UNK         0.0791 
    156 H156      -46.8790  -28.8012   12.8475 H         1 UNK         0.0791 
    157 H157      -47.9241  -28.9394   10.6094 H         1 UNK         0.3028 
@<TRIPOS>BOND
     1    1    2 1    
     2    1   82 1    
     3    1   83 1    
     4    1   84 1    
     5    2    3 2    
     6    2    4 am   BACKBONE|DICT|INTERRES
     7    4    5 1    
     8    4   85 1    
     9    5    6 1    
    10    5   80 1    
    11    5   86 1    
    12    6    7 1    
    13    6   87 1    
    14    6   88 1    
    15    7    8 1    
    16    8    9 1    
    17    8   89 1    
    18    8   90 1    
    19    9   10 ar   
    20    9   14 ar   
    21   10   11 ar   
    22   10   91 1    
    23   11   12 ar   
    24   11   58 1    
    25   12   13 ar   
    26   12   92 1    
    27   13   14 ar   
    28   13   15 1    
    29   14   93 1    
    30   15   16 1    
    31   15   94 1    
    32   15   95 1    
    33   16   17 1    
    34   17   18 1    
    35   17   96 1    
    36   17   97 1    
    37   18   19 1    
    38   18   22 1    
    39   18   98 1    
    40   19   20 am   BACKBONE|DICT|INTERRES
    41   19   21 2    
    42   20   99 1    
    43   20  100 1    
    44   22   23 am   BACKBONE|DICT|INTERRES
    45   22  101 1    
    46   23   24 2    
    47   23   25 1    
    48   25   26 1    
    49   25   27 1    
    50   25  102 1    
    51   26  103 1    
    52   26  104 1    
    53   26  105 1    
    54   27   28 am   BACKBONE|DICT|INTERRES
    55   27  106 1    
    56   28   29 2    
    57   28   30 1    
    58   30   31 1    
    59   30   32 1    
    60   30  107 1    
    61   31  108 1    
    62   31  109 1    
    63   31  110 1    
    64   32   33 am   BACKBONE|DICT|INTERRES
    65   32  111 1    
    66   33   34 2    
    67   33   35 1    
    68   35   36 1    
    69   35   37 1    
    70   35  112 1    
    71   36  113 1    
    72   36  114 1    
    73   36  115 1    
    74   37   38 am   BACKBONE|DICT|INTERRES
    75   37  116 1    
    76   38   39 2    
    77   38   40 1    
    78   40   41 1    
    79   40   42 1    
    80   40  117 1    
    81   41  118 1    
    82   41  119 1    
    83   41  120 1    
    84   42   43 am   BACKBONE|DICT|INTERRES
    85   42  121 1    
    86   43   44 2    
    87   43   45 1    
    88   45   46 1    
    89   45   47 1    
    90   45  122 1    
    91   46  123 1    
    92   46  124 1    
    93   46  125 1    
    94   47   48 am   BACKBONE|DICT|INTERRES
    95   47  126 1    
    96   48   49 2    
    97   48   50 1    
    98   50   51 1    
    99   50   52 1    
   100   50  127 1    
   101   51  128 1    
   102   51  129 1    
   103   51  130 1    
   104   52   53 am   BACKBONE|DICT|INTERRES
   105   52  131 1    
   106   53   54 2    
   107   53   55 1    
   108   55   56 1    
   109   55   59 1    
   110   55  132 1    
   111   56   57 1    
   112   56  133 1    
   113   56  134 1    
   114   57   58 1    
   115   58  135 1    
   116   58  136 1    
   117   59   60 am   BACKBONE|DICT|INTERRES
   118   59  137 1    
   119   60   61 2    
   120   60   62 1    
   121   62   63 1    
   122   62   64 1    
   123   62  138 1    
   124   63  139 1    
   125   63  140 1    
   126   63  141 1    
   127   64   65 am   BACKBONE|DICT|INTERRES
   128   64  142 1    
   129   65   66 2    
   130   65   67 1    
   131   67   68 1    
   132   67   69 1    
   133   67  143 1    
   134   68  144 1    
   135   68  145 1    
   136   68  146 1    
   137   69   70 am   BACKBONE|DICT|INTERRES
   138   69  147 1    
   139   70   71 2    
   140   70   72 1    
   141   72   73 1    
   142   72   74 1    
   143   72  148 1    
   144   73  149 1    
   145   73  150 1    
   146   73  151 1    
   147   74   75 am   BACKBONE|DICT|INTERRES
   148   74  152 1    
   149   75   76 2    
   150   75   77 1    
   151   77   78 1    
   152   77   79 1    
   153   77  153 1    
   154   78  154 1    
   155   78  155 1    
   156   78  156 1    
   157   79   80 am   BACKBONE|DICT|INTERRES
   158   79  157 1    
   159   80   81 2    
@<TRIPOS>SUBSTRUCTURE
     1 UNK         1 GROUP             0       ****    0 ROOT    
