@<TRIPOS>MOLECULE
3R207
157   159    1
SMALL
USER_CHARGES


@<TRIPOS>ATOM
      1 CA        -49.4792  -25.1269    2.8711 C.3       0 UNK        -0.1975 
      2 C         -49.2811  -25.3315    4.3648 C.2       0 UNK         0.4852 
      3 O         -48.1597  -25.5998    4.7979 O.2       0 UNK        -0.5216 
      4 N         -50.3541  -25.1822    5.1567 N.am      1 UNK        -0.4461 
      5 CA        -50.3976  -25.3974    6.6128 C.3       1 UNK         0.0864 
      6 C6        -50.2747  -26.8949    6.9971 C.3       14 UNK        -0.0898 
      7 S7        -51.6299  -27.9135    6.3171 S.3       14 UNK        -0.2598 
      8 C8        -52.6836  -28.1924    7.7877 C.3       14 UNK         0.0286 
      9 C9        -52.0332  -28.9411    8.9552 C.ar      14 UNK        -0.0844 
     10 C10       -50.8185  -29.6291    8.8342 C.ar      14 UNK        -0.0881 
     11 C11       -50.2309  -30.2464    9.9402 C.ar      14 UNK        -0.0643 
     12 C12       -50.8826  -30.2158   11.1743 C.ar      14 UNK        -0.0930 
     13 C13       -52.1067  -29.5568   11.3074 C.ar      14 UNK        -0.0827 
     14 C14       -52.6757  -28.9246   10.1974 C.ar      14 UNK        -0.1249 
     15 C15       -52.7961  -29.4988   12.6591 C.3       14 UNK         0.0141 
     16 S16       -53.7287  -31.0240   12.9817 S.3       14 UNK        -0.2313 
     17 C17       -54.5926  -30.5767   14.5232 C.3       14 UNK        -0.0915 
     18 CA        -56.0927  -30.2602   14.2815 C.3       13 UNK         0.0968 
     19 C         -56.8856  -30.1509   15.6173 C.2       13 UNK         0.5732 
     20 N         -57.6104  -29.0719   15.8931 N.am      13 UNK        -0.7310 
     21 O         -56.8567  -31.0792   16.4217 O.2       13 UNK        -0.5035 
     22 N         -56.2642  -29.0992   13.3958 N.am      13 UNK        -0.4233 
     23 C         -57.2803  -28.9410   12.5372 C.2       13 UNK         0.4989 
     24 O         -58.1361  -29.8033   12.3291 O.2       13 UNK        -0.4996 
     25 CA        -57.3592  -27.5920   11.7872 C.3       12 UNK         0.0216 
     26 CB        -58.7927  -27.2559   11.3223 C.3       12 UNK        -0.1964 
     27 N         -56.7852  -26.4628   12.5334 N.am      12 UNK        -0.4276 
     28 C         -57.1371  -26.0445   13.7577 C.2       12 UNK         0.5020 
     29 O         -58.0346  -26.5494   14.4362 O.2       12 UNK        -0.5489 
     30 CA        -56.2913  -24.9090   14.3551 C.3       11 UNK         0.0294 
     31 CB        -57.1706  -23.7023   14.7233 C.3       11 UNK        -0.2019 
     32 N         -55.5531  -25.3556   15.5396 N.am      11 UNK        -0.4493 
     33 C         -54.6565  -26.3506   15.5573 C.2       11 UNK         0.4932 
     34 O         -54.3615  -27.0378   14.5755 O.2       11 UNK        -0.5029 
     35 CA        -53.9819  -26.6394   16.9000 C.3       10 UNK         0.0280 
     36 CB        -54.6687  -27.8205   17.6139 C.3       10 UNK        -0.1976 
     37 N         -52.5750  -26.9138   16.6272 N.am      10 UNK        -0.4242 
     38 C         -51.5997  -27.0782   17.5280 C.2       10 UNK         0.5072 
     39 O         -51.7744  -27.0899   18.7473 O.2       10 UNK        -0.5224 
     40 CA        -50.1728  -27.2213   16.9694 C.3       9 UNK         0.0343 
     41 CB        -49.9256  -28.6563   16.4763 C.3       9 UNK        -0.2003 
     42 N         -49.8827  -26.2677   15.8923 N.am      9 UNK        -0.4272 
     43 C         -49.8547  -24.9320   16.0482 C.2       9 UNK         0.4988 
     44 O         -50.0239  -24.3730   17.1327 O.2       9 UNK        -0.5108 
     45 CA        -49.5841  -24.0531   14.8102 C.3       8 UNK         0.0248 
     46 CB        -48.1797  -23.4323   14.8910 C.3       8 UNK        -0.2001 
     47 N         -49.7275  -24.7590   13.5352 N.am      8 UNK        -0.4140 
     48 C         -50.8960  -25.1846   13.0297 C.2       8 UNK         0.5028 
     49 O         -51.9839  -24.9458   13.5531 O.2       8 UNK        -0.5428 
     50 CA        -50.8574  -26.0433   11.7492 C.3       7 UNK         0.0264 
     51 CB        -51.2941  -25.2119   10.5334 C.3       7 UNK        -0.1988 
     52 N         -49.5562  -26.6668   11.4764 N.am      7 UNK        -0.4454 
     53 C         -48.9381  -27.5375   12.2920 C.2       7 UNK         0.5027 
     54 O         -49.4545  -27.9770   13.3203 O.2       7 UNK        -0.5083 
     55 CA        -47.4669  -27.9006   11.9884 C.3       6 UNK         0.0844 
     56 C56       -47.2760  -29.3765   11.5531 C.3       14 UNK        -0.0967 
     57 S57       -47.5340  -29.6987    9.7726 S.3       14 UNK        -0.2604 
     58 C58       -48.8802  -30.9235    9.7909 C.3       14 UNK         0.0134 
     59 N         -46.7879  -26.9506   11.0995 N.am      6 UNK        -0.4116 
     60 C         -46.5550  -25.6604   11.3740 C.2       5 UNK         0.5034 
     61 O         -46.9027  -25.1261   12.4272 O.2       5 UNK        -0.5045 
     62 CA        -45.8866  -24.7931   10.2953 C.3       5 UNK         0.0224 
     63 CB        -44.5006  -24.2907   10.7451 C.3       5 UNK        -0.1978 
     64 N         -45.8422  -25.3939    8.9560 N.am      5 UNK        -0.4737 
     65 C         -45.0692  -26.3827    8.4842 C.2       4 UNK         0.5027 
     66 O         -44.2749  -27.0265    9.1681 O.2       4 UNK        -0.5211 
     67 CA        -45.2241  -26.7153    6.9886 C.3       4 UNK         0.0297 
     68 CB        -46.2476  -27.8438    6.7988 C.3       4 UNK        -0.1993 
     69 N         -45.6303  -25.5494    6.1963 N.am      4 UNK        -0.4486 
     70 C         -44.8333  -24.5023    5.9345 C.2       3 UNK         0.4961 
     71 O         -43.6381  -24.4577    6.2279 O.2       3 UNK        -0.5105 
     72 CA        -45.4878  -23.2840    5.2652 C.3       3 UNK         0.0299 
     73 CB        -45.6176  -23.4868    3.7465 C.3       3 UNK        -0.1972 
     74 N         -46.7979  -22.9850    5.8494 N.am      3 UNK        -0.4305 
     75 C         -46.9772  -22.3999    7.0439 C.2       2 UNK         0.5006 
     76 O         -46.0548  -22.0043    7.7565 O.2       2 UNK        -0.5106 
     77 CA        -48.4243  -22.2187    7.5385 C.3       2 UNK         0.0296 
     78 CB        -48.9345  -20.8089    7.1984 C.3       2 UNK        -0.2002 
     79 N         -49.3566  -23.2127    7.0010 N.am      2 UNK        -0.4032 
     80 C         -49.3807  -24.5039    7.3616 C.2       1 UNK         0.5000 
     81 O         -48.6266  -24.9842    8.2112 O.2       1 UNK        -0.5238 
     82 H82       -50.5144  -24.8924    2.6245 H         1 UNK         0.0889 
     83 H83       -49.1981  -26.0308    2.3314 H         1 UNK         0.0889 
     84 H84       -48.8510  -24.3099    2.5175 H         1 UNK         0.0889 
     85 H85       -51.2435  -24.9581    4.7320 H         1 UNK         0.3028 
     86 H86       -51.3789  -25.0562    6.9466 H         1 UNK         0.0864 
     87 H87       -49.3383  -27.3058    6.6221 H         1 UNK         0.0720 
     88 H88       -50.2392  -27.0179    8.0795 H         1 UNK         0.0720 
     89 H89       -53.5663  -28.7503    7.4727 H         1 UNK         0.0814 
     90 H90       -53.0418  -27.2226    8.1364 H         1 UNK         0.0814 
     91 H91       -50.2988  -29.6670    7.8879 H         1 UNK         0.1469 
     92 H92       -50.4327  -30.6886   12.0365 H         1 UNK         0.1381 
     93 H93       -53.6173  -28.4035   10.3055 H         1 UNK         0.1206 
     94 H94       -53.4710  -28.6436   12.6948 H         1 UNK         0.0813 
     95 H95       -52.0588  -29.3432   13.4485 H         1 UNK         0.0813 
     96 H96       -54.0873  -29.7350   14.9977 H         1 UNK         0.0638 
     97 H97       -54.4818  -31.4210   15.2058 H         1 UNK         0.0638 
     98 H98       -56.5171  -31.1320   13.7802 H         1 UNK         0.0568 
     99 H99       -58.1219  -29.0411   16.7597 H         1 UNK         0.3450 
    100 H100      -57.6774  -28.2913   15.2471 H         1 UNK         0.3450 
    101 H101      -55.6246  -28.3292   13.5572 H         1 UNK         0.2987 
    102 H102      -56.7430  -27.7128   10.8950 H         1 UNK         0.0766 
    103 H103      -58.8226  -26.3120   10.7780 H         1 UNK         0.0798 
    104 H104      -59.4821  -27.1797   12.1639 H         1 UNK         0.0798 
    105 H105      -59.1803  -28.0249   10.6529 H         1 UNK         0.0798 
    106 H106      -56.0028  -26.0031   12.0872 H         1 UNK         0.3198 
    107 H107      -55.5574  -24.5816   13.6151 H         1 UNK         0.0843 
    108 H108      -57.9023  -23.9548   15.4921 H         1 UNK         0.0831 
    109 H109      -57.7238  -23.3444   13.8538 H         1 UNK         0.0831 
    110 H110      -56.5709  -22.8689   15.0896 H         1 UNK         0.0831 
    111 H111      -55.7586  -24.8744   16.4032 H         1 UNK         0.3133 
    112 H112      -54.0422  -25.7493   17.5294 H         1 UNK         0.0566 
    113 H113      -54.5278  -28.7562   17.0747 H         1 UNK         0.0814 
    114 H114      -54.2848  -27.9594   18.6241 H         1 UNK         0.0814 
    115 H115      -55.7426  -27.6525   17.7034 H         1 UNK         0.0814 
    116 H116      -52.3403  -26.9039   15.6416 H         1 UNK         0.3091 
    117 H117      -49.4753  -27.0192   17.7852 H         1 UNK         0.0702 
    118 H118      -48.8996  -28.7865   16.1314 H         1 UNK         0.0785 
    119 H119      -50.5901  -28.9226   15.6533 H         1 UNK         0.0785 
    120 H120      -50.0931  -29.3780   17.2769 H         1 UNK         0.0785 
    121 H121      -49.7262  -26.6609   14.9708 H         1 UNK         0.2998 
    122 H122      -50.3138  -23.2408   14.8257 H         1 UNK         0.0697 
    123 H123      -47.4026  -24.1971   14.9210 H         1 UNK         0.0825 
    124 H124      -48.0719  -22.8248   15.7907 H         1 UNK         0.0825 
    125 H125      -47.9797  -22.7843   14.0374 H         1 UNK         0.0825 
    126 H126      -48.8662  -24.9830   13.0473 H         1 UNK         0.3029 
    127 H127      -51.5835  -26.8439   11.8938 H         1 UNK         0.0897 
    128 H128      -52.2471  -24.7148   10.7204 H         1 UNK         0.0792 
    129 H129      -51.4326  -25.8412    9.6565 H         1 UNK         0.0792 
    130 H130      -50.5643  -24.4389   10.2897 H         1 UNK         0.0792 
    131 H131      -49.0669  -26.3560   10.6486 H         1 UNK         0.3086 
    132 H132      -46.9628  -27.8072   12.9531 H         1 UNK         0.0583 
    133 H133      -46.2505  -29.6747   11.7763 H         1 UNK         0.1020 
    134 H134      -47.8973  -30.0418   12.1557 H         1 UNK         0.1020 
    135 H135      -48.8582  -31.4812    8.8534 H         1 UNK         0.0694 
    136 H136      -48.7149  -31.6558   10.5826 H         1 UNK         0.0694 
    137 H137      -46.4696  -27.3187   10.2141 H         1 UNK         0.2989 
    138 H138      -46.5281  -23.9163   10.1898 H         1 UNK         0.1055 
    139 H139      -44.5760  -23.7227   11.6733 H         1 UNK         0.0806 
    140 H140      -44.0582  -23.6318    9.9975 H         1 UNK         0.0806 
    141 H141      -43.8060  -25.1112   10.9259 H         1 UNK         0.0806 
    142 H142      -46.5499  -25.0354    8.3233 H         1 UNK         0.3061 
    143 H143      -44.2573  -27.0609    6.6165 H         1 UNK         0.0734 
    144 H144      -46.4259  -28.0539    5.7441 H         1 UNK         0.0832 
    145 H145      -45.8952  -28.7669    7.2606 H         1 UNK         0.0832 
    146 H146      -47.2025  -27.5960    7.2611 H         1 UNK         0.0832 
    147 H147      -46.5877  -25.5343    5.8485 H         1 UNK         0.3156 
    148 H148      -44.8363  -22.4227    5.4292 H         1 UNK         0.0589 
    149 H149      -46.2335  -24.3510    3.4976 H         1 UNK         0.0808 
    150 H150      -46.0550  -22.6123    3.2647 H         1 UNK         0.0808 
    151 H151      -44.6384  -23.6487    3.2940 H         1 UNK         0.0808 
    152 H152      -47.6057  -23.3241    5.3477 H         1 UNK         0.3098 
    153 H153      -48.4115  -22.3211    8.6260 H         1 UNK         0.0720 
    154 H154      -49.9273  -20.6349    7.6138 H         1 UNK         0.0791 
    155 H155      -48.9863  -20.6454    6.1211 H         1 UNK         0.0791 
    156 H156      -48.2744  -20.0451    7.6122 H         1 UNK         0.0791 
    157 H157      -50.0041  -22.8974    6.2927 H         1 UNK         0.3028 
@<TRIPOS>BOND
     1    1    2 1    
     2    1   82 1    
     3    1   83 1    
     4    1   84 1    
     5    2    3 2    
     6    2    4 am   BACKBONE|DICT|INTERRES
     7    4    5 1    
     8    4   85 1    
     9    5    6 1    
    10    5   80 1    
    11    5   86 1    
    12    6    7 1    
    13    6   87 1    
    14    6   88 1    
    15    7    8 1    
    16    8    9 1    
    17    8   89 1    
    18    8   90 1    
    19    9   10 ar   
    20    9   14 ar   
    21   10   11 ar   
    22   10   91 1    
    23   11   12 ar   
    24   11   58 1    
    25   12   13 ar   
    26   12   92 1    
    27   13   14 ar   
    28   13   15 1    
    29   14   93 1    
    30   15   16 1    
    31   15   94 1    
    32   15   95 1    
    33   16   17 1    
    34   17   18 1    
    35   17   96 1    
    36   17   97 1    
    37   18   19 1    
    38   18   22 1    
    39   18   98 1    
    40   19   20 am   BACKBONE|DICT|INTERRES
    41   19   21 2    
    42   20   99 1    
    43   20  100 1    
    44   22   23 am   BACKBONE|DICT|INTERRES
    45   22  101 1    
    46   23   24 2    
    47   23   25 1    
    48   25   26 1    
    49   25   27 1    
    50   25  102 1    
    51   26  103 1    
    52   26  104 1    
    53   26  105 1    
    54   27   28 am   BACKBONE|DICT|INTERRES
    55   27  106 1    
    56   28   29 2    
    57   28   30 1    
    58   30   31 1    
    59   30   32 1    
    60   30  107 1    
    61   31  108 1    
    62   31  109 1    
    63   31  110 1    
    64   32   33 am   BACKBONE|DICT|INTERRES
    65   32  111 1    
    66   33   34 2    
    67   33   35 1    
    68   35   36 1    
    69   35   37 1    
    70   35  112 1    
    71   36  113 1    
    72   36  114 1    
    73   36  115 1    
    74   37   38 am   BACKBONE|DICT|INTERRES
    75   37  116 1    
    76   38   39 2    
    77   38   40 1    
    78   40   41 1    
    79   40   42 1    
    80   40  117 1    
    81   41  118 1    
    82   41  119 1    
    83   41  120 1    
    84   42   43 am   BACKBONE|DICT|INTERRES
    85   42  121 1    
    86   43   44 2    
    87   43   45 1    
    88   45   46 1    
    89   45   47 1    
    90   45  122 1    
    91   46  123 1    
    92   46  124 1    
    93   46  125 1    
    94   47   48 am   BACKBONE|DICT|INTERRES
    95   47  126 1    
    96   48   49 2    
    97   48   50 1    
    98   50   51 1    
    99   50   52 1    
   100   50  127 1    
   101   51  128 1    
   102   51  129 1    
   103   51  130 1    
   104   52   53 am   BACKBONE|DICT|INTERRES
   105   52  131 1    
   106   53   54 2    
   107   53   55 1    
   108   55   56 1    
   109   55   59 1    
   110   55  132 1    
   111   56   57 1    
   112   56  133 1    
   113   56  134 1    
   114   57   58 1    
   115   58  135 1    
   116   58  136 1    
   117   59   60 am   BACKBONE|DICT|INTERRES
   118   59  137 1    
   119   60   61 2    
   120   60   62 1    
   121   62   63 1    
   122   62   64 1    
   123   62  138 1    
   124   63  139 1    
   125   63  140 1    
   126   63  141 1    
   127   64   65 am   BACKBONE|DICT|INTERRES
   128   64  142 1    
   129   65   66 2    
   130   65   67 1    
   131   67   68 1    
   132   67   69 1    
   133   67  143 1    
   134   68  144 1    
   135   68  145 1    
   136   68  146 1    
   137   69   70 am   BACKBONE|DICT|INTERRES
   138   69  147 1    
   139   70   71 2    
   140   70   72 1    
   141   72   73 1    
   142   72   74 1    
   143   72  148 1    
   144   73  149 1    
   145   73  150 1    
   146   73  151 1    
   147   74   75 am   BACKBONE|DICT|INTERRES
   148   74  152 1    
   149   75   76 2    
   150   75   77 1    
   151   77   78 1    
   152   77   79 1    
   153   77  153 1    
   154   78  154 1    
   155   78  155 1    
   156   78  156 1    
   157   79   80 am   BACKBONE|DICT|INTERRES
   158   79  157 1    
   159   80   81 2    
@<TRIPOS>SUBSTRUCTURE
     1 UNK         1 GROUP             0       ****    0 ROOT    
