@<TRIPOS>MOLECULE
3R207
157   159    1
SMALL
USER_CHARGES


@<TRIPOS>ATOM
      1 CA        -48.6617  -31.0017    9.5869 C.3       0 UNK        -0.1975 
      2 C         -48.5354  -30.4402    8.1785 C.2       0 UNK         0.4852 
      3 O         -47.4292  -30.3737    7.6413 O.2       0 UNK        -0.5216 
      4 N         -49.6622  -30.0405    7.5797 N.am      1 UNK        -0.4461 
      5 CA        -49.7373  -29.3299    6.2997 C.3       1 UNK         0.0864 
      6 C6        -51.0469  -29.6667    5.5352 C.3       14 UNK        -0.0898 
      7 S7        -52.5748  -29.5547    6.5328 S.3       14 UNK        -0.2598 
      8 C8        -53.3487  -28.0174    5.9360 C.3       14 UNK         0.0286 
      9 C9        -53.4648  -26.9997    7.0590 C.ar      14 UNK        -0.0844 
     10 C10       -52.6509  -25.8646    7.0808 C.ar      14 UNK        -0.0881 
     11 C11       -52.7443  -24.9301    8.1170 C.ar      14 UNK        -0.0643 
     12 C12       -53.6620  -25.1623    9.1535 C.ar      14 UNK        -0.0930 
     13 C13       -54.4932  -26.2870    9.1352 C.ar      14 UNK        -0.0827 
     14 C14       -54.3960  -27.1959    8.0804 C.ar      14 UNK        -0.1249 
     15 C15       -55.5046  -26.5165   10.2481 C.3       14 UNK         0.0141 
     16 S16       -54.8172  -27.5405   11.5841 S.3       14 UNK        -0.2313 
     17 C17       -54.8282  -29.2053   10.8434 C.3       14 UNK        -0.0915 
     18 CA        -54.9145  -30.3191   11.9282 C.3       13 UNK         0.0968 
     19 C         -55.3173  -31.7105   11.3450 C.2       13 UNK         0.5732 
     20 N         -54.9000  -32.8219   11.9406 N.am      13 UNK        -0.7310 
     21 O         -56.0530  -31.7936   10.3640 O.2       13 UNK        -0.5035 
     22 N         -53.7445  -30.3420   12.8300 N.am      13 UNK        -0.4233 
     23 C         -52.4919  -30.6873   12.4947 C.2       13 UNK         0.4989 
     24 O         -52.1470  -30.9840   11.3502 O.2       13 UNK        -0.4996 
     25 CA        -51.4507  -30.7327   13.6300 C.3       12 UNK         0.0216 
     26 CB        -50.0098  -30.5480   13.1178 C.3       12 UNK        -0.1964 
     27 N         -51.7278  -29.7340   14.6664 N.am      12 UNK        -0.4276 
     28 C         -52.1896  -30.0016   15.8958 C.2       12 UNK         0.5020 
     29 O         -52.4429  -31.1368   16.3005 O.2       12 UNK        -0.5489 
     30 CA        -52.4195  -28.8047   16.8377 C.3       11 UNK         0.0294 
     31 CB        -51.2438  -28.6646   17.8166 C.3       11 UNK        -0.2019 
     32 N         -52.6289  -27.5327   16.1354 N.am      11 UNK        -0.4493 
     33 C         -53.7250  -27.2466   15.4149 C.2       11 UNK         0.4932 
     34 O         -54.6637  -28.0342   15.2872 O.2       11 UNK        -0.5029 
     35 CA        -53.7737  -25.8969   14.6733 C.3       10 UNK         0.0280 
     36 CB        -55.1789  -25.2583   14.6826 C.3       10 UNK        -0.1976 
     37 N         -52.7355  -24.9412   15.0672 N.am      10 UNK        -0.4242 
     38 C         -52.6308  -24.2619   16.2178 C.2       10 UNK         0.5072 
     39 O         -53.4300  -24.3574   17.1510 O.2       10 UNK        -0.5224 
     40 CA        -51.4131  -23.3236   16.3347 C.3       9 UNK         0.0343 
     41 CB        -51.1780  -22.8141   17.7730 C.3       9 UNK        -0.2003 
     42 N         -50.1810  -23.9012   15.7813 N.am      9 UNK        -0.4272 
     43 C         -49.5660  -25.0268   16.1794 C.2       9 UNK         0.4988 
     44 O         -50.0133  -25.7579   17.0627 O.2       9 UNK        -0.5108 
     45 CA        -48.2535  -25.4411   15.4792 C.3       8 UNK         0.0248 
     46 CB        -48.3222  -26.9095   15.0210 C.3       8 UNK        -0.2001 
     47 N         -47.8915  -24.6030   14.3326 N.am      8 UNK        -0.4140 
     48 C         -47.3658  -23.3717   14.3931 C.2       8 UNK         0.5028 
     49 O         -47.0416  -22.8158   15.4427 O.2       8 UNK        -0.5428 
     50 CA        -47.2447  -22.6054   13.0615 C.3       7 UNK         0.0264 
     51 CB        -45.9115  -22.9181   12.3644 C.3       7 UNK        -0.1988 
     52 N         -48.3575  -22.8720   12.1416 N.am      7 UNK        -0.4454 
     53 C         -49.6454  -22.5923   12.3984 C.2       7 UNK         0.5027 
     54 O         -50.0282  -22.0308   13.4253 O.2       7 UNK        -0.5083 
     55 CA        -50.6879  -23.0709   11.3703 C.3       6 UNK         0.0844 
     56 C56       -50.7944  -22.0859   10.1788 C.3       14 UNK        -0.0967 
     57 S57       -52.3031  -22.3387    9.1876 S.3       14 UNK        -0.2604 
     58 C58       -51.8263  -23.7049    8.0707 C.3       14 UNK         0.0134 
     59 N         -50.3917  -24.4431   10.9506 N.am      6 UNK        -0.4116 
     60 C         -50.5536  -25.5277   11.7192 C.2       5 UNK         0.5034 
     61 O         -51.0371  -25.4985   12.8508 O.2       5 UNK        -0.5045 
     62 CA        -50.0289  -26.8620   11.1637 C.3       5 UNK         0.0224 
     63 CB        -51.1222  -27.6300   10.4106 C.3       5 UNK        -0.1978 
     64 N         -48.8494  -26.7096   10.3081 N.am      5 UNK        -0.4737 
     65 C         -47.6460  -26.3572   10.7770 C.2       4 UNK         0.5027 
     66 O         -47.4247  -26.1367   11.9658 O.2       4 UNK        -0.5211 
     67 CA        -46.5036  -26.1825    9.7644 C.3       4 UNK         0.0297 
     68 CB        -45.8869  -27.5439    9.4133 C.3       4 UNK        -0.1993 
     69 N         -46.8612  -25.4758    8.5306 N.am      4 UNK        -0.4486 
     70 C         -47.4545  -24.2763    8.4437 C.2       3 UNK         0.4961 
     71 O         -47.8901  -23.6615    9.4166 O.2       3 UNK        -0.5105 
     72 CA        -47.5542  -23.6259    7.0484 C.3       3 UNK         0.0299 
     73 CB        -46.7781  -22.2983    7.0356 C.3       3 UNK        -0.1972 
     74 N         -47.0212  -24.4843    5.9822 N.am      3 UNK        -0.4305 
     75 C         -47.6522  -25.4343    5.2766 C.2       2 UNK         0.5006 
     76 O         -47.0384  -26.1494    4.4845 O.2       2 UNK        -0.5106 
     77 CA        -49.1758  -25.6274    5.4039 C.3       2 UNK         0.0296 
     78 CB        -49.8953  -24.9388    4.2315 C.3       2 UNK        -0.2002 
     79 N         -49.4901  -27.0561    5.3946 N.am      2 UNK        -0.4032 
     80 C         -49.5159  -27.8134    6.4991 C.2       1 UNK         0.5000 
     81 O         -49.3593  -27.3476    7.6316 O.2       1 UNK        -0.5238 
     82 H82       -48.1864  -31.9803    9.6480 H         1 UNK         0.0889 
     83 H83       -49.7040  -31.1121    9.8872 H         1 UNK         0.0889 
     84 H84       -48.1722  -30.3368   10.2983 H         1 UNK         0.0889 
     85 H85       -50.5410  -30.0998    8.0749 H         1 UNK         0.3028 
     86 H86       -48.9085  -29.6684    5.6738 H         1 UNK         0.0864 
     87 H87       -50.9836  -30.7010    5.1935 H         1 UNK         0.0720 
     88 H88       -51.1441  -29.0829    4.6192 H         1 UNK         0.0720 
     89 H89       -54.3446  -28.2495    5.5560 H         1 UNK         0.0814 
     90 H90       -52.7946  -27.5999    5.0947 H         1 UNK         0.0814 
     91 H91       -51.9383  -25.7088    6.2860 H         1 UNK         0.1469 
     92 H92       -53.7414  -24.4739    9.9821 H         1 UNK         0.1381 
     93 H93       -55.0316  -28.0704    8.0627 H         1 UNK         0.1206 
     94 H94       -56.4108  -26.9781    9.8532 H         1 UNK         0.0813 
     95 H95       -55.8138  -25.5588   10.6694 H         1 UNK         0.0813 
     96 H96       -55.6857  -29.2582   10.1713 H         1 UNK         0.0638 
     97 H97       -53.9419  -29.3271   10.2191 H         1 UNK         0.0638 
     98 H98       -55.7568  -30.0639   12.5721 H         1 UNK         0.0568 
     99 H99       -55.1769  -33.7147   11.5644 H         1 UNK         0.3450 
    100 H100      -54.3134  -32.7777   12.7576 H         1 UNK         0.3450 
    101 H101      -53.9367  -30.1026   13.7924 H         1 UNK         0.2987 
    102 H102      -51.5129  -31.7362   14.0555 H         1 UNK         0.0766 
    103 H103      -49.8961  -29.6274   12.5495 H         1 UNK         0.0798 
    104 H104      -49.7228  -31.3708   12.4621 H         1 UNK         0.0798 
    105 H105      -49.2933  -30.5286   13.9392 H         1 UNK         0.0798 
    106 H106      -51.5863  -28.7663   14.4148 H         1 UNK         0.3198 
    107 H107      -53.3192  -29.0173   17.4195 H         1 UNK         0.0843 
    108 H108      -51.4058  -27.8474   18.5199 H         1 UNK         0.0831 
    109 H109      -50.3046  -28.4772   17.2957 H         1 UNK         0.0831 
    110 H110      -51.1136  -29.5753   18.4029 H         1 UNK         0.0831 
    111 H111      -51.9061  -26.8298   16.2333 H         1 UNK         0.3133 
    112 H112      -53.5367  -26.1312   13.6374 H         1 UNK         0.0566 
    113 H113      -55.9097  -25.9197   14.2154 H         1 UNK         0.0814 
    114 H114      -55.5282  -25.0563   15.6952 H         1 UNK         0.0814 
    115 H115      -55.1927  -24.3214   14.1259 H         1 UNK         0.0814 
    116 H116      -51.9923  -24.8410   14.3788 H         1 UNK         0.3091 
    117 H117      -51.6440  -22.4561   15.7149 H         1 UNK         0.0702 
    118 H118      -50.3271  -22.1344   17.8181 H         1 UNK         0.0785 
    119 H119      -50.9905  -23.6336   18.4676 H         1 UNK         0.0785 
    120 H120      -52.0474  -22.2683   18.1416 H         1 UNK         0.0785 
    121 H121      -49.7720  -23.3750   15.0173 H         1 UNK         0.2998 
    122 H122      -47.4587  -25.3579   16.2230 H         1 UNK         0.0697 
    123 H123      -47.3985  -27.2175   14.5308 H         1 UNK         0.0825 
    124 H124      -48.4733  -27.5807   15.8669 H         1 UNK         0.0825 
    125 H125      -49.1431  -27.0733   14.3235 H         1 UNK         0.0825 
    126 H126      -48.0247  -25.0186   13.4141 H         1 UNK         0.3029 
    127 H127      -47.2637  -21.5388   13.2953 H         1 UNK         0.0897 
    128 H128      -45.8042  -22.3521   11.4387 H         1 UNK         0.0792 
    129 H129      -45.0678  -22.6580   13.0048 H         1 UNK         0.0792 
    130 H130      -45.8205  -23.9765   12.1216 H         1 UNK         0.0792 
    131 H131      -48.1247  -23.2991   11.2471 H         1 UNK         0.3086 
    132 H132      -51.6531  -23.0820   11.8822 H         1 UNK         0.0583 
    133 H133      -50.8384  -21.0580   10.5451 H         1 UNK         0.1020 
    134 H134      -49.9164  -22.1271    9.5339 H         1 UNK         0.1020 
    135 H135      -51.8153  -23.3075    7.0546 H         1 UNK         0.0694 
    136 H136      -50.8062  -24.0270    8.2774 H         1 UNK         0.0694 
    137 H137      -49.9014  -24.5519   10.0746 H         1 UNK         0.2989 
    138 H138      -49.7345  -27.4586   12.0266 H         1 UNK         0.1055 
    139 H139      -51.4393  -27.1070    9.5090 H         1 UNK         0.0806 
    140 H140      -52.0015  -27.7675   11.0380 H         1 UNK         0.0806 
    141 H141      -50.7807  -28.6217   10.1158 H         1 UNK         0.0806 
    142 H142      -48.9688  -26.8906    9.3097 H         1 UNK         0.3061 
    143 H143      -45.7334  -25.5846   10.2550 H         1 UNK         0.0734 
    144 H144      -44.9780  -27.4307    8.8225 H         1 UNK         0.0832 
    145 H145      -45.6198  -28.0992   10.3137 H         1 UNK         0.0832 
    146 H146      -46.5831  -28.1596    8.8444 H         1 UNK         0.0832 
    147 H147      -46.5627  -25.9103    7.6704 H         1 UNK         0.3156 
    148 H148      -48.5986  -23.3770    6.8608 H         1 UNK         0.0589 
    149 H149      -45.7191  -22.4445    7.2527 H         1 UNK         0.0808 
    150 H150      -46.8573  -21.8012    6.0685 H         1 UNK         0.0808 
    151 H151      -47.1701  -21.6072    7.7834 H         1 UNK         0.0808 
    152 H152      -46.0309  -24.3772    5.8126 H         1 UNK         0.3098 
    153 H153      -49.5538  -25.2039    6.3327 H         1 UNK         0.0720 
    154 H154      -49.7264  -23.8613    4.2530 H         1 UNK         0.0791 
    155 H155      -49.5389  -25.3040    3.2672 H         1 UNK         0.0791 
    156 H156      -50.9726  -25.0975    4.2667 H         1 UNK         0.0791 
    157 H157      -49.5494  -27.4969    4.4880 H         1 UNK         0.3028 
@<TRIPOS>BOND
     1    1    2 1    
     2    1   82 1    
     3    1   83 1    
     4    1   84 1    
     5    2    3 2    
     6    2    4 am   BACKBONE|DICT|INTERRES
     7    4    5 1    
     8    4   85 1    
     9    5    6 1    
    10    5   80 1    
    11    5   86 1    
    12    6    7 1    
    13    6   87 1    
    14    6   88 1    
    15    7    8 1    
    16    8    9 1    
    17    8   89 1    
    18    8   90 1    
    19    9   10 ar   
    20    9   14 ar   
    21   10   11 ar   
    22   10   91 1    
    23   11   12 ar   
    24   11   58 1    
    25   12   13 ar   
    26   12   92 1    
    27   13   14 ar   
    28   13   15 1    
    29   14   93 1    
    30   15   16 1    
    31   15   94 1    
    32   15   95 1    
    33   16   17 1    
    34   17   18 1    
    35   17   96 1    
    36   17   97 1    
    37   18   19 1    
    38   18   22 1    
    39   18   98 1    
    40   19   20 am   BACKBONE|DICT|INTERRES
    41   19   21 2    
    42   20   99 1    
    43   20  100 1    
    44   22   23 am   BACKBONE|DICT|INTERRES
    45   22  101 1    
    46   23   24 2    
    47   23   25 1    
    48   25   26 1    
    49   25   27 1    
    50   25  102 1    
    51   26  103 1    
    52   26  104 1    
    53   26  105 1    
    54   27   28 am   BACKBONE|DICT|INTERRES
    55   27  106 1    
    56   28   29 2    
    57   28   30 1    
    58   30   31 1    
    59   30   32 1    
    60   30  107 1    
    61   31  108 1    
    62   31  109 1    
    63   31  110 1    
    64   32   33 am   BACKBONE|DICT|INTERRES
    65   32  111 1    
    66   33   34 2    
    67   33   35 1    
    68   35   36 1    
    69   35   37 1    
    70   35  112 1    
    71   36  113 1    
    72   36  114 1    
    73   36  115 1    
    74   37   38 am   BACKBONE|DICT|INTERRES
    75   37  116 1    
    76   38   39 2    
    77   38   40 1    
    78   40   41 1    
    79   40   42 1    
    80   40  117 1    
    81   41  118 1    
    82   41  119 1    
    83   41  120 1    
    84   42   43 am   BACKBONE|DICT|INTERRES
    85   42  121 1    
    86   43   44 2    
    87   43   45 1    
    88   45   46 1    
    89   45   47 1    
    90   45  122 1    
    91   46  123 1    
    92   46  124 1    
    93   46  125 1    
    94   47   48 am   BACKBONE|DICT|INTERRES
    95   47  126 1    
    96   48   49 2    
    97   48   50 1    
    98   50   51 1    
    99   50   52 1    
   100   50  127 1    
   101   51  128 1    
   102   51  129 1    
   103   51  130 1    
   104   52   53 am   BACKBONE|DICT|INTERRES
   105   52  131 1    
   106   53   54 2    
   107   53   55 1    
   108   55   56 1    
   109   55   59 1    
   110   55  132 1    
   111   56   57 1    
   112   56  133 1    
   113   56  134 1    
   114   57   58 1    
   115   58  135 1    
   116   58  136 1    
   117   59   60 am   BACKBONE|DICT|INTERRES
   118   59  137 1    
   119   60   61 2    
   120   60   62 1    
   121   62   63 1    
   122   62   64 1    
   123   62  138 1    
   124   63  139 1    
   125   63  140 1    
   126   63  141 1    
   127   64   65 am   BACKBONE|DICT|INTERRES
   128   64  142 1    
   129   65   66 2    
   130   65   67 1    
   131   67   68 1    
   132   67   69 1    
   133   67  143 1    
   134   68  144 1    
   135   68  145 1    
   136   68  146 1    
   137   69   70 am   BACKBONE|DICT|INTERRES
   138   69  147 1    
   139   70   71 2    
   140   70   72 1    
   141   72   73 1    
   142   72   74 1    
   143   72  148 1    
   144   73  149 1    
   145   73  150 1    
   146   73  151 1    
   147   74   75 am   BACKBONE|DICT|INTERRES
   148   74  152 1    
   149   75   76 2    
   150   75   77 1    
   151   77   78 1    
   152   77   79 1    
   153   77  153 1    
   154   78  154 1    
   155   78  155 1    
   156   78  156 1    
   157   79   80 am   BACKBONE|DICT|INTERRES
   158   79  157 1    
   159   80   81 2    
@<TRIPOS>SUBSTRUCTURE
     1 UNK         1 GROUP             0       ****    0 ROOT    
