@<TRIPOS>MOLECULE
3R207
157   159    1
SMALL
USER_CHARGES


@<TRIPOS>ATOM
      1 CA        -46.2086  -31.6484    2.5399 C.3       0 UNK        -0.1975 
      2 C         -47.1391  -30.7186    3.3040 C.2       0 UNK         0.4852 
      3 O         -47.2520  -30.8368    4.5249 O.2       0 UNK        -0.5216 
      4 N         -47.7939  -29.7851    2.5977 N.am      1 UNK        -0.4461 
      5 CA        -48.7538  -28.7842    3.0911 C.3       1 UNK         0.0864 
      6 C6        -49.9710  -29.4114    3.8221 C.3       14 UNK        -0.0898 
      7 S7        -51.4492  -28.3457    3.7726 S.3       14 UNK        -0.2598 
      8 C8        -52.6116  -29.3181    4.7788 C.3       14 UNK         0.0286 
      9 C9        -52.5132  -28.9806    6.2604 C.ar      14 UNK        -0.0844 
     10 C10       -51.6095  -29.6564    7.0871 C.ar      14 UNK        -0.0881 
     11 C11       -51.5659  -29.3855    8.4575 C.ar      14 UNK        -0.0643 
     12 C12       -52.4441  -28.4421    8.9947 C.ar      14 UNK        -0.0930 
     13 C13       -53.3304  -27.7279    8.1816 C.ar      14 UNK        -0.0827 
     14 C14       -53.3594  -28.0127    6.8126 C.ar      14 UNK        -0.1249 
     15 C15       -54.2884  -26.6696    8.7380 C.3       14 UNK         0.0141 
     16 S16       -53.7895  -25.8961   10.3227 S.3       14 UNK        -0.2313 
     17 C17       -54.3092  -27.1611   11.5349 C.3       14 UNK        -0.0915 
     18 CA        -55.3488  -26.6632   12.5846 C.3       13 UNK         0.0968 
     19 C         -56.8156  -26.6171   12.0579 C.2       13 UNK         0.5732 
     20 N         -57.0456  -25.9954   10.9101 N.am      13 UNK        -0.7310 
     21 O         -57.7566  -27.0990   12.6870 O.2       13 UNK        -0.5035 
     22 N         -55.2114  -27.3719   13.8669 N.am      13 UNK        -0.4233 
     23 C         -55.3297  -28.6943   14.0647 C.2       13 UNK         0.4989 
     24 O         -55.5456  -29.5062   13.1636 O.2       13 UNK        -0.4996 
     25 CA        -55.1586  -29.2243   15.5012 C.3       12 UNK         0.0216 
     26 CB        -53.8706  -30.0587   15.6166 C.3       12 UNK        -0.1964 
     27 N         -55.1212  -28.1516   16.4980 N.am      12 UNK        -0.4276 
     28 C         -56.1996  -27.6562   17.1225 C.2       12 UNK         0.5020 
     29 O         -57.3359  -28.1108   16.9844 O.2       12 UNK        -0.5489 
     30 CA        -55.9933  -26.4417   18.0507 C.3       11 UNK         0.0294 
     31 CB        -55.8818  -26.8999   19.5139 C.3       11 UNK        -0.2019 
     32 N         -54.8268  -25.6189   17.7157 N.am      11 UNK        -0.4493 
     33 C         -54.6523  -24.9602   16.5614 C.2       11 UNK         0.4932 
     34 O         -55.4860  -24.9336   15.6565 O.2       11 UNK        -0.5029 
     35 CA        -53.3000  -24.2570   16.3507 C.3       10 UNK         0.0280 
     36 CB        -53.3910  -22.7966   16.8218 C.3       10 UNK        -0.1976 
     37 N         -52.1375  -24.9004   16.9814 N.am      10 UNK        -0.4242 
     38 C         -51.7861  -26.1929   16.8902 C.2       10 UNK         0.5072 
     39 O         -52.4796  -27.0555   16.3494 O.2       10 UNK        -0.5224 
     40 CA        -50.4152  -26.5610   17.4779 C.3       9 UNK         0.0343 
     41 CB        -50.1301  -28.0733   17.4162 C.3       9 UNK        -0.2003 
     42 N         -49.4016  -25.8544   16.7016 N.am      9 UNK        -0.4272 
     43 C         -48.6239  -24.8578   17.1476 C.2       9 UNK         0.4988 
     44 O         -48.5678  -24.5075   18.3266 O.2       9 UNK        -0.5108 
     45 CA        -47.7986  -24.0883   16.0952 C.3       8 UNK         0.0248 
     46 CB        -46.3763  -24.6617   16.0037 C.3       8 UNK        -0.2001 
     47 N         -48.4225  -24.0990   14.7668 N.am      8 UNK        -0.4140 
     48 C         -49.6096  -23.5339   14.4917 C.2       8 UNK         0.5028 
     49 O         -50.1900  -22.7829   15.2758 O.2       8 UNK        -0.5428 
     50 CA        -50.3043  -23.8803   13.1586 C.3       7 UNK         0.0264 
     51 CB        -50.3825  -22.6405   12.2528 C.3       7 UNK        -0.1988 
     52 N         -49.7154  -24.9906   12.4024 N.am      7 UNK        -0.4454 
     53 C         -49.5632  -26.2553   12.8252 C.2       7 UNK         0.5027 
     54 O         -49.9177  -26.6510   13.9356 O.2       7 UNK        -0.5083 
     55 CA        -48.8329  -27.2260   11.8713 C.3       6 UNK         0.0844 
     56 C56       -49.8543  -27.8758   10.9120 C.3       14 UNK        -0.0967 
     57 S57       -49.1322  -29.1220    9.7910 S.3       14 UNK        -0.2604 
     58 C58       -50.5949  -30.1273    9.3687 C.3       14 UNK         0.0134 
     59 N         -47.7152  -26.5808   11.1678 N.am      6 UNK        -0.4116 
     60 C         -46.6677  -25.9911   11.7670 C.2       5 UNK         0.5034 
     61 O         -46.5019  -25.9615   12.9862 O.2       5 UNK        -0.5045 
     62 CA        -45.6666  -25.2610   10.8617 C.3       5 UNK         0.0224 
     63 CB        -44.6649  -26.2446   10.2345 C.3       5 UNK        -0.1978 
     64 N         -46.3677  -24.5113    9.8175 N.am      5 UNK        -0.4737 
     65 C         -46.9059  -23.2970   10.0058 C.2       4 UNK         0.5027 
     66 O         -46.7606  -22.6423   11.0377 O.2       4 UNK        -0.5211 
     67 CA        -47.7612  -22.7095    8.8669 C.3       4 UNK         0.0297 
     68 CB        -46.9094  -21.7904    7.9772 C.3       4 UNK        -0.1993 
     69 N         -48.4088  -23.7248    8.0327 N.am      4 UNK        -0.4486 
     70 C         -49.3603  -24.5703    8.4540 C.2       3 UNK         0.4961 
     71 O         -49.8362  -24.5517    9.5871 O.2       3 UNK        -0.5105 
     72 CA        -49.8081  -25.6603    7.4646 C.3       3 UNK         0.0299 
     73 CB        -50.9982  -25.1755    6.6242 C.3       3 UNK        -0.1972 
     74 N         -48.7375  -26.1277    6.5774 N.am      3 UNK        -0.4305 
     75 C         -47.5754  -26.6643    6.9757 C.2       2 UNK         0.5006 
     76 O         -47.2508  -26.7622    8.1600 O.2       2 UNK        -0.5106 
     77 CA        -46.6139  -27.1475    5.8711 C.3       2 UNK         0.0296 
     78 CB        -45.3747  -27.8636    6.4400 C.3       2 UNK        -0.2002 
     79 N         -47.2762  -28.0378    4.9163 N.am      2 UNK        -0.4032 
     80 C         -48.1032  -27.6651    3.9323 C.2       1 UNK         0.5000 
     81 O         -48.3718  -26.4862    3.6910 O.2       1 UNK        -0.5238 
     82 H82       -45.1897  -31.5482    2.9128 H         1 UNK         0.0889 
     83 H83       -46.2020  -31.4330    1.4716 H         1 UNK         0.0889 
     84 H84       -46.5208  -32.6836    2.6751 H         1 UNK         0.0889 
     85 H85       -47.6200  -29.7346    1.6028 H         1 UNK         0.3028 
     86 H86       -49.1259  -28.3036    2.1844 H         1 UNK         0.0864 
     87 H87       -50.2414  -30.3556    3.3467 H         1 UNK         0.0720 
     88 H88       -49.7253  -29.6544    4.8566 H         1 UNK         0.0720 
     89 H89       -52.4447  -30.3846    4.6198 H         1 UNK         0.0814 
     90 H90       -53.6242  -29.1201    4.4240 H         1 UNK         0.0814 
     91 H91       -50.9523  -30.4058    6.6692 H         1 UNK         0.1469 
     92 H92       -52.4226  -28.2663   10.0561 H         1 UNK         0.1381 
     93 H93       -54.0534  -27.4853    6.1721 H         1 UNK         0.1206 
     94 H94       -55.2805  -27.1108    8.8408 H         1 UNK         0.0813 
     95 H95       -54.3867  -25.8668    8.0056 H         1 UNK         0.0813 
     96 H96       -53.3970  -27.4717   12.0472 H         1 UNK         0.0638 
     97 H97       -54.6764  -28.0515   11.0215 H         1 UNK         0.0638 
     98 H98       -55.1043  -25.6303   12.8352 H         1 UNK         0.0568 
     99 H99       -57.9884  -25.9387   10.5589 H         1 UNK         0.3450 
    100 H100      -56.2850  -25.5742   10.3994 H         1 UNK         0.3450 
    101 H101      -55.1128  -26.7705   14.6747 H         1 UNK         0.2987 
    102 H102      -56.0044  -29.8837   15.7073 H         1 UNK         0.0766 
    103 H103      -53.7380  -30.4480   16.6261 H         1 UNK         0.0798 
    104 H104      -52.9850  -29.4747   15.3631 H         1 UNK         0.0798 
    105 H105      -53.8982  -30.9146   14.9409 H         1 UNK         0.0798 
    106 H106      -54.2142  -27.7070   16.6353 H         1 UNK         0.3198 
    107 H107      -56.8789  -25.8097   17.9556 H         1 UNK         0.0843 
    108 H108      -54.9984  -27.5184   19.6775 H         1 UNK         0.0831 
    109 H109      -56.7513  -27.4917   19.8042 H         1 UNK         0.0831 
    110 H110      -55.8302  -26.0501   20.1949 H         1 UNK         0.0831 
    111 H111      -54.0802  -25.5891   18.3949 H         1 UNK         0.3133 
    112 H112      -53.1073  -24.2540   15.2762 H         1 UNK         0.0566 
    113 H113      -52.4919  -22.2367   16.5650 H         1 UNK         0.0814 
    114 H114      -54.2311  -22.2846   16.3499 H         1 UNK         0.0814 
    115 H115      -53.5321  -22.7285   17.9012 H         1 UNK         0.0814 
    116 H116      -51.4808  -24.2735   17.4253 H         1 UNK         0.3091 
    117 H117      -50.4041  -26.2486   18.5240 H         1 UNK         0.0702 
    118 H118      -49.1582  -28.3096   17.8493 H         1 UNK         0.0785 
    119 H119      -50.1378  -28.4433   16.3897 H         1 UNK         0.0785 
    120 H120      -50.8808  -28.6357   17.9728 H         1 UNK         0.0785 
    121 H121      -49.4197  -26.0522   15.7034 H         1 UNK         0.2998 
    122 H122      -47.7286  -23.0490   16.4231 H         1 UNK         0.0697 
    123 H123      -46.3830  -25.7108   15.7049 H         1 UNK         0.0825 
    124 H124      -45.8691  -24.6012   16.9675 H         1 UNK         0.0825 
    125 H125      -45.7706  -24.1121   15.2828 H         1 UNK         0.0825 
    126 H126      -47.9884  -24.6899   14.0676 H         1 UNK         0.3029 
    127 H127      -51.3238  -24.1779   13.4122 H         1 UNK         0.0897 
    128 H128      -50.9874  -22.8341   11.3667 H         1 UNK         0.0792 
    129 H129      -50.8397  -21.7987   12.7747 H         1 UNK         0.0792 
    130 H130      -49.3933  -22.3222   11.9224 H         1 UNK         0.0792 
    131 H131      -49.4771  -24.7859   11.4340 H         1 UNK         0.3086 
    132 H132      -48.4012  -28.0168   12.4882 H         1 UNK         0.0583 
    133 H133      -50.6377  -28.3608   11.4979 H         1 UNK         0.1020 
    134 H134      -50.3464  -27.1111   10.3096 H         1 UNK         0.1020 
    135 H135      -50.2547  -31.0441    8.8848 H         1 UNK         0.0694 
    136 H136      -51.1036  -30.4402   10.2818 H         1 UNK         0.0694 
    137 H137      -47.7455  -26.6033   10.1536 H         1 UNK         0.2989 
    138 H138      -45.1020  -24.5620   11.4835 H         1 UNK         0.1055 
    139 H139      -44.0733  -26.7362   11.0079 H         1 UNK         0.0806 
    140 H140      -43.9683  -25.7331    9.5703 H         1 UNK         0.0806 
    141 H141      -45.1597  -27.0295    9.6627 H         1 UNK         0.0806 
    142 H142      -46.5863  -25.0223    8.9692 H         1 UNK         0.3061 
    143 H143      -48.5476  -22.1076    9.3275 H         1 UNK         0.0734 
    144 H144      -47.5160  -21.2986    7.2165 H         1 UNK         0.0832 
    145 H145      -46.4371  -21.0049    8.5690 H         1 UNK         0.0832 
    146 H146      -46.1137  -22.3396    7.4722 H         1 UNK         0.0832 
    147 H147      -48.0766  -23.8188    7.0841 H         1 UNK         0.3156 
    148 H148      -50.1383  -26.5221    8.0468 H         1 UNK         0.0589 
    149 H149      -50.7343  -24.3209    6.0003 H         1 UNK         0.0808 
    150 H150      -51.3693  -25.9667    5.9724 H         1 UNK         0.0808 
    151 H151      -51.8273  -24.8728    7.2658 H         1 UNK         0.0808 
    152 H152      -48.9074  -26.0755    5.5777 H         1 UNK         0.3098 
    153 H153      -46.2684  -26.2599    5.3371 H         1 UNK         0.0720 
    154 H154      -44.6965  -28.1760    5.6457 H         1 UNK         0.0791 
    155 H155      -45.6508  -28.7494    7.0138 H         1 UNK         0.0791 
    156 H156      -44.8118  -27.2058    7.1035 H         1 UNK         0.0791 
    157 H157      -47.1449  -29.0385    5.0474 H         1 UNK         0.3028 
@<TRIPOS>BOND
     1    1    2 1    
     2    1   82 1    
     3    1   83 1    
     4    1   84 1    
     5    2    3 2    
     6    2    4 am   BACKBONE|DICT|INTERRES
     7    4    5 1    
     8    4   85 1    
     9    5    6 1    
    10    5   80 1    
    11    5   86 1    
    12    6    7 1    
    13    6   87 1    
    14    6   88 1    
    15    7    8 1    
    16    8    9 1    
    17    8   89 1    
    18    8   90 1    
    19    9   10 ar   
    20    9   14 ar   
    21   10   11 ar   
    22   10   91 1    
    23   11   12 ar   
    24   11   58 1    
    25   12   13 ar   
    26   12   92 1    
    27   13   14 ar   
    28   13   15 1    
    29   14   93 1    
    30   15   16 1    
    31   15   94 1    
    32   15   95 1    
    33   16   17 1    
    34   17   18 1    
    35   17   96 1    
    36   17   97 1    
    37   18   19 1    
    38   18   22 1    
    39   18   98 1    
    40   19   20 am   BACKBONE|DICT|INTERRES
    41   19   21 2    
    42   20   99 1    
    43   20  100 1    
    44   22   23 am   BACKBONE|DICT|INTERRES
    45   22  101 1    
    46   23   24 2    
    47   23   25 1    
    48   25   26 1    
    49   25   27 1    
    50   25  102 1    
    51   26  103 1    
    52   26  104 1    
    53   26  105 1    
    54   27   28 am   BACKBONE|DICT|INTERRES
    55   27  106 1    
    56   28   29 2    
    57   28   30 1    
    58   30   31 1    
    59   30   32 1    
    60   30  107 1    
    61   31  108 1    
    62   31  109 1    
    63   31  110 1    
    64   32   33 am   BACKBONE|DICT|INTERRES
    65   32  111 1    
    66   33   34 2    
    67   33   35 1    
    68   35   36 1    
    69   35   37 1    
    70   35  112 1    
    71   36  113 1    
    72   36  114 1    
    73   36  115 1    
    74   37   38 am   BACKBONE|DICT|INTERRES
    75   37  116 1    
    76   38   39 2    
    77   38   40 1    
    78   40   41 1    
    79   40   42 1    
    80   40  117 1    
    81   41  118 1    
    82   41  119 1    
    83   41  120 1    
    84   42   43 am   BACKBONE|DICT|INTERRES
    85   42  121 1    
    86   43   44 2    
    87   43   45 1    
    88   45   46 1    
    89   45   47 1    
    90   45  122 1    
    91   46  123 1    
    92   46  124 1    
    93   46  125 1    
    94   47   48 am   BACKBONE|DICT|INTERRES
    95   47  126 1    
    96   48   49 2    
    97   48   50 1    
    98   50   51 1    
    99   50   52 1    
   100   50  127 1    
   101   51  128 1    
   102   51  129 1    
   103   51  130 1    
   104   52   53 am   BACKBONE|DICT|INTERRES
   105   52  131 1    
   106   53   54 2    
   107   53   55 1    
   108   55   56 1    
   109   55   59 1    
   110   55  132 1    
   111   56   57 1    
   112   56  133 1    
   113   56  134 1    
   114   57   58 1    
   115   58  135 1    
   116   58  136 1    
   117   59   60 am   BACKBONE|DICT|INTERRES
   118   59  137 1    
   119   60   61 2    
   120   60   62 1    
   121   62   63 1    
   122   62   64 1    
   123   62  138 1    
   124   63  139 1    
   125   63  140 1    
   126   63  141 1    
   127   64   65 am   BACKBONE|DICT|INTERRES
   128   64  142 1    
   129   65   66 2    
   130   65   67 1    
   131   67   68 1    
   132   67   69 1    
   133   67  143 1    
   134   68  144 1    
   135   68  145 1    
   136   68  146 1    
   137   69   70 am   BACKBONE|DICT|INTERRES
   138   69  147 1    
   139   70   71 2    
   140   70   72 1    
   141   72   73 1    
   142   72   74 1    
   143   72  148 1    
   144   73  149 1    
   145   73  150 1    
   146   73  151 1    
   147   74   75 am   BACKBONE|DICT|INTERRES
   148   74  152 1    
   149   75   76 2    
   150   75   77 1    
   151   77   78 1    
   152   77   79 1    
   153   77  153 1    
   154   78  154 1    
   155   78  155 1    
   156   78  156 1    
   157   79   80 am   BACKBONE|DICT|INTERRES
   158   79  157 1    
   159   80   81 2    
@<TRIPOS>SUBSTRUCTURE
     1 UNK         1 GROUP             0       ****    0 ROOT    
