@<TRIPOS>MOLECULE
3R207
157   159    1
SMALL
USER_CHARGES


@<TRIPOS>ATOM
      1 CA        -50.3865  -29.4866    9.5661 C.3       0 UNK        -0.1975 
      2 C         -50.1448  -29.0815    8.1194 C.2       0 UNK         0.4852 
      3 O         -50.4256  -27.9452    7.7550 O.2       0 UNK        -0.5216 
      4 N         -49.5969  -29.9954    7.3060 N.am      1 UNK        -0.4461 
      5 CA        -49.3290  -29.9114    5.8567 C.3       1 UNK         0.0864 
      6 C6        -50.6245  -29.9378    4.9839 C.3       14 UNK        -0.0898 
      7 S7        -51.2925  -28.3336    4.4010 S.3       14 UNK        -0.2598 
      8 C8        -53.0737  -28.4958    4.7456 C.3       14 UNK         0.0286 
      9 C9        -53.3996  -28.1954    6.2004 C.ar      14 UNK        -0.0844 
     10 C10       -53.4148  -26.8729    6.6521 C.ar      14 UNK        -0.0881 
     11 C11       -53.7012  -26.5767    7.9877 C.ar      14 UNK        -0.0643 
     12 C12       -53.9849  -27.6245    8.8720 C.ar      14 UNK        -0.0930 
     13 C13       -53.9851  -28.9545    8.4312 C.ar      14 UNK        -0.0827 
     14 C14       -53.6905  -29.2305    7.0924 C.ar      14 UNK        -0.1249 
     15 C15       -54.2431  -30.1101    9.3922 C.3       14 UNK         0.0141 
     16 S16       -55.6046  -29.8016   10.5654 S.3       14 UNK        -0.2313 
     17 C17       -55.5371  -31.3270   11.5692 C.3       14 UNK        -0.0915 
     18 CA        -54.7634  -31.1924   12.9093 C.3       13 UNK         0.0968 
     19 C         -53.2272  -31.0822   12.6969 C.2       13 UNK         0.5732 
     20 N         -52.5509  -32.2026   12.4822 N.am      13 UNK        -0.7310 
     21 O         -52.6526  -29.9961   12.6797 O.2       13 UNK        -0.5035 
     22 N         -55.3060  -30.1139   13.7443 N.am      13 UNK        -0.4233 
     23 C         -55.0402  -29.9468   15.0444 C.2       13 UNK         0.4989 
     24 O         -54.3911  -30.7487   15.7194 O.2       13 UNK        -0.4996 
     25 CA        -55.5874  -28.6591   15.6845 C.3       12 UNK         0.0216 
     26 CB        -55.3793  -28.6125   17.2099 C.3       12 UNK        -0.1964 
     27 N         -54.9703  -27.4788   15.0736 N.am      12 UNK        -0.4276 
     28 C         -55.3948  -26.9006   13.9397 C.2       12 UNK         0.5020 
     29 O         -56.3567  -27.3310   13.3002 O.2       12 UNK        -0.5489 
     30 CA        -54.6279  -25.6762   13.3938 C.3       11 UNK         0.0294 
     31 CB        -55.5796  -24.5871   12.8572 C.3       11 UNK        -0.2019 
     32 N         -53.6393  -25.0968   14.3097 N.am      11 UNK        -0.4493 
     33 C         -53.8397  -24.5490   15.5178 C.2       11 UNK         0.4932 
     34 O         -54.9508  -24.3782   16.0214 O.2       11 UNK        -0.5029 
     35 CA        -52.5656  -24.1783   16.3086 C.3       10 UNK         0.0280 
     36 CB        -52.8265  -24.0125   17.8202 C.3       10 UNK        -0.1976 
     37 N         -51.4561  -25.1158   16.0782 N.am      10 UNK        -0.4242 
     38 C         -51.4722  -26.4482   16.2519 C.2       10 UNK         0.5072 
     39 O         -52.4407  -27.0567   16.7069 O.2       10 UNK        -0.5224 
     40 CA        -50.2465  -27.2623   15.7940 C.3       9 UNK         0.0343 
     41 CB        -50.6445  -28.2250   14.6629 C.3       9 UNK        -0.2003 
     42 N         -49.1266  -26.4389   15.3349 N.am      9 UNK        -0.4272 
     43 C         -48.2623  -25.8063   16.1391 C.2       9 UNK         0.4988 
     44 O         -48.2740  -25.8987   17.3669 O.2       9 UNK        -0.5108 
     45 CA        -47.2323  -24.8860   15.4609 C.3       8 UNK         0.0248 
     46 CB        -46.0061  -25.6928   15.0055 C.3       8 UNK        -0.2001 
     47 N         -47.7817  -24.1322   14.3273 N.am      8 UNK        -0.4140 
     48 C         -48.7871  -23.2479   14.4168 C.2       8 UNK         0.5028 
     49 O         -49.3503  -22.9580   15.4725 O.2       8 UNK        -0.5428 
     50 CA        -49.2890  -22.6137   13.1091 C.3       7 UNK         0.0264 
     51 CB        -48.3294  -21.5144   12.6273 C.3       7 UNK        -0.1988 
     52 N         -49.5097  -23.5931   12.0419 N.am      7 UNK        -0.4454 
     53 C         -50.3862  -24.6086   12.1125 C.2       7 UNK         0.5027 
     54 O         -51.1172  -24.8151   13.0819 O.2       7 UNK        -0.5083 
     55 CA        -50.4185  -25.5952   10.9260 C.3       6 UNK         0.0844 
     56 C56       -51.1941  -25.0225    9.7128 C.3       14 UNK        -0.0967 
     57 S57       -52.9738  -24.8080   10.0624 S.3       14 UNK        -0.2604 
     58 C58       -53.7412  -25.1186    8.4385 C.3       14 UNK         0.0134 
     59 N         -49.0682  -26.0258   10.5599 N.am      6 UNK        -0.4116 
     60 C         -48.2020  -26.6404   11.3788 C.2       5 UNK         0.5034 
     61 O         -48.4664  -26.9941   12.5273 O.2       5 UNK        -0.5045 
     62 CA        -46.7754  -26.8379   10.8471 C.3       5 UNK         0.0224 
     63 CB        -46.6938  -28.0463    9.8999 C.3       5 UNK        -0.1978 
     64 N         -46.2718  -25.6348   10.1790 N.am      5 UNK        -0.4737 
     65 C         -45.9761  -24.4906   10.8123 C.2       4 UNK         0.5027 
     66 O         -46.0702  -24.3407   12.0293 O.2       4 UNK        -0.5211 
     67 CA        -45.5248  -23.3050    9.9435 C.3       4 UNK         0.0297 
     68 CB        -44.0147  -23.3827    9.6699 C.3       4 UNK        -0.1993 
     69 N         -46.2508  -23.2187    8.6749 N.am      4 UNK        -0.4486 
     70 C         -47.5565  -22.9355    8.5665 C.2       3 UNK         0.4961 
     71 O         -48.2904  -22.6876    9.5236 O.2       3 UNK        -0.5105 
     72 CA        -48.1544  -23.0061    7.1492 C.3       3 UNK         0.0299 
     73 CB        -47.8519  -21.7190    6.3656 C.3       3 UNK        -0.1972 
     74 N         -47.7085  -24.1768    6.3793 N.am      3 UNK        -0.4305 
     75 C         -47.8690  -25.4438    6.7841 C.2       2 UNK         0.5006 
     76 O         -48.3536  -25.7489    7.8746 O.2       2 UNK        -0.5106 
     77 CA        -47.3689  -26.5559    5.8577 C.3       2 UNK         0.0296 
     78 CB        -45.8807  -26.8552    6.1227 C.3       2 UNK        -0.2002 
     79 N         -48.1934  -27.7299    6.1228 N.am      2 UNK        -0.4032 
     80 C         -48.2844  -28.8543    5.4090 C.2       1 UNK         0.5000 
     81 O         -47.5820  -29.0895    4.4230 O.2       1 UNK        -0.5238 
     82 H82       -50.5671  -30.5572    9.6592 H         1 UNK         0.0889 
     83 H83       -51.2563  -28.9627    9.9625 H         1 UNK         0.0889 
     84 H84       -49.5288  -29.2237   10.1830 H         1 UNK         0.0889 
     85 H85       -49.3498  -30.8881    7.7104 H         1 UNK         0.3028 
     86 H86       -48.8301  -30.8623    5.6616 H         1 UNK         0.0864 
     87 H87       -50.4211  -30.5184    4.0827 H         1 UNK         0.0720 
     88 H88       -51.4086  -30.4916    5.5016 H         1 UNK         0.0720 
     89 H89       -53.4169  -29.4921    4.4626 H         1 UNK         0.0814 
     90 H90       -53.6173  -27.7978    4.1073 H         1 UNK         0.0814 
     91 H91       -53.1920  -26.0737    5.9587 H         1 UNK         0.1469 
     92 H92       -54.2035  -27.4032    9.9073 H         1 UNK         0.1381 
     93 H93       -53.6722  -30.2545    6.7453 H         1 UNK         0.1206 
     94 H94       -53.3238  -30.3048    9.9424 H         1 UNK         0.0813 
     95 H95       -54.4707  -31.0209    8.8361 H         1 UNK         0.0813 
     96 H96       -55.1319  -32.1442   10.9696 H         1 UNK         0.0638 
     97 H97       -56.5676  -31.6139   11.7833 H         1 UNK         0.0638 
     98 H98       -54.9314  -32.1186   13.4626 H         1 UNK         0.0568 
     99 H99       -51.5561  -32.1485   12.3336 H         1 UNK         0.3450 
    100 H100      -53.0092  -33.1002   12.4832 H         1 UNK         0.3450 
    101 H101      -55.7931  -29.3703   13.2563 H         1 UNK         0.2987 
    102 H102      -56.6645  -28.6365   15.5047 H         1 UNK         0.0766 
    103 H103      -55.7653  -27.6860   17.6353 H         1 UNK         0.0798 
    104 H104      -54.3261  -28.6913   17.4807 H         1 UNK         0.0798 
    105 H105      -55.9009  -29.4366   17.6980 H         1 UNK         0.0798 
    106 H106      -54.1415  -27.1175   15.5367 H         1 UNK         0.3198 
    107 H107      -54.0515  -26.0542   12.5486 H         1 UNK         0.0843 
    108 H108      -56.2364  -24.2024   13.6377 H         1 UNK         0.0831 
    109 H109      -56.2142  -24.9794   12.0617 H         1 UNK         0.0831 
    110 H110      -55.0240  -23.7481   12.4385 H         1 UNK         0.0831 
    111 H111      -52.6764  -25.1287   13.9727 H         1 UNK         0.3133 
    112 H112      -52.2343  -23.2148   15.9190 H         1 UNK         0.0566 
    113 H113      -51.9153  -23.7361   18.3508 H         1 UNK         0.0814 
    114 H114      -53.5602  -23.2276   18.0076 H         1 UNK         0.0814 
    115 H115      -53.2102  -24.9304   18.2670 H         1 UNK         0.0814 
    116 H116      -50.6236  -24.6994   15.6765 H         1 UNK         0.3091 
    117 H117      -49.9164  -27.8584   16.6471 H         1 UNK         0.0702 
    118 H118      -51.4418  -28.8991   14.9799 H         1 UNK         0.0785 
    119 H119      -49.8035  -28.8449   14.3519 H         1 UNK         0.0785 
    120 H120      -51.0045  -27.6879   13.7841 H         1 UNK         0.0785 
    121 H121      -49.0072  -26.3606   14.3284 H         1 UNK         0.2998 
    122 H122      -46.9021  -24.1590   16.2057 H         1 UNK         0.0697 
    123 H123      -46.2635  -26.4116   14.2269 H         1 UNK         0.0825 
    124 H124      -45.5734  -26.2511   15.8368 H         1 UNK         0.0825 
    125 H125      -45.2260  -25.0404   14.6128 H         1 UNK         0.0825 
    126 H126      -47.3363  -24.2821   13.4239 H         1 UNK         0.3029 
    127 H127      -50.2533  -22.1475   13.3230 H         1 UNK         0.0897 
    128 H128      -48.7267  -20.9973   11.7536 H         1 UNK         0.0792 
    129 H129      -48.1728  -20.7647   13.4040 H         1 UNK         0.0792 
    130 H130      -47.3525  -21.9174   12.3605 H         1 UNK         0.0792 
    131 H131      -48.9721  -23.4637   11.1884 H         1 UNK         0.3086 
    132 H132      -50.9423  -26.4928   11.2626 H         1 UNK         0.0583 
    133 H133      -50.7727  -24.0696    9.3875 H         1 UNK         0.1020 
    134 H134      -51.0908  -25.6985    8.8630 H         1 UNK         0.1020 
    135 H135      -54.7850  -24.8066    8.4873 H         1 UNK         0.0694 
    136 H136      -53.2606  -24.4723    7.7022 H         1 UNK         0.0694 
    137 H137      -48.7702  -25.8191    9.6070 H         1 UNK         0.2989 
    138 H138      -46.1307  -27.0391   11.7057 H         1 UNK         0.1055 
    139 H139      -47.0136  -28.9574   10.4070 H         1 UNK         0.0806 
    140 H140      -45.6728  -28.2121    9.5563 H         1 UNK         0.0806 
    141 H141      -47.3280  -27.9234    9.0222 H         1 UNK         0.0806 
    142 H142      -46.2349  -25.6518    9.1707 H         1 UNK         0.3061 
    143 H143      -45.7216  -22.3895   10.5053 H         1 UNK         0.0734 
    144 H144      -43.6638  -22.5059    9.1253 H         1 UNK         0.0832 
    145 H145      -43.4528  -23.4273   10.6040 H         1 UNK         0.0832 
    146 H146      -43.7513  -24.2679    9.0896 H         1 UNK         0.0832 
    147 H147      -45.7316  -23.4154    7.8318 H         1 UNK         0.3156 
    148 H148      -49.2380  -23.0866    7.2596 H         1 UNK         0.0589 
    149 H149      -46.7843  -21.5981    6.1779 H         1 UNK         0.0808 
    150 H150      -48.3655  -21.7096    5.4041 H         1 UNK         0.0808 
    151 H151      -48.1872  -20.8394    6.9173 H         1 UNK         0.0808 
    152 H152      -47.2894  -23.9992    5.4774 H         1 UNK         0.3098 
    153 H153      -47.5132  -26.2513    4.8195 H         1 UNK         0.0720 
    154 H154      -45.5021  -27.6257    5.4512 H         1 UNK         0.0791 
    155 H155      -45.7131  -27.1947    7.1450 H         1 UNK         0.0791 
    156 H156      -45.2673  -25.9669    5.9673 H         1 UNK         0.0791 
    157 H157      -48.8765  -27.5996    6.8722 H         1 UNK         0.3028 
@<TRIPOS>BOND
     1    1    2 1    
     2    1   82 1    
     3    1   83 1    
     4    1   84 1    
     5    2    3 2    
     6    2    4 am   BACKBONE|DICT|INTERRES
     7    4    5 1    
     8    4   85 1    
     9    5    6 1    
    10    5   80 1    
    11    5   86 1    
    12    6    7 1    
    13    6   87 1    
    14    6   88 1    
    15    7    8 1    
    16    8    9 1    
    17    8   89 1    
    18    8   90 1    
    19    9   10 ar   
    20    9   14 ar   
    21   10   11 ar   
    22   10   91 1    
    23   11   12 ar   
    24   11   58 1    
    25   12   13 ar   
    26   12   92 1    
    27   13   14 ar   
    28   13   15 1    
    29   14   93 1    
    30   15   16 1    
    31   15   94 1    
    32   15   95 1    
    33   16   17 1    
    34   17   18 1    
    35   17   96 1    
    36   17   97 1    
    37   18   19 1    
    38   18   22 1    
    39   18   98 1    
    40   19   20 am   BACKBONE|DICT|INTERRES
    41   19   21 2    
    42   20   99 1    
    43   20  100 1    
    44   22   23 am   BACKBONE|DICT|INTERRES
    45   22  101 1    
    46   23   24 2    
    47   23   25 1    
    48   25   26 1    
    49   25   27 1    
    50   25  102 1    
    51   26  103 1    
    52   26  104 1    
    53   26  105 1    
    54   27   28 am   BACKBONE|DICT|INTERRES
    55   27  106 1    
    56   28   29 2    
    57   28   30 1    
    58   30   31 1    
    59   30   32 1    
    60   30  107 1    
    61   31  108 1    
    62   31  109 1    
    63   31  110 1    
    64   32   33 am   BACKBONE|DICT|INTERRES
    65   32  111 1    
    66   33   34 2    
    67   33   35 1    
    68   35   36 1    
    69   35   37 1    
    70   35  112 1    
    71   36  113 1    
    72   36  114 1    
    73   36  115 1    
    74   37   38 am   BACKBONE|DICT|INTERRES
    75   37  116 1    
    76   38   39 2    
    77   38   40 1    
    78   40   41 1    
    79   40   42 1    
    80   40  117 1    
    81   41  118 1    
    82   41  119 1    
    83   41  120 1    
    84   42   43 am   BACKBONE|DICT|INTERRES
    85   42  121 1    
    86   43   44 2    
    87   43   45 1    
    88   45   46 1    
    89   45   47 1    
    90   45  122 1    
    91   46  123 1    
    92   46  124 1    
    93   46  125 1    
    94   47   48 am   BACKBONE|DICT|INTERRES
    95   47  126 1    
    96   48   49 2    
    97   48   50 1    
    98   50   51 1    
    99   50   52 1    
   100   50  127 1    
   101   51  128 1    
   102   51  129 1    
   103   51  130 1    
   104   52   53 am   BACKBONE|DICT|INTERRES
   105   52  131 1    
   106   53   54 2    
   107   53   55 1    
   108   55   56 1    
   109   55   59 1    
   110   55  132 1    
   111   56   57 1    
   112   56  133 1    
   113   56  134 1    
   114   57   58 1    
   115   58  135 1    
   116   58  136 1    
   117   59   60 am   BACKBONE|DICT|INTERRES
   118   59  137 1    
   119   60   61 2    
   120   60   62 1    
   121   62   63 1    
   122   62   64 1    
   123   62  138 1    
   124   63  139 1    
   125   63  140 1    
   126   63  141 1    
   127   64   65 am   BACKBONE|DICT|INTERRES
   128   64  142 1    
   129   65   66 2    
   130   65   67 1    
   131   67   68 1    
   132   67   69 1    
   133   67  143 1    
   134   68  144 1    
   135   68  145 1    
   136   68  146 1    
   137   69   70 am   BACKBONE|DICT|INTERRES
   138   69  147 1    
   139   70   71 2    
   140   70   72 1    
   141   72   73 1    
   142   72   74 1    
   143   72  148 1    
   144   73  149 1    
   145   73  150 1    
   146   73  151 1    
   147   74   75 am   BACKBONE|DICT|INTERRES
   148   74  152 1    
   149   75   76 2    
   150   75   77 1    
   151   77   78 1    
   152   77   79 1    
   153   77  153 1    
   154   78  154 1    
   155   78  155 1    
   156   78  156 1    
   157   79   80 am   BACKBONE|DICT|INTERRES
   158   79  157 1    
   159   80   81 2    
@<TRIPOS>SUBSTRUCTURE
     1 UNK         1 GROUP             0       ****    0 ROOT    
