@<TRIPOS>MOLECULE
3R207
157   159    1
SMALL
USER_CHARGES


@<TRIPOS>ATOM
      1 CA        -49.0229  -26.7933    4.2233 C.3       0 UNK        -0.1975 
      2 C         -49.9739  -26.0903    5.1794 C.2       0 UNK         0.4852 
      3 O         -50.2457  -24.9014    5.0043 O.2       0 UNK        -0.5216 
      4 N         -50.4719  -26.8115    6.1943 N.am      1 UNK        -0.4461 
      5 CA        -51.3590  -26.3141    7.2528 C.3       1 UNK         0.0864 
      6 C6        -51.7236  -27.4341    8.2552 C.3       14 UNK        -0.0898 
      7 S7        -53.0381  -28.5197    7.6112 S.3       14 UNK        -0.2598 
      8 C8        -52.3725  -30.1820    7.9540 C.3       14 UNK         0.0286 
      9 C9        -52.0773  -30.3994    9.4331 C.ar      14 UNK        -0.0844 
     10 C10       -50.7842  -30.7295    9.8494 C.ar      14 UNK        -0.0881 
     11 C11       -50.4962  -30.9087   11.2061 C.ar      14 UNK        -0.0643 
     12 C12       -51.5192  -30.7672   12.1500 C.ar      14 UNK        -0.0930 
     13 C13       -52.8187  -30.4481   11.7456 C.ar      14 UNK        -0.0827 
     14 C14       -53.0920  -30.2712   10.3862 C.ar      14 UNK        -0.1249 
     15 C15       -53.9277  -30.2711   12.7705 C.3       14 UNK         0.0141 
     16 S16       -55.1237  -31.6378   12.6903 S.3       14 UNK        -0.2313 
     17 C17       -56.6412  -30.8276   13.2966 C.3       14 UNK        -0.0915 
     18 CA        -57.5769  -30.4165   12.1289 C.3       13 UNK         0.0968 
     19 C         -58.9910  -30.0405   12.6449 C.2       13 UNK         0.5732 
     20 N         -59.8477  -31.0270   12.8708 N.am      13 UNK        -0.7310 
     21 O         -59.3108  -28.8749   12.8736 O.2       13 UNK        -0.5035 
     22 N         -56.9913  -29.3307   11.3329 N.am      13 UNK        -0.4233 
     23 C         -57.2213  -29.1106   10.0359 C.2       13 UNK         0.4989 
     24 O         -57.9055  -29.8546    9.3319 O.2       13 UNK        -0.4996 
     25 CA        -56.5740  -27.8685    9.3866 C.3       12 UNK         0.0216 
     26 CB        -57.5979  -26.7233    9.2580 C.3       12 UNK        -0.1964 
     27 N         -55.3210  -27.3940   10.0016 N.am      12 UNK        -0.4276 
     28 C         -55.1323  -26.8663   11.2192 C.2       12 UNK         0.5020 
     29 O         -56.0239  -26.7349   12.0618 O.2       12 UNK        -0.5489 
     30 CA        -53.7002  -26.4494   11.5700 C.3       11 UNK         0.0294 
     31 CB        -53.3234  -25.1086   10.9119 C.3       11 UNK        -0.2019 
     32 N         -53.5929  -26.3284   13.0204 N.am      11 UNK        -0.4493 
     33 C         -52.5276  -26.6805   13.7432 C.2       11 UNK         0.4932 
     34 O         -51.4833  -27.1100   13.2566 O.2       11 UNK        -0.5029 
     35 CA        -52.6798  -26.5828   15.2647 C.3       10 UNK         0.0280 
     36 CB        -53.4253  -27.8233   15.8005 C.3       10 UNK        -0.1976 
     37 N         -51.3639  -26.4640   15.8968 N.am      10 UNK        -0.4242 
     38 C         -51.1559  -26.1191   17.1759 C.2       10 UNK         0.5072 
     39 O         -52.0569  -25.7965   17.9519 O.2       10 UNK        -0.5224 
     40 CA        -49.7096  -26.1397   17.6912 C.3       9 UNK         0.0343 
     41 CB        -49.1495  -27.5731   17.7072 C.3       9 UNK        -0.2003 
     42 N         -48.8524  -25.2893   16.8702 N.am      9 UNK        -0.4272 
     43 C         -48.3715  -24.0909   17.2296 C.2       9 UNK         0.4988 
     44 O         -48.5705  -23.5734   18.3296 O.2       9 UNK        -0.5108 
     45 CA        -47.5110  -23.3323   16.1980 C.3       8 UNK         0.0248 
     46 CB        -46.0162  -23.5557   16.4793 C.3       8 UNK        -0.2001 
     47 N         -47.7954  -23.7067   14.8112 N.am      8 UNK        -0.4140 
     48 C         -48.9466  -23.4538   14.1732 C.2       8 UNK         0.5028 
     49 O         -49.8510  -22.7634   14.6446 O.2       8 UNK        -0.5428 
     50 CA        -49.1425  -24.0954   12.7877 C.3       7 UNK         0.0264 
     51 CB        -48.8670  -23.0638   11.6848 C.3       7 UNK        -0.1988 
     52 N         -48.3407  -25.2953   12.5169 N.am      7 UNK        -0.4454 
     53 C         -48.3095  -26.4167   13.2578 C.2       7 UNK         0.5027 
     54 O         -48.8346  -26.5256   14.3659 O.2       7 UNK        -0.5083 
     55 CA        -47.5672  -27.6321   12.6697 C.3       6 UNK         0.0844 
     56 C56       -48.5784  -28.4710   11.8534 C.3       14 UNK        -0.0967 
     57 S57       -47.8602  -29.9874   11.1377 S.3       14 UNK        -0.2604 
     58 C58       -49.0776  -31.2442   11.6556 C.3       14 UNK         0.0134 
     59 N         -46.3972  -27.2603   11.8718 N.am      6 UNK        -0.4116 
     60 C         -45.3588  -26.5100   12.2667 C.2       5 UNK         0.5034 
     61 O         -45.2057  -26.0935   13.4157 O.2       5 UNK        -0.5045 
     62 CA        -44.3335  -26.1260   11.1811 C.3       5 UNK         0.0224 
     63 CB        -43.0653  -26.9847   11.3135 C.3       5 UNK        -0.1978 
     64 N         -44.8423  -26.2259    9.8041 N.am      5 UNK        -0.4737 
     65 C         -45.8738  -25.5262    9.3107 C.2       4 UNK         0.5027 
     66 O         -46.5247  -24.7151    9.9727 O.2       4 UNK        -0.5211 
     67 CA        -46.2778  -25.8527    7.8663 C.3       4 UNK         0.0297 
     68 CB        -47.0719  -27.1708    7.8170 C.3       4 UNK        -0.1993 
     69 N         -47.0976  -24.7768    7.3085 N.am      4 UNK        -0.4486 
     70 C         -46.6083  -23.7342    6.6213 C.2       3 UNK         0.4961 
     71 O         -45.4136  -23.6064    6.3484 O.2       3 UNK        -0.5105 
     72 CA        -47.5915  -22.6556    6.1254 C.3       3 UNK         0.0299 
     73 CB        -47.6639  -22.6581    4.5886 C.3       3 UNK        -0.1972 
     74 N         -48.9431  -22.8190    6.6641 N.am      3 UNK        -0.4305 
     75 C         -49.3740  -22.2754    7.8124 C.2       2 UNK         0.5006 
     76 O         -48.6981  -21.5110    8.5013 O.2       2 UNK        -0.5106 
     77 CA        -50.7965  -22.6408    8.2856 C.3       2 UNK         0.0296 
     78 CB        -51.7875  -21.5249    7.9176 C.3       2 UNK        -0.2002 
     79 N         -51.2957  -23.9169    7.7651 N.am      2 UNK        -0.4032 
     80 C         -50.7322  -25.1128    7.9870 C.2       1 UNK         0.5000 
     81 O         -49.7367  -25.2828    8.6910 O.2       1 UNK        -0.5238 
     82 H82       -48.9218  -27.8536    4.4538 H         1 UNK         0.0889 
     83 H83       -48.0346  -26.3375    4.2782 H         1 UNK         0.0889 
     84 H84       -49.3850  -26.7017    3.1997 H         1 UNK         0.0889 
     85 H85       -50.2125  -27.7833    6.2769 H         1 UNK         0.3028 
     86 H86       -52.2758  -25.9675    6.7708 H         1 UNK         0.0864 
     87 H87       -50.8378  -28.0144    8.5206 H         1 UNK         0.0720 
     88 H88       -52.0889  -27.0203    9.1924 H         1 UNK         0.0720 
     89 H89       -51.4774  -30.3348    7.3491 H         1 UNK         0.0814 
     90 H90       -53.0971  -30.9276    7.6243 H         1 UNK         0.0814 
     91 H91       -49.9912  -30.8328    9.1213 H         1 UNK         0.1469 
     92 H92       -51.3026  -30.8976   13.2014 H         1 UNK         0.1381 
     93 H93       -54.0970  -30.0285   10.0702 H         1 UNK         0.1206 
     94 H94       -54.4291  -29.3224   12.5878 H         1 UNK         0.0813 
     95 H95       -53.5218  -30.2131   13.7810 H         1 UNK         0.0813 
     96 H96       -57.1395  -31.5435   13.9529 H         1 UNK         0.0638 
     97 H97       -56.3889  -29.9689   13.9219 H         1 UNK         0.0638 
     98 H98       -57.6975  -31.2857   11.4788 H         1 UNK         0.0568 
     99 H99       -60.7678  -30.8059   13.2183 H         1 UNK         0.3450 
    100 H100      -59.5952  -31.9877   12.6982 H         1 UNK         0.3450 
    101 H101      -56.5443  -28.5816   11.8507 H         1 UNK         0.2987 
    102 H102      -56.2981  -28.1713    8.3750 H         1 UNK         0.0766 
    103 H103      -57.1745  -25.8693    8.7293 H         1 UNK         0.0798 
    104 H104      -57.9468  -26.3769   10.2315 H         1 UNK         0.0798 
    105 H105      -58.4762  -27.0476    8.6982 H         1 UNK         0.0798 
    106 H106      -54.5085  -27.5042    9.4082 H         1 UNK         0.3198 
    107 H107      -53.0318  -27.2400   11.2231 H         1 UNK         0.0843 
    108 H108      -53.9266  -24.2877   11.3014 H         1 UNK         0.0831 
    109 H109      -53.4742  -25.1344    9.8324 H         1 UNK         0.0831 
    110 H110      -52.2749  -24.8653   11.0870 H         1 UNK         0.0831 
    111 H111      -54.4593  -26.0735   13.4795 H         1 UNK         0.3133 
    112 H112      -53.2566  -25.6836   15.4912 H         1 UNK         0.0566 
    113 H113      -53.6478  -27.7315   16.8634 H         1 UNK         0.0814 
    114 H114      -54.3779  -27.9672   15.2888 H         1 UNK         0.0814 
    115 H115      -52.8378  -28.7314   15.6611 H         1 UNK         0.0814 
    116 H116      -50.5746  -26.6664   15.2847 H         1 UNK         0.3091 
    117 H117      -49.7207  -25.7797   18.7222 H         1 UNK         0.0702 
    118 H118      -48.1520  -27.5998   18.1459 H         1 UNK         0.0785 
    119 H119      -49.0830  -27.9995   16.7055 H         1 UNK         0.0785 
    120 H120      -49.7830  -28.2325   18.3019 H         1 UNK         0.0785 
    121 H121      -48.6794  -25.6248   15.9246 H         1 UNK         0.2998 
    122 H122      -47.7264  -22.2676   16.3106 H         1 UNK         0.0697 
    123 H123      -45.7343  -24.6024   16.3549 H         1 UNK         0.0825 
    124 H124      -45.7633  -23.2685   17.5009 H         1 UNK         0.0825 
    125 H125      -45.3929  -22.9591   15.8129 H         1 UNK         0.0825 
    126 H126      -47.1116  -24.2869   14.3445 H         1 UNK         0.3029 
    127 H127      -50.1895  -24.3988   12.7219 H         1 UNK         0.0897 
    128 H128      -49.0207  -23.4954   10.6965 H         1 UNK         0.0792 
    129 H129      -49.5292  -22.2016   11.7741 H         1 UNK         0.0792 
    130 H130      -47.8405  -22.6968   11.7239 H         1 UNK         0.0792 
    131 H131      -47.8356  -25.2896   11.6367 H         1 UNK         0.3086 
    132 H132      -47.2091  -28.2345   13.5069 H         1 UNK         0.0583 
    133 H133      -49.4224  -28.7418   12.4912 H         1 UNK         0.1020 
    134 H134      -49.0048  -27.8840   11.0363 H         1 UNK         0.1020 
    135 H135      -48.7905  -32.2091   11.2358 H         1 UNK         0.0694 
    136 H136      -49.0284  -31.3527   12.7402 H         1 UNK         0.0694 
    137 H137      -46.4081  -27.5720   10.9126 H         1 UNK         0.2989 
    138 H138      -44.0638  -25.0823   11.3574 H         1 UNK         0.1055 
    139 H139      -42.6456  -26.9096   12.3180 H         1 UNK         0.0806 
    140 H140      -42.2908  -26.6609   10.6179 H         1 UNK         0.0806 
    141 H141      -43.2695  -28.0394   11.1245 H         1 UNK         0.0806 
    142 H142      -44.3675  -26.8795    9.1969 H         1 UNK         0.3061 
    143 H143      -45.3716  -25.9751    7.2691 H         1 UNK         0.0734 
    144 H144      -47.4037  -27.3955    6.8039 H         1 UNK         0.0832 
    145 H145      -46.4602  -28.0117    8.1460 H         1 UNK         0.0832 
    146 H146      -47.9518  -27.1436    8.4601 H         1 UNK         0.0832 
    147 H147      -48.0641  -24.7596    7.6171 H         1 UNK         0.3156 
    148 H148      -47.1929  -21.6877    6.4363 H         1 UNK         0.0589 
    149 H149      -48.0067  -23.6171    4.1996 H         1 UNK         0.0808 
    150 H150      -48.3402  -21.8860    4.2214 H         1 UNK         0.0808 
    151 H151      -46.6839  -22.4629    4.1511 H         1 UNK         0.0808 
    152 H152      -49.5580  -23.4432    6.1477 H         1 UNK         0.3098 
    153 H153      -50.7706  -22.7205    9.3734 H         1 UNK         0.0720 
    154 H154      -51.4606  -20.5647    8.3195 H         1 UNK         0.0791 
    155 H155      -52.7791  -21.7228    8.3254 H         1 UNK         0.0791 
    156 H156      -51.8832  -21.4100    6.8370 H         1 UNK         0.0791 
    157 H157      -52.0839  -23.8635    7.1356 H         1 UNK         0.3028 
@<TRIPOS>BOND
     1    1    2 1    
     2    1   82 1    
     3    1   83 1    
     4    1   84 1    
     5    2    3 2    
     6    2    4 am   BACKBONE|DICT|INTERRES
     7    4    5 1    
     8    4   85 1    
     9    5    6 1    
    10    5   80 1    
    11    5   86 1    
    12    6    7 1    
    13    6   87 1    
    14    6   88 1    
    15    7    8 1    
    16    8    9 1    
    17    8   89 1    
    18    8   90 1    
    19    9   10 ar   
    20    9   14 ar   
    21   10   11 ar   
    22   10   91 1    
    23   11   12 ar   
    24   11   58 1    
    25   12   13 ar   
    26   12   92 1    
    27   13   14 ar   
    28   13   15 1    
    29   14   93 1    
    30   15   16 1    
    31   15   94 1    
    32   15   95 1    
    33   16   17 1    
    34   17   18 1    
    35   17   96 1    
    36   17   97 1    
    37   18   19 1    
    38   18   22 1    
    39   18   98 1    
    40   19   20 am   BACKBONE|DICT|INTERRES
    41   19   21 2    
    42   20   99 1    
    43   20  100 1    
    44   22   23 am   BACKBONE|DICT|INTERRES
    45   22  101 1    
    46   23   24 2    
    47   23   25 1    
    48   25   26 1    
    49   25   27 1    
    50   25  102 1    
    51   26  103 1    
    52   26  104 1    
    53   26  105 1    
    54   27   28 am   BACKBONE|DICT|INTERRES
    55   27  106 1    
    56   28   29 2    
    57   28   30 1    
    58   30   31 1    
    59   30   32 1    
    60   30  107 1    
    61   31  108 1    
    62   31  109 1    
    63   31  110 1    
    64   32   33 am   BACKBONE|DICT|INTERRES
    65   32  111 1    
    66   33   34 2    
    67   33   35 1    
    68   35   36 1    
    69   35   37 1    
    70   35  112 1    
    71   36  113 1    
    72   36  114 1    
    73   36  115 1    
    74   37   38 am   BACKBONE|DICT|INTERRES
    75   37  116 1    
    76   38   39 2    
    77   38   40 1    
    78   40   41 1    
    79   40   42 1    
    80   40  117 1    
    81   41  118 1    
    82   41  119 1    
    83   41  120 1    
    84   42   43 am   BACKBONE|DICT|INTERRES
    85   42  121 1    
    86   43   44 2    
    87   43   45 1    
    88   45   46 1    
    89   45   47 1    
    90   45  122 1    
    91   46  123 1    
    92   46  124 1    
    93   46  125 1    
    94   47   48 am   BACKBONE|DICT|INTERRES
    95   47  126 1    
    96   48   49 2    
    97   48   50 1    
    98   50   51 1    
    99   50   52 1    
   100   50  127 1    
   101   51  128 1    
   102   51  129 1    
   103   51  130 1    
   104   52   53 am   BACKBONE|DICT|INTERRES
   105   52  131 1    
   106   53   54 2    
   107   53   55 1    
   108   55   56 1    
   109   55   59 1    
   110   55  132 1    
   111   56   57 1    
   112   56  133 1    
   113   56  134 1    
   114   57   58 1    
   115   58  135 1    
   116   58  136 1    
   117   59   60 am   BACKBONE|DICT|INTERRES
   118   59  137 1    
   119   60   61 2    
   120   60   62 1    
   121   62   63 1    
   122   62   64 1    
   123   62  138 1    
   124   63  139 1    
   125   63  140 1    
   126   63  141 1    
   127   64   65 am   BACKBONE|DICT|INTERRES
   128   64  142 1    
   129   65   66 2    
   130   65   67 1    
   131   67   68 1    
   132   67   69 1    
   133   67  143 1    
   134   68  144 1    
   135   68  145 1    
   136   68  146 1    
   137   69   70 am   BACKBONE|DICT|INTERRES
   138   69  147 1    
   139   70   71 2    
   140   70   72 1    
   141   72   73 1    
   142   72   74 1    
   143   72  148 1    
   144   73  149 1    
   145   73  150 1    
   146   73  151 1    
   147   74   75 am   BACKBONE|DICT|INTERRES
   148   74  152 1    
   149   75   76 2    
   150   75   77 1    
   151   77   78 1    
   152   77   79 1    
   153   77  153 1    
   154   78  154 1    
   155   78  155 1    
   156   78  156 1    
   157   79   80 am   BACKBONE|DICT|INTERRES
   158   79  157 1    
   159   80   81 2    
@<TRIPOS>SUBSTRUCTURE
     1 UNK         1 GROUP             0       ****    0 ROOT    
