@<TRIPOS>MOLECULE
3R207
157   159    1
SMALL
USER_CHARGES


@<TRIPOS>ATOM
      1 CA        -54.2479  -29.8164    7.8936 C.3       0 UNK        -0.1975 
      2 C         -52.8237  -29.3121    7.7166 C.2       0 UNK         0.4852 
      3 O         -52.5621  -28.1335    7.9642 O.2       0 UNK        -0.5216 
      4 N         -51.9028  -30.1935    7.2961 N.am      1 UNK        -0.4461 
      5 CA        -50.4781  -29.8849    7.1333 C.3       1 UNK         0.0864 
      6 C6        -49.6018  -31.1371    6.8622 C.3       14 UNK        -0.0898 
      7 S7        -49.6743  -32.3938    8.1857 S.3       14 UNK        -0.2598 
      8 C8        -48.3092  -31.8814    9.2892 C.3       14 UNK         0.0286 
      9 C9        -48.6474  -30.5764    9.9919 C.ar      14 UNK        -0.0844 
     10 C10       -48.0479  -29.3764    9.5976 C.ar      14 UNK        -0.0881 
     11 C11       -48.4927  -28.1587   10.1239 C.ar      14 UNK        -0.0643 
     12 C12       -49.5127  -28.1516   11.0811 C.ar      14 UNK        -0.0930 
     13 C13       -50.0931  -29.3511   11.5064 C.ar      14 UNK        -0.0827 
     14 C14       -49.6406  -30.5599   10.9732 C.ar      14 UNK        -0.1249 
     15 C15       -51.2431  -29.3445   12.5009 C.3       14 UNK         0.0141 
     16 S16       -52.7650  -30.0289   11.7690 S.3       14 UNK        -0.2313 
     17 C17       -54.0318  -29.3778   12.9077 C.3       14 UNK        -0.0915 
     18 CA        -54.9961  -28.3836   12.2124 C.3       13 UNK         0.0968 
     19 C         -56.1302  -27.9156   13.1712 C.2       13 UNK         0.5732 
     20 N         -56.2982  -26.6255   13.4450 N.am      13 UNK        -0.7310 
     21 O         -56.8997  -28.7431   13.6540 O.2       13 UNK        -0.5035 
     22 N         -54.2671  -27.2810   11.5739 N.am      13 UNK        -0.4233 
     23 C         -54.6932  -26.6094   10.4978 C.2       13 UNK         0.4989 
     24 O         -55.7186  -26.8963    9.8768 O.2       13 UNK        -0.4996 
     25 CA        -53.8327  -25.4118   10.0430 C.3       12 UNK         0.0216 
     26 CB        -54.6489  -24.3571    9.2646 C.3       12 UNK        -0.1964 
     27 N         -53.0697  -24.7717   11.1250 N.am      12 UNK        -0.4276 
     28 C         -53.5714  -24.2600   12.2586 C.2       12 UNK         0.5020 
     29 O         -54.7724  -24.2378   12.5399 O.2       12 UNK        -0.5489 
     30 CA        -52.5562  -23.7100   13.2706 C.3       11 UNK         0.0294 
     31 CB        -52.5737  -22.1733   13.2810 C.3       11 UNK        -0.2019 
     32 N         -52.8129  -24.2126   14.6244 N.am      11 UNK        -0.4493 
     33 C         -52.7644  -25.5031   14.9823 C.2       11 UNK         0.4932 
     34 O         -52.4950  -26.4171   14.1981 O.2       11 UNK        -0.5029 
     35 CA        -52.9861  -25.7947   16.4775 C.3       10 UNK         0.0280 
     36 CB        -54.4605  -25.6034   16.8904 C.3       10 UNK        -0.1976 
     37 N         -52.4464  -27.1103   16.8529 N.am      10 UNK        -0.4242 
     38 C         -52.9751  -28.3267   16.6362 C.2       10 UNK         0.5072 
     39 O         -54.1357  -28.5357   16.2832 O.2       10 UNK        -0.5224 
     40 CA        -52.0061  -29.5090   16.8002 C.3       9 UNK         0.0343 
     41 CB        -52.5660  -30.8470   16.2765 C.3       9 UNK        -0.2003 
     42 N         -50.7587  -29.1865   16.1107 N.am      9 UNK        -0.4272 
     43 C         -49.5341  -29.5618   16.4956 C.2       9 UNK         0.4988 
     44 O         -49.3160  -30.3333   17.4303 O.2       9 UNK        -0.5108 
     45 CA        -48.3407  -28.9589   15.7258 C.3       8 UNK         0.0248 
     46 CB        -47.8081  -29.9610   14.6876 C.3       8 UNK        -0.2001 
     47 N         -48.6037  -27.6732   15.0620 N.am      8 UNK        -0.4140 
     48 C         -49.0163  -26.5476   15.6654 C.2       8 UNK         0.5028 
     49 O         -49.3013  -26.4759   16.8619 O.2       8 UNK        -0.5428 
     50 CA        -49.1459  -25.3057   14.7735 C.3       7 UNK         0.0264 
     51 CB        -49.3392  -23.9970   15.5658 C.3       7 UNK        -0.1988 
     52 N         -47.9986  -25.1738   13.8757 N.am      7 UNK        -0.4454 
     53 C         -48.0927  -24.7833   12.5998 C.2       7 UNK         0.5027 
     54 O         -49.1658  -24.5479   12.0366 O.2       7 UNK        -0.5083 
     55 CA        -46.7707  -24.6191   11.8305 C.3       6 UNK         0.0844 
     56 C56       -46.0580  -25.9791   11.5322 C.3       14 UNK        -0.0967 
     57 S57       -46.1653  -26.6437    9.8293 S.3       14 UNK        -0.2604 
     58 C58       -47.9533  -26.8484    9.5735 C.3       14 UNK         0.0134 
     59 N         -47.0615  -23.8128   10.6513 N.am      6 UNK        -0.4116 
     60 C         -46.2325  -23.0091    9.9836 C.2       5 UNK         0.5034 
     61 O         -45.0517  -22.8333   10.2870 O.2       5 UNK        -0.5045 
     62 CA        -46.8200  -22.2797    8.7570 C.3       5 UNK         0.0224 
     63 CB        -46.2807  -22.9084    7.4618 C.3       5 UNK        -0.1978 
     64 N         -48.2905  -22.2776    8.7075 N.am      5 UNK        -0.4737 
     65 C         -49.0839  -21.6189    9.5663 C.2       4 UNK         0.5027 
     66 O         -48.6444  -20.8984   10.4626 O.2       4 UNK        -0.5211 
     67 CA        -50.6111  -21.7817    9.4256 C.3       4 UNK         0.0297 
     68 CB        -51.3157  -20.4149    9.3753 C.3       4 UNK        -0.1993 
     69 N         -51.0346  -22.5711    8.2654 N.am      4 UNK        -0.4486 
     70 C         -51.0438  -23.9080    8.2005 C.2       3 UNK         0.4961 
     71 O         -50.6407  -24.6316    9.1111 O.2       3 UNK        -0.5105 
     72 CA        -51.6310  -24.5515    6.9267 C.3       3 UNK         0.0299 
     73 CB        -51.9845  -23.5477    5.8044 C.3       3 UNK        -0.1972 
     74 N         -50.7825  -25.6289    6.4126 N.am      3 UNK        -0.4305 
     75 C         -49.5153  -25.5214    5.9863 C.2       2 UNK         0.5006 
     76 O         -48.8903  -24.4593    5.9787 O.2       2 UNK        -0.5106 
     77 CA        -48.8316  -26.8143    5.4931 C.3       2 UNK         0.0296 
     78 CB        -47.2948  -26.6957    5.4768 C.3       2 UNK        -0.2002 
     79 N         -49.2093  -27.9717    6.3078 N.am      2 UNK        -0.4032 
     80 C         -50.2254  -28.8070    6.0599 C.2       1 UNK         0.5000 
     81 O         -50.9369  -28.7479    5.0537 O.2       1 UNK        -0.5238 
     82 H82       -54.5623  -29.6822    8.9286 H         1 UNK         0.0889 
     83 H83       -54.3416  -30.8729    7.6435 H         1 UNK         0.0889 
     84 H84       -54.9276  -29.2517    7.2561 H         1 UNK         0.0889 
     85 H85       -52.1699  -31.1465    7.0973 H         1 UNK         0.3028 
     86 H86       -50.1817  -29.4508    8.0857 H         1 UNK         0.0864 
     87 H87       -49.9103  -31.6149    5.9304 H         1 UNK         0.0720 
     88 H88       -48.5564  -30.8559    6.7203 H         1 UNK         0.0720 
     89 H89       -47.3827  -31.7964    8.7193 H         1 UNK         0.0814 
     90 H90       -48.1421  -32.6601   10.0348 H         1 UNK         0.0814 
     91 H91       -47.2817  -29.3821    8.8343 H         1 UNK         0.1469 
     92 H92       -49.8818  -27.2090   11.4627 H         1 UNK         0.1381 
     93 H93       -50.1141  -31.4858   11.2706 H         1 UNK         0.1206 
     94 H94       -50.9739  -29.9360   13.3758 H         1 UNK         0.0813 
     95 H95       -51.4304  -28.3288   12.8470 H         1 UNK         0.0813 
     96 H96       -54.5830  -30.2281   13.3127 H         1 UNK         0.0638 
     97 H97       -53.5463  -28.8981   13.7564 H         1 UNK         0.0638 
     98 H98       -55.5023  -28.9432   11.4237 H         1 UNK         0.0568 
     99 H99       -55.6935  -25.9148   13.0450 H         1 UNK         0.3450 
    100 H100      -57.0495  -26.3526   14.0567 H         1 UNK         0.3450 
    101 H101      -53.4439  -26.9595   12.0640 H         1 UNK         0.2987 
    102 H102      -53.0932  -25.8367    9.3650 H         1 UNK         0.0766 
    103 H103      -54.0268  -23.5180    8.9543 H         1 UNK         0.0798 
    104 H104      -55.4677  -23.9602    9.8658 H         1 UNK         0.0798 
    105 H105      -55.0858  -24.7871    8.3625 H         1 UNK         0.0798 
    106 H106      -52.0653  -24.7537   10.9823 H         1 UNK         0.3198 
    107 H107      -51.5573  -24.0370   12.9787 H         1 UNK         0.0843 
    108 H108      -52.3803  -21.7729   12.2852 H         1 UNK         0.0831 
    109 H109      -51.8075  -21.7713   13.9441 H         1 UNK         0.0831 
    110 H110      -53.5399  -21.7838   13.6045 H         1 UNK         0.0831 
    111 H111      -53.0679  -23.5246   15.3176 H         1 UNK         0.3133 
    112 H112      -52.3898  -25.0729   17.0376 H         1 UNK         0.0566 
    113 H113      -54.6283  -25.9054   17.9241 H         1 UNK         0.0814 
    114 H114      -54.7566  -24.5573   16.8069 H         1 UNK         0.0814 
    115 H115      -55.1396  -26.1752   16.2569 H         1 UNK         0.0814 
    116 H116      -51.4750  -27.0851   17.1430 H         1 UNK         0.3091 
    117 H117      -51.8164  -29.6081   17.8711 H         1 UNK         0.0702 
    118 H118      -51.8664  -31.6642   16.4523 H         1 UNK         0.0785 
    119 H119      -52.7701  -30.8072   15.2065 H         1 UNK         0.0785 
    120 H120      -53.4982  -31.1062   16.7799 H         1 UNK         0.0785 
    121 H121      -50.8418  -28.5307   15.3464 H         1 UNK         0.2998 
    122 H122      -47.5517  -28.7816   16.4595 H         1 UNK         0.0697 
    123 H123      -48.5373  -30.1599   13.9022 H         1 UNK         0.0825 
    124 H124      -47.5674  -30.9169   15.1551 H         1 UNK         0.0825 
    125 H125      -46.8961  -29.5980   14.2133 H         1 UNK         0.0825 
    126 H126      -48.4085  -27.6355   14.0722 H         1 UNK         0.3029 
    127 H127      -50.0426  -25.4782   14.1796 H         1 UNK         0.0897 
    128 H128      -49.5161  -23.1540   14.8975 H         1 UNK         0.0792 
    129 H129      -50.1973  -24.0596   16.2352 H         1 UNK         0.0792 
    130 H130      -48.4657  -23.7653   16.1758 H         1 UNK         0.0792 
    131 H131      -47.0889  -25.3550   14.2800 H         1 UNK         0.3086 
    132 H132      -46.1220  -24.0259   12.4789 H         1 UNK         0.0583 
    133 H133      -44.9928  -25.8475   11.7284 H         1 UNK         0.1020 
    134 H134      -46.3672  -26.7666   12.2221 H         1 UNK         0.1020 
    135 H135      -48.4998  -26.0009    9.9796 H         1 UNK         0.0694 
    136 H136      -48.1434  -26.8145    8.5040 H         1 UNK         0.0694 
    137 H137      -48.0339  -23.8499   10.3708 H         1 UNK         0.2989 
    138 H138      -46.4819  -21.2423    8.8060 H         1 UNK         0.1055 
    139 H139      -45.1913  -22.8625    7.4284 H         1 UNK         0.0806 
    140 H140      -46.6542  -22.3893    6.5789 H         1 UNK         0.0806 
    141 H141      -46.5637  -23.9587    7.3780 H         1 UNK         0.0806 
    142 H142      -48.7227  -22.8541    7.9967 H         1 UNK         0.3061 
    143 H143      -50.9474  -22.2967   10.3280 H         1 UNK         0.0734 
    144 H144      -51.0852  -19.8201   10.2604 H         1 UNK         0.0832 
    145 H145      -51.0087  -19.8345    8.5045 H         1 UNK         0.0832 
    146 H146      -52.3996  -20.5275    9.3414 H         1 UNK         0.0832 
    147 H147      -51.3567  -22.0522    7.4609 H         1 UNK         0.3156 
    148 H148      -52.5607  -25.0321    7.2303 H         1 UNK         0.0589 
    149 H149      -51.1146  -22.9851    5.4629 H         1 UNK         0.0808 
    150 H150      -52.3989  -24.0638    4.9382 H         1 UNK         0.0808 
    151 H151      -52.7405  -22.8329    6.1324 H         1 UNK         0.0808 
    152 H152      -51.1999  -26.5504    6.4334 H         1 UNK         0.3098 
    153 H153      -49.1610  -26.9711    4.4639 H         1 UNK         0.0720 
    154 H154      -46.8297  -27.6143    5.1190 H         1 UNK         0.0791 
    155 H155      -46.8907  -26.4781    6.4660 H         1 UNK         0.0791 
    156 H156      -46.9715  -25.8937    4.8117 H         1 UNK         0.0791 
    157 H157      -48.6918  -28.0921    7.1652 H         1 UNK         0.3028 
@<TRIPOS>BOND
     1    1    2 1    
     2    1   82 1    
     3    1   83 1    
     4    1   84 1    
     5    2    3 2    
     6    2    4 am   BACKBONE|DICT|INTERRES
     7    4    5 1    
     8    4   85 1    
     9    5    6 1    
    10    5   80 1    
    11    5   86 1    
    12    6    7 1    
    13    6   87 1    
    14    6   88 1    
    15    7    8 1    
    16    8    9 1    
    17    8   89 1    
    18    8   90 1    
    19    9   10 ar   
    20    9   14 ar   
    21   10   11 ar   
    22   10   91 1    
    23   11   12 ar   
    24   11   58 1    
    25   12   13 ar   
    26   12   92 1    
    27   13   14 ar   
    28   13   15 1    
    29   14   93 1    
    30   15   16 1    
    31   15   94 1    
    32   15   95 1    
    33   16   17 1    
    34   17   18 1    
    35   17   96 1    
    36   17   97 1    
    37   18   19 1    
    38   18   22 1    
    39   18   98 1    
    40   19   20 am   BACKBONE|DICT|INTERRES
    41   19   21 2    
    42   20   99 1    
    43   20  100 1    
    44   22   23 am   BACKBONE|DICT|INTERRES
    45   22  101 1    
    46   23   24 2    
    47   23   25 1    
    48   25   26 1    
    49   25   27 1    
    50   25  102 1    
    51   26  103 1    
    52   26  104 1    
    53   26  105 1    
    54   27   28 am   BACKBONE|DICT|INTERRES
    55   27  106 1    
    56   28   29 2    
    57   28   30 1    
    58   30   31 1    
    59   30   32 1    
    60   30  107 1    
    61   31  108 1    
    62   31  109 1    
    63   31  110 1    
    64   32   33 am   BACKBONE|DICT|INTERRES
    65   32  111 1    
    66   33   34 2    
    67   33   35 1    
    68   35   36 1    
    69   35   37 1    
    70   35  112 1    
    71   36  113 1    
    72   36  114 1    
    73   36  115 1    
    74   37   38 am   BACKBONE|DICT|INTERRES
    75   37  116 1    
    76   38   39 2    
    77   38   40 1    
    78   40   41 1    
    79   40   42 1    
    80   40  117 1    
    81   41  118 1    
    82   41  119 1    
    83   41  120 1    
    84   42   43 am   BACKBONE|DICT|INTERRES
    85   42  121 1    
    86   43   44 2    
    87   43   45 1    
    88   45   46 1    
    89   45   47 1    
    90   45  122 1    
    91   46  123 1    
    92   46  124 1    
    93   46  125 1    
    94   47   48 am   BACKBONE|DICT|INTERRES
    95   47  126 1    
    96   48   49 2    
    97   48   50 1    
    98   50   51 1    
    99   50   52 1    
   100   50  127 1    
   101   51  128 1    
   102   51  129 1    
   103   51  130 1    
   104   52   53 am   BACKBONE|DICT|INTERRES
   105   52  131 1    
   106   53   54 2    
   107   53   55 1    
   108   55   56 1    
   109   55   59 1    
   110   55  132 1    
   111   56   57 1    
   112   56  133 1    
   113   56  134 1    
   114   57   58 1    
   115   58  135 1    
   116   58  136 1    
   117   59   60 am   BACKBONE|DICT|INTERRES
   118   59  137 1    
   119   60   61 2    
   120   60   62 1    
   121   62   63 1    
   122   62   64 1    
   123   62  138 1    
   124   63  139 1    
   125   63  140 1    
   126   63  141 1    
   127   64   65 am   BACKBONE|DICT|INTERRES
   128   64  142 1    
   129   65   66 2    
   130   65   67 1    
   131   67   68 1    
   132   67   69 1    
   133   67  143 1    
   134   68  144 1    
   135   68  145 1    
   136   68  146 1    
   137   69   70 am   BACKBONE|DICT|INTERRES
   138   69  147 1    
   139   70   71 2    
   140   70   72 1    
   141   72   73 1    
   142   72   74 1    
   143   72  148 1    
   144   73  149 1    
   145   73  150 1    
   146   73  151 1    
   147   74   75 am   BACKBONE|DICT|INTERRES
   148   74  152 1    
   149   75   76 2    
   150   75   77 1    
   151   77   78 1    
   152   77   79 1    
   153   77  153 1    
   154   78  154 1    
   155   78  155 1    
   156   78  156 1    
   157   79   80 am   BACKBONE|DICT|INTERRES
   158   79  157 1    
   159   80   81 2    
@<TRIPOS>SUBSTRUCTURE
     1 UNK         1 GROUP             0       ****    0 ROOT    
