@<TRIPOS>MOLECULE
3R207
157   159    1
SMALL
USER_CHARGES


@<TRIPOS>ATOM
      1 CA        -47.7460  -30.9212    9.5119 C.3       0 UNK        -0.1975 
      2 C         -48.3014  -30.1206    8.3446 C.2       0 UNK         0.4852 
      3 O         -48.7987  -29.0155    8.5528 O.2       0 UNK        -0.5216 
      4 N         -48.2138  -30.6665    7.1228 N.am      1 UNK        -0.4461 
      5 CA        -48.6596  -30.1156    5.8289 C.3       1 UNK         0.0864 
      6 C6        -50.1801  -29.8087    5.7289 C.3       14 UNK        -0.0898 
      7 S7        -51.2967  -31.1866    6.1756 S.3       14 UNK        -0.2598 
      8 C8        -51.9548  -30.7112    7.8144 C.3       14 UNK         0.0286 
      9 C9        -52.7966  -29.4392    7.7911 C.ar      14 UNK        -0.0844 
     10 C10       -52.1917  -28.2042    8.0283 C.ar      14 UNK        -0.0881 
     11 C11       -52.9312  -27.0209    8.0260 C.ar      14 UNK        -0.0643 
     12 C12       -54.3102  -27.0833    7.8089 C.ar      14 UNK        -0.0930 
     13 C13       -54.9383  -28.3142    7.5849 C.ar      14 UNK        -0.0827 
     14 C14       -54.1761  -29.4890    7.5700 C.ar      14 UNK        -0.1249 
     15 C15       -56.4400  -28.3664    7.3457 C.3       14 UNK         0.0141 
     16 S16       -57.3774  -28.1868    8.8953 S.3       14 UNK        -0.2313 
     17 C17       -57.0664  -29.8023    9.6809 C.3       14 UNK        -0.0915 
     18 CA        -57.8021  -29.9515   11.0379 C.3       13 UNK         0.0968 
     19 C         -57.7150  -31.4170   11.5573 C.2       13 UNK         0.5732 
     20 N         -57.0775  -31.6912   12.6890 N.am      13 UNK        -0.7310 
     21 O         -58.2468  -32.3244   10.9217 O.2       13 UNK        -0.5035 
     22 N         -57.3704  -28.9206   11.9987 N.am      13 UNK        -0.4233 
     23 C         -58.0655  -28.5365   13.0767 C.2       13 UNK         0.4989 
     24 O         -59.1482  -29.0260   13.4028 O.2       13 UNK        -0.4996 
     25 CA        -57.4281  -27.4307   13.9342 C.3       12 UNK         0.0216 
     26 CB        -58.1540  -27.2038   15.2754 C.3       12 UNK        -0.1964 
     27 N         -56.0179  -27.7366   14.1821 N.am      12 UNK        -0.4276 
     28 C         -55.0202  -26.8465   14.1680 C.2       12 UNK         0.5020 
     29 O         -55.1677  -25.6441   13.9334 O.2       12 UNK        -0.5489 
     30 CA        -53.6125  -27.4170   14.4139 C.3       11 UNK         0.0294 
     31 CB        -52.9658  -27.8283   13.0812 C.3       11 UNK        -0.2019 
     32 N         -52.7342  -26.4634   15.0922 N.am      11 UNK        -0.4493 
     33 C         -52.8799  -26.0441   16.3564 C.2       11 UNK         0.4932 
     34 O         -53.7736  -26.4343   17.1110 O.2       11 UNK        -0.5029 
     35 CA        -51.8176  -25.0460   16.8578 C.3       10 UNK         0.0280 
     36 CB        -51.9619  -24.6939   18.3536 C.3       10 UNK        -0.1976 
     37 N         -50.4564  -25.4983   16.5492 N.am      10 UNK        -0.4242 
     38 C         -49.8530  -26.6254   16.9593 C.2       10 UNK         0.5072 
     39 O         -50.3431  -27.4168   17.7663 O.2       10 UNK        -0.5224 
     40 CA        -48.4753  -26.9543   16.3513 C.3       9 UNK         0.0343 
     41 CB        -48.6098  -28.0999   15.3341 C.3       9 UNK        -0.2003 
     42 N         -47.8268  -25.8146   15.6974 N.am      9 UNK        -0.4272 
     43 C         -47.2809  -24.7720   16.3384 C.2       9 UNK         0.4988 
     44 O         -47.2055  -24.6839   17.5644 O.2       9 UNK        -0.5108 
     45 CA        -46.7569  -23.6185   15.4650 C.3       8 UNK         0.0248 
     46 CB        -45.3335  -23.9175   14.9681 C.3       8 UNK        -0.2001 
     47 N         -47.6300  -23.3130   14.3254 N.am      8 UNK        -0.4140 
     48 C         -48.8918  -22.8674   14.4350 C.2       8 UNK         0.5028 
     49 O         -49.4467  -22.6407   15.5102 O.2       8 UNK        -0.5428 
     50 CA        -49.6895  -22.6821   13.1342 C.3       7 UNK         0.0264 
     51 CB        -49.2728  -21.3890   12.4162 C.3       7 UNK        -0.1988 
     52 N         -49.5631  -23.8269   12.2299 N.am      7 UNK        -0.4454 
     53 C         -50.0050  -25.0636   12.5104 C.2       7 UNK         0.5027 
     54 O         -50.6324  -25.3457   13.5325 O.2       7 UNK        -0.5083 
     55 CA        -49.6261  -26.1967   11.5320 C.3       6 UNK         0.0844 
     56 C56       -50.6519  -26.5200   10.4066 C.3       14 UNK        -0.0967 
     57 S57       -51.9221  -25.2787    9.9642 S.3       14 UNK        -0.2604 
     58 C58       -52.2264  -25.6821    8.2129 C.3       14 UNK         0.0134 
     59 N         -48.2675  -26.0388   11.0087 N.am      6 UNK        -0.4116 
     60 C         -47.1574  -26.1353   11.7525 C.2       5 UNK         0.5034 
     61 O         -47.1557  -26.3627   12.9615 O.2       5 UNK        -0.5045 
     62 CA        -45.8242  -25.8962   11.0335 C.3       5 UNK         0.0224 
     63 CB        -45.4212  -27.1269   10.2040 C.3       5 UNK        -0.1978 
     64 N         -45.8706  -24.7056   10.1832 N.am      5 UNK        -0.4737 
     65 C         -45.9843  -23.4529   10.6475 C.2       4 UNK         0.5027 
     66 O         -46.0421  -23.1668   11.8430 O.2       4 UNK        -0.5211 
     67 CA        -46.0852  -22.3345    9.5982 C.3       4 UNK         0.0297 
     68 CB        -44.6875  -21.9233    9.1092 C.3       4 UNK        -0.1993 
     69 N         -46.9202  -22.7057    8.4532 N.am      4 UNK        -0.4486 
     70 C         -48.2375  -22.9412    8.5276 C.2       3 UNK         0.4961 
     71 O         -48.8929  -22.8611    9.5652 O.2       3 UNK        -0.5105 
     72 CA        -48.9313  -23.3852    7.2305 C.3       3 UNK         0.0299 
     73 CB        -49.2252  -22.1763    6.3280 C.3       3 UNK        -0.1972 
     74 N         -48.1862  -24.4009    6.4761 N.am      3 UNK        -0.4305 
     75 C         -47.8356  -25.6011    6.9574 C.2       2 UNK         0.5006 
     76 O         -48.0232  -25.9558    8.1231 O.2       2 UNK        -0.5106 
     77 CA        -47.1473  -26.5652    5.9871 C.3       2 UNK         0.0296 
     78 CB        -45.6204  -26.5496    6.1714 C.3       2 UNK        -0.2002 
     79 N         -47.6761  -27.8971    6.2545 N.am      2 UNK        -0.4032 
     80 C         -47.8564  -28.8775    5.3641 C.2       1 UNK         0.5000 
     81 O         -47.4463  -28.8260    4.2028 O.2       1 UNK        -0.5238 
     82 H82       -47.3249  -31.8739    9.1916 H         1 UNK         0.0889 
     83 H83       -48.5361  -31.1238   10.2344 H         1 UNK         0.0889 
     84 H84       -46.9627  -30.3538   10.0140 H         1 UNK         0.0889 
     85 H85       -47.7737  -31.5730    7.0457 H         1 UNK         0.3028 
     86 H86       -48.4466  -30.9027    5.1037 H         1 UNK         0.0864 
     87 H87       -50.4198  -28.9232    6.3073 H         1 UNK         0.0720 
     88 H88       -50.4266  -29.5422    4.6992 H         1 UNK         0.0720 
     89 H89       -51.1320  -30.6019    8.5205 H         1 UNK         0.0814 
     90 H90       -52.5591  -31.5363    8.1941 H         1 UNK         0.0814 
     91 H91       -51.1292  -28.1661    8.2028 H         1 UNK         0.1469 
     92 H92       -54.8963  -26.1744    7.8100 H         1 UNK         0.1381 
     93 H93       -54.6565  -30.4418    7.3939 H         1 UNK         0.1206 
     94 H94       -56.7241  -29.2965    6.8509 H         1 UNK         0.0813 
     95 H95       -56.7259  -27.5621    6.6664 H         1 UNK         0.0813 
     96 H96       -55.9912  -29.9303    9.8174 H         1 UNK         0.0638 
     97 H97       -57.3852  -30.5765    8.9802 H         1 UNK         0.0638 
     98 H98       -58.8636  -29.7820   10.8466 H         1 UNK         0.0568 
     99 H99       -57.0372  -32.6453   13.0110 H         1 UNK         0.3450 
    100 H100      -56.6416  -30.9598   13.2233 H         1 UNK         0.3450 
    101 H101      -56.4968  -28.4608   11.7907 H         1 UNK         0.2987 
    102 H102      -57.5085  -26.5135   13.3466 H         1 UNK         0.0766 
    103 H103      -57.6980  -26.3893   15.8386 H         1 UNK         0.0798 
    104 H104      -58.1321  -28.0967   15.9013 H         1 UNK         0.0798 
    105 H105      -59.2003  -26.9391   15.1165 H         1 UNK         0.0798 
    106 H106      -55.8026  -28.7050   14.3759 H         1 UNK         0.3198 
    107 H107      -53.6946  -28.3001   15.0513 H         1 UNK         0.0843 
    108 H108      -52.8837  -26.9770   12.4044 H         1 UNK         0.0831 
    109 H109      -53.5557  -28.5921   12.5731 H         1 UNK         0.0831 
    110 H110      -51.9660  -28.2362   13.2313 H         1 UNK         0.0831 
    111 H111      -51.9825  -26.0595   14.5347 H         1 UNK         0.3133 
    112 H112      -51.9667  -24.1276   16.2879 H         1 UNK         0.0566 
    113 H113      -51.2077  -23.9705   18.6636 H         1 UNK         0.0814 
    114 H114      -52.9381  -24.2520   18.5563 H         1 UNK         0.0814 
    115 H115      -51.8659  -25.5734   18.9909 H         1 UNK         0.0814 
    116 H116      -49.9659  -24.9329   15.8675 H         1 UNK         0.3091 
    117 H117      -47.8306  -27.2927   17.1650 H         1 UNK         0.0702 
    118 H118      -47.6395  -28.3883   14.9293 H         1 UNK         0.0785 
    119 H119      -49.2521  -27.8196   14.4986 H         1 UNK         0.0785 
    120 H120      -49.0446  -28.9869   15.7969 H         1 UNK         0.0785 
    121 H121      -47.7675  -25.8475   14.6821 H         1 UNK         0.2998 
    122 H122      -46.7144  -22.7259   16.0925 H         1 UNK         0.0697 
    123 H123      -45.3114  -24.7779   14.2985 H         1 UNK         0.0825 
    124 H124      -44.6650  -24.1345   15.8022 H         1 UNK         0.0825 
    125 H125      -44.9151  -23.0664   14.4306 H         1 UNK         0.0825 
    126 H126      -47.2270  -23.4316   13.3994 H         1 UNK         0.3029 
    127 H127      -50.7439  -22.5924   13.4048 H         1 UNK         0.0897 
    128 H128      -49.9051  -21.1981   11.5489 H         1 UNK         0.0792 
    129 H129      -49.3630  -20.5270   13.0785 H         1 UNK         0.0792 
    130 H130      -48.2390  -21.4314   12.0722 H         1 UNK         0.0792 
    131 H131      -49.1239  -23.6519   11.3293 H         1 UNK         0.3086 
    132 H132      -49.5833  -27.0966   12.1499 H         1 UNK         0.0583 
    133 H133      -50.1064  -26.7806    9.5008 H         1 UNK         0.1020 
    134 H134      -51.1901  -27.4301   10.6747 H         1 UNK         0.1020 
    135 H135      -52.8218  -24.8821    7.7707 H         1 UNK         0.0694 
    136 H136      -51.2802  -25.6892    7.6704 H         1 UNK         0.0694 
    137 H137      -48.1764  -25.8722   10.0089 H         1 UNK         0.2989 
    138 H138      -45.0604  -25.7341   11.7975 H         1 UNK         0.1055 
    139 H139      -45.3196  -28.0058   10.8420 H         1 UNK         0.0806 
    140 H140      -44.4627  -26.9762    9.7074 H         1 UNK         0.0806 
    141 H141      -46.1630  -27.3680    9.4418 H         1 UNK         0.0806 
    142 H142      -45.8930  -24.8545    9.1852 H         1 UNK         0.3061 
    143 H143      -46.5450  -21.4695   10.0813 H         1 UNK         0.0734 
    144 H144      -44.7388  -21.0734    8.4285 H         1 UNK         0.0832 
    145 H145      -44.0549  -21.6266    9.9471 H         1 UNK         0.0832 
    146 H146      -44.1807  -22.7392    8.5923 H         1 UNK         0.0832 
    147 H147      -46.4635  -22.8016    7.5579 H         1 UNK         0.3156 
    148 H148      -49.8869  -23.8272    7.5156 H         1 UNK         0.0589 
    149 H149      -48.3101  -21.7075    5.9643 H         1 UNK         0.0808 
    150 H150      -49.8232  -22.4629    5.4628 H         1 UNK         0.0808 
    151 H151      -49.7885  -21.4145    6.8692 H         1 UNK         0.0808 
    152 H152      -47.9810  -24.1859    5.5106 H         1 UNK         0.3098 
    153 H153      -47.3949  -26.2752    4.9637 H         1 UNK         0.0720 
    154 H154      -45.1323  -27.2255    5.4691 H         1 UNK         0.0791 
    155 H155      -45.3318  -26.8518    7.1781 H         1 UNK         0.0791 
    156 H156      -45.2141  -25.5525    5.9975 H         1 UNK         0.0791 
    157 H157      -48.0687  -28.0244    7.1887 H         1 UNK         0.3028 
@<TRIPOS>BOND
     1    1    2 1    
     2    1   82 1    
     3    1   83 1    
     4    1   84 1    
     5    2    3 2    
     6    2    4 am   BACKBONE|DICT|INTERRES
     7    4    5 1    
     8    4   85 1    
     9    5    6 1    
    10    5   80 1    
    11    5   86 1    
    12    6    7 1    
    13    6   87 1    
    14    6   88 1    
    15    7    8 1    
    16    8    9 1    
    17    8   89 1    
    18    8   90 1    
    19    9   10 ar   
    20    9   14 ar   
    21   10   11 ar   
    22   10   91 1    
    23   11   12 ar   
    24   11   58 1    
    25   12   13 ar   
    26   12   92 1    
    27   13   14 ar   
    28   13   15 1    
    29   14   93 1    
    30   15   16 1    
    31   15   94 1    
    32   15   95 1    
    33   16   17 1    
    34   17   18 1    
    35   17   96 1    
    36   17   97 1    
    37   18   19 1    
    38   18   22 1    
    39   18   98 1    
    40   19   20 am   BACKBONE|DICT|INTERRES
    41   19   21 2    
    42   20   99 1    
    43   20  100 1    
    44   22   23 am   BACKBONE|DICT|INTERRES
    45   22  101 1    
    46   23   24 2    
    47   23   25 1    
    48   25   26 1    
    49   25   27 1    
    50   25  102 1    
    51   26  103 1    
    52   26  104 1    
    53   26  105 1    
    54   27   28 am   BACKBONE|DICT|INTERRES
    55   27  106 1    
    56   28   29 2    
    57   28   30 1    
    58   30   31 1    
    59   30   32 1    
    60   30  107 1    
    61   31  108 1    
    62   31  109 1    
    63   31  110 1    
    64   32   33 am   BACKBONE|DICT|INTERRES
    65   32  111 1    
    66   33   34 2    
    67   33   35 1    
    68   35   36 1    
    69   35   37 1    
    70   35  112 1    
    71   36  113 1    
    72   36  114 1    
    73   36  115 1    
    74   37   38 am   BACKBONE|DICT|INTERRES
    75   37  116 1    
    76   38   39 2    
    77   38   40 1    
    78   40   41 1    
    79   40   42 1    
    80   40  117 1    
    81   41  118 1    
    82   41  119 1    
    83   41  120 1    
    84   42   43 am   BACKBONE|DICT|INTERRES
    85   42  121 1    
    86   43   44 2    
    87   43   45 1    
    88   45   46 1    
    89   45   47 1    
    90   45  122 1    
    91   46  123 1    
    92   46  124 1    
    93   46  125 1    
    94   47   48 am   BACKBONE|DICT|INTERRES
    95   47  126 1    
    96   48   49 2    
    97   48   50 1    
    98   50   51 1    
    99   50   52 1    
   100   50  127 1    
   101   51  128 1    
   102   51  129 1    
   103   51  130 1    
   104   52   53 am   BACKBONE|DICT|INTERRES
   105   52  131 1    
   106   53   54 2    
   107   53   55 1    
   108   55   56 1    
   109   55   59 1    
   110   55  132 1    
   111   56   57 1    
   112   56  133 1    
   113   56  134 1    
   114   57   58 1    
   115   58  135 1    
   116   58  136 1    
   117   59   60 am   BACKBONE|DICT|INTERRES
   118   59  137 1    
   119   60   61 2    
   120   60   62 1    
   121   62   63 1    
   122   62   64 1    
   123   62  138 1    
   124   63  139 1    
   125   63  140 1    
   126   63  141 1    
   127   64   65 am   BACKBONE|DICT|INTERRES
   128   64  142 1    
   129   65   66 2    
   130   65   67 1    
   131   67   68 1    
   132   67   69 1    
   133   67  143 1    
   134   68  144 1    
   135   68  145 1    
   136   68  146 1    
   137   69   70 am   BACKBONE|DICT|INTERRES
   138   69  147 1    
   139   70   71 2    
   140   70   72 1    
   141   72   73 1    
   142   72   74 1    
   143   72  148 1    
   144   73  149 1    
   145   73  150 1    
   146   73  151 1    
   147   74   75 am   BACKBONE|DICT|INTERRES
   148   74  152 1    
   149   75   76 2    
   150   75   77 1    
   151   77   78 1    
   152   77   79 1    
   153   77  153 1    
   154   78  154 1    
   155   78  155 1    
   156   78  156 1    
   157   79   80 am   BACKBONE|DICT|INTERRES
   158   79  157 1    
   159   80   81 2    
@<TRIPOS>SUBSTRUCTURE
     1 UNK         1 GROUP             0       ****    0 ROOT    
