@<TRIPOS>MOLECULE
3R207
157   159    1
SMALL
USER_CHARGES


@<TRIPOS>ATOM
      1 CA        -44.6774  -27.2475    5.6270 C.3       0 UNK        -0.1975 
      2 C         -46.1011  -27.0939    5.1136 C.2       0 UNK         0.4852 
      3 O         -46.3344  -26.3265    4.1785 O.2       0 UNK        -0.5216 
      4 N         -47.0502  -27.8271    5.7104 N.am      1 UNK        -0.4461 
      5 CA        -48.4826  -27.7515    5.4049 C.3       1 UNK         0.0864 
      6 C6        -49.2440  -29.0001    5.9216 C.3       14 UNK        -0.0898 
      7 S7        -49.1504  -29.2396    7.7263 S.3       14 UNK        -0.2598 
      8 C8        -50.0415  -30.8138    7.9123 C.3       14 UNK         0.0286 
      9 C9        -50.4019  -31.0487    9.3701 C.ar      14 UNK        -0.0844 
     10 C10       -49.4262  -31.4659   10.2770 C.ar      14 UNK        -0.0881 
     11 C11       -49.7316  -31.6226   11.6335 C.ar      14 UNK        -0.0643 
     12 C12       -51.0353  -31.3669   12.0753 C.ar      14 UNK        -0.0930 
     13 C13       -52.0301  -30.9734   11.1720 C.ar      14 UNK        -0.0827 
     14 C14       -51.7057  -30.8280    9.8189 C.ar      14 UNK        -0.1249 
     15 C15       -53.4557  -30.7196   11.6524 C.3       14 UNK         0.0141 
     16 S16       -54.0667  -29.0878   11.1264 S.3       14 UNK        -0.2313 
     17 C17       -55.6409  -28.9603   12.0375 C.3       14 UNK        -0.0915 
     18 CA        -56.4252  -27.6750   11.6600 C.3       13 UNK         0.0968 
     19 C         -57.7873  -27.5872   12.4088 C.2       13 UNK         0.5732 
     20 N         -58.0799  -26.5293   13.1580 N.am      13 UNK        -0.7310 
     21 O         -58.6079  -28.4945   12.2922 O.2       13 UNK        -0.5035 
     22 N         -55.5881  -26.4770   11.8023 N.am      13 UNK        -0.4233 
     23 C         -55.7280  -25.3460   11.1036 C.2       13 UNK         0.4989 
     24 O         -56.5698  -25.1831   10.2183 O.2       13 UNK        -0.4996 
     25 CA        -54.7533  -24.2104   11.4675 C.3       12 UNK         0.0216 
     26 CB        -55.2380  -22.8200   11.0047 C.3       12 UNK        -0.1964 
     27 N         -54.4024  -24.2008   12.8940 N.am      12 UNK        -0.4276 
     28 C         -55.2313  -24.0336   13.9344 C.2       12 UNK         0.5020 
     29 O         -56.4489  -23.8721   13.8231 O.2       12 UNK        -0.5489 
     30 CA        -54.5808  -24.0782   15.3291 C.3       11 UNK         0.0294 
     31 CB        -55.6045  -23.9445   16.4771 C.3       11 UNK        -0.2019 
     32 N         -53.7250  -25.2532   15.5333 N.am      11 UNK        -0.4493 
     33 C         -54.0867  -26.5469   15.5176 C.2       11 UNK         0.4932 
     34 O         -55.2222  -26.9305   15.2372 O.2       11 UNK        -0.5029 
     35 CA        -53.0194  -27.6054   15.8792 C.3       10 UNK         0.0280 
     36 CB        -53.0038  -28.7571   14.8625 C.3       10 UNK        -0.1976 
     37 N         -51.6639  -27.0651   15.9978 N.am      10 UNK        -0.4242 
     38 C         -51.1754  -26.4129   17.0612 C.2       10 UNK         0.5072 
     39 O         -51.7937  -26.2503   18.1132 O.2       10 UNK        -0.5224 
     40 CA        -49.7798  -25.7863   16.8990 C.3       9 UNK         0.0343 
     41 CB        -48.6811  -26.7816   17.3056 C.3       9 UNK        -0.2003 
     42 N         -49.5319  -25.3083   15.5350 N.am      9 UNK        -0.4272 
     43 C         -50.1870  -24.2953   14.9474 C.2       9 UNK         0.4988 
     44 O         -51.0613  -23.6287   15.5013 O.2       9 UNK        -0.5108 
     45 CA        -49.8343  -24.0148   13.4778 C.3       8 UNK         0.0248 
     46 CB        -48.4609  -23.3298   13.3857 C.3       8 UNK        -0.2001 
     47 N         -49.8399  -25.2378   12.6691 N.am      8 UNK        -0.4140 
     48 C         -50.9318  -25.9864   12.4385 C.2       8 UNK         0.5028 
     49 O         -52.0591  -25.6659   12.8098 O.2       8 UNK        -0.5428 
     50 CA        -50.7471  -27.3365   11.7187 C.3       7 UNK         0.0264 
     51 CB        -50.9690  -27.1724   10.2103 C.3       7 UNK        -0.1988 
     52 N         -49.4468  -27.9615   11.9564 N.am      7 UNK        -0.4454 
     53 C         -48.9465  -28.2577   13.1647 C.2       7 UNK         0.5027 
     54 O         -49.6103  -28.2029   14.2009 O.2       7 UNK        -0.5083 
     55 CA        -47.4319  -28.5513   13.2631 C.3       6 UNK         0.0844 
     56 C56       -47.1383  -29.9923   13.7524 C.3       14 UNK        -0.0967 
     57 S57       -47.0713  -31.2576   12.4368 S.3       14 UNK        -0.2604 
     58 C58       -48.6706  -32.1214   12.6090 C.3       14 UNK         0.0134 
     59 N         -46.6562  -28.1771   12.0690 N.am      6 UNK        -0.4116 
     60 C         -46.5574  -26.9422   11.5534 C.2       5 UNK         0.5034 
     61 O         -47.1004  -25.9608   12.0646 O.2       5 UNK        -0.5045 
     62 CA        -45.7740  -26.7837   10.2357 C.3       5 UNK         0.0224 
     63 CB        -45.7731  -28.0607    9.3728 C.3       5 UNK        -0.1978 
     64 N         -46.3231  -25.6779    9.4431 N.am      5 UNK        -0.4737 
     65 C         -45.8804  -24.4138    9.4902 C.2       4 UNK         0.5027 
     66 O         -44.9095  -24.0516   10.1555 O.2       4 UNK        -0.5211 
     67 CA        -46.6358  -23.3745    8.6487 C.3       4 UNK         0.0297 
     68 CB        -46.0759  -23.3429    7.2165 C.3       4 UNK        -0.1993 
     69 N         -48.0735  -23.6500    8.5958 N.am      4 UNK        -0.4486 
     70 C         -49.0065  -23.0031    9.3116 C.2       3 UNK         0.4961 
     71 O         -48.7544  -22.0871   10.0943 O.2       3 UNK        -0.5105 
     72 CA        -50.4691  -23.4103    9.0597 C.3       3 UNK         0.0299 
     73 CB        -51.4965  -22.3918    9.5885 C.3       3 UNK        -0.1972 
     74 N         -50.6457  -23.6075    7.6250 N.am      3 UNK        -0.4305 
     75 C         -51.3147  -24.6087    7.0468 C.2       2 UNK         0.5006 
     76 O         -52.0819  -25.3662    7.6399 O.2       2 UNK        -0.5106 
     77 CA        -51.0367  -24.8389    5.5482 C.3       2 UNK         0.0296 
     78 CB        -50.3508  -23.6447    4.8434 C.3       2 UNK        -0.2002 
     79 N         -50.2574  -26.0634    5.3161 N.am      2 UNK        -0.4032 
     80 C         -49.1050  -26.4275    5.9061 C.2       1 UNK         0.5000 
     81 O         -48.5435  -25.7815    6.8002 O.2       1 UNK        -0.5238 
     82 H82       -44.4448  -26.4497    6.3320 H         1 UNK         0.0889 
     83 H83       -43.9687  -27.1906    4.8011 H         1 UNK         0.0889 
     84 H84       -44.5310  -28.2054    6.1255 H         1 UNK         0.0889 
     85 H85       -46.8123  -28.4206    6.4913 H         1 UNK         0.3028 
     86 H86       -48.5741  -27.7469    4.3163 H         1 UNK         0.0864 
     87 H87       -48.8437  -29.8934    5.4392 H         1 UNK         0.0720 
     88 H88       -50.2953  -28.9546    5.6317 H         1 UNK         0.0720 
     89 H89       -49.4219  -31.6316    7.5415 H         1 UNK         0.0814 
     90 H90       -50.9421  -30.7998    7.2966 H         1 UNK         0.0814 
     91 H91       -48.4215  -31.6557    9.9249 H         1 UNK         0.1469 
     92 H92       -51.2795  -31.4898   13.1215 H         1 UNK         0.1381 
     93 H93       -52.4669  -30.5133    9.1182 H         1 UNK         0.1206 
     94 H94       -53.5132  -30.7875   12.7394 H         1 UNK         0.0813 
     95 H95       -54.1115  -31.4949   11.2544 H         1 UNK         0.0813 
     96 H96       -55.4313  -28.9765   13.1074 H         1 UNK         0.0638 
     97 H97       -56.2349  -29.8501   11.8213 H         1 UNK         0.0638 
     98 H98       -56.6857  -27.7652   10.6038 H         1 UNK         0.0568 
     99 H99       -58.9690  -26.4928   13.6295 H         1 UNK         0.3450 
    100 H100      -57.4177  -25.7723   13.2734 H         1 UNK         0.3450 
    101 H101      -54.8842  -26.5151   12.5250 H         1 UNK         0.2987 
    102 H102      -53.8281  -24.4304   10.9323 H         1 UNK         0.0766 
    103 H103      -54.5183  -22.0434   11.2634 H         1 UNK         0.0798 
    104 H104      -56.1957  -22.5547   11.4537 H         1 UNK         0.0798 
    105 H105      -55.3676  -22.7918    9.9222 H         1 UNK         0.0798 
    106 H106      -53.4415  -24.4842   13.0884 H         1 UNK         0.3198 
    107 H107      -53.9203  -23.2111   15.3801 H         1 UNK         0.0843 
    108 H108      -56.3264  -24.7619   16.4742 H         1 UNK         0.0831 
    109 H109      -56.1681  -23.0148   16.3902 H         1 UNK         0.0831 
    110 H110      -55.1117  -23.9348   17.4492 H         1 UNK         0.0831 
    111 H111      -52.7516  -25.0398   15.7150 H         1 UNK         0.3133 
    112 H112      -53.3032  -28.0239   16.8468 H         1 UNK         0.0566 
    113 H113      -52.1947  -29.4606   15.0601 H         1 UNK         0.0814 
    114 H114      -53.9364  -29.3202   14.9009 H         1 UNK         0.0814 
    115 H115      -52.8861  -28.3854   13.8462 H         1 UNK         0.0814 
    116 H116      -51.0481  -27.2087   15.2031 H         1 UNK         0.3091 
    117 H117      -49.7247  -24.9253   17.5686 H         1 UNK         0.0702 
    118 H118      -47.6922  -26.3260   17.2509 H         1 UNK         0.0785 
    119 H119      -48.6790  -27.6680   16.6704 H         1 UNK         0.0785 
    120 H120      -48.8246  -27.1193   18.3329 H         1 UNK         0.0785 
    121 H121      -48.8569  -25.8241   14.9900 H         1 UNK         0.2998 
    122 H122      -50.5862  -23.3382   13.0662 H         1 UNK         0.0697 
    123 H123      -47.6738  -23.9260   13.8489 H         1 UNK         0.0825 
    124 H124      -48.4746  -22.3614   13.8871 H         1 UNK         0.0825 
    125 H125      -48.1675  -23.1564   12.3522 H         1 UNK         0.0825 
    126 H126      -48.9333  -25.5661   12.3447 H         1 UNK         0.3029 
    127 H127      -51.5059  -28.0178   12.1010 H         1 UNK         0.0897 
    128 H128      -50.1568  -26.6264    9.7302 H         1 UNK         0.0792 
    129 H129      -51.8979  -26.6370   10.0089 H         1 UNK         0.0792 
    130 H130      -51.0537  -28.1395    9.7193 H         1 UNK         0.0792 
    131 H131      -48.8474  -28.0735   11.1531 H         1 UNK         0.3086 
    132 H132      -47.0821  -27.8859   14.0556 H         1 UNK         0.0583 
    133 H133      -46.1585  -29.9984   14.2325 H         1 UNK         0.1020 
    134 H134      -47.8310  -30.2948   14.5403 H         1 UNK         0.1020 
    135 H135      -48.5066  -33.1816   12.4121 H         1 UNK         0.0694 
    136 H136      -49.0224  -32.0573   13.6394 H         1 UNK         0.0694 
    137 H137      -46.2076  -28.9448   11.5900 H         1 UNK         0.2989 
    138 H138      -44.7397  -26.5626   10.5084 H         1 UNK         0.1055 
    139 H139      -45.2393  -28.8772    9.8606 H         1 UNK         0.0806 
    140 H140      -45.2702  -27.8871    8.4231 H         1 UNK         0.0806 
    141 H141      -46.7838  -28.4049    9.1576 H         1 UNK         0.0806 
    142 H142      -47.1343  -25.8812    8.8755 H         1 UNK         0.3061 
    143 H143      -46.4583  -22.3949    9.0980 H         1 UNK         0.0734 
    144 H144      -46.5579  -22.5682    6.6203 H         1 UNK         0.0832 
    145 H145      -45.0060  -23.1303    7.2201 H         1 UNK         0.0832 
    146 H146      -46.2174  -24.2948    6.7033 H         1 UNK         0.0832 
    147 H147      -48.3623  -24.3987    7.9649 H         1 UNK         0.3156 
    148 H148      -50.6243  -24.3524    9.5858 H         1 UNK         0.0589 
    149 H149      -51.3597  -21.4097    9.1347 H         1 UNK         0.0808 
    150 H150      -52.5160  -22.7174    9.3832 H         1 UNK         0.0808 
    151 H151      -51.4066  -22.2719   10.6688 H         1 UNK         0.0808 
    152 H152      -50.0445  -23.0466    7.0369 H         1 UNK         0.3098 
    153 H153      -52.0095  -24.9885    5.0774 H         1 UNK         0.0720 
    154 H154      -50.2904  -23.8139    3.7682 H         1 UNK         0.0791 
    155 H155      -49.3335  -23.4791    5.2011 H         1 UNK         0.0791 
    156 H156      -50.9145  -22.7214    4.9854 H         1 UNK         0.0791 
    157 H157      -50.6522  -26.6920    4.6308 H         1 UNK         0.3028 
@<TRIPOS>BOND
     1    1    2 1    
     2    1   82 1    
     3    1   83 1    
     4    1   84 1    
     5    2    3 2    
     6    2    4 am   BACKBONE|DICT|INTERRES
     7    4    5 1    
     8    4   85 1    
     9    5    6 1    
    10    5   80 1    
    11    5   86 1    
    12    6    7 1    
    13    6   87 1    
    14    6   88 1    
    15    7    8 1    
    16    8    9 1    
    17    8   89 1    
    18    8   90 1    
    19    9   10 ar   
    20    9   14 ar   
    21   10   11 ar   
    22   10   91 1    
    23   11   12 ar   
    24   11   58 1    
    25   12   13 ar   
    26   12   92 1    
    27   13   14 ar   
    28   13   15 1    
    29   14   93 1    
    30   15   16 1    
    31   15   94 1    
    32   15   95 1    
    33   16   17 1    
    34   17   18 1    
    35   17   96 1    
    36   17   97 1    
    37   18   19 1    
    38   18   22 1    
    39   18   98 1    
    40   19   20 am   BACKBONE|DICT|INTERRES
    41   19   21 2    
    42   20   99 1    
    43   20  100 1    
    44   22   23 am   BACKBONE|DICT|INTERRES
    45   22  101 1    
    46   23   24 2    
    47   23   25 1    
    48   25   26 1    
    49   25   27 1    
    50   25  102 1    
    51   26  103 1    
    52   26  104 1    
    53   26  105 1    
    54   27   28 am   BACKBONE|DICT|INTERRES
    55   27  106 1    
    56   28   29 2    
    57   28   30 1    
    58   30   31 1    
    59   30   32 1    
    60   30  107 1    
    61   31  108 1    
    62   31  109 1    
    63   31  110 1    
    64   32   33 am   BACKBONE|DICT|INTERRES
    65   32  111 1    
    66   33   34 2    
    67   33   35 1    
    68   35   36 1    
    69   35   37 1    
    70   35  112 1    
    71   36  113 1    
    72   36  114 1    
    73   36  115 1    
    74   37   38 am   BACKBONE|DICT|INTERRES
    75   37  116 1    
    76   38   39 2    
    77   38   40 1    
    78   40   41 1    
    79   40   42 1    
    80   40  117 1    
    81   41  118 1    
    82   41  119 1    
    83   41  120 1    
    84   42   43 am   BACKBONE|DICT|INTERRES
    85   42  121 1    
    86   43   44 2    
    87   43   45 1    
    88   45   46 1    
    89   45   47 1    
    90   45  122 1    
    91   46  123 1    
    92   46  124 1    
    93   46  125 1    
    94   47   48 am   BACKBONE|DICT|INTERRES
    95   47  126 1    
    96   48   49 2    
    97   48   50 1    
    98   50   51 1    
    99   50   52 1    
   100   50  127 1    
   101   51  128 1    
   102   51  129 1    
   103   51  130 1    
   104   52   53 am   BACKBONE|DICT|INTERRES
   105   52  131 1    
   106   53   54 2    
   107   53   55 1    
   108   55   56 1    
   109   55   59 1    
   110   55  132 1    
   111   56   57 1    
   112   56  133 1    
   113   56  134 1    
   114   57   58 1    
   115   58  135 1    
   116   58  136 1    
   117   59   60 am   BACKBONE|DICT|INTERRES
   118   59  137 1    
   119   60   61 2    
   120   60   62 1    
   121   62   63 1    
   122   62   64 1    
   123   62  138 1    
   124   63  139 1    
   125   63  140 1    
   126   63  141 1    
   127   64   65 am   BACKBONE|DICT|INTERRES
   128   64  142 1    
   129   65   66 2    
   130   65   67 1    
   131   67   68 1    
   132   67   69 1    
   133   67  143 1    
   134   68  144 1    
   135   68  145 1    
   136   68  146 1    
   137   69   70 am   BACKBONE|DICT|INTERRES
   138   69  147 1    
   139   70   71 2    
   140   70   72 1    
   141   72   73 1    
   142   72   74 1    
   143   72  148 1    
   144   73  149 1    
   145   73  150 1    
   146   73  151 1    
   147   74   75 am   BACKBONE|DICT|INTERRES
   148   74  152 1    
   149   75   76 2    
   150   75   77 1    
   151   77   78 1    
   152   77   79 1    
   153   77  153 1    
   154   78  154 1    
   155   78  155 1    
   156   78  156 1    
   157   79   80 am   BACKBONE|DICT|INTERRES
   158   79  157 1    
   159   80   81 2    
@<TRIPOS>SUBSTRUCTURE
     1 UNK         1 GROUP             0       ****    0 ROOT    
