@<TRIPOS>MOLECULE
3R207
157   159    1
SMALL
USER_CHARGES


@<TRIPOS>ATOM
      1 CA        -46.6784  -28.9548   -0.1017 C.3       0 UNK        -0.1975 
      2 C         -47.5666  -28.2393    0.9052 C.2       0 UNK         0.4852 
      3 O         -48.2636  -27.2919    0.5407 O.2       0 UNK        -0.5216 
      4 N         -47.5429  -28.6811    2.1710 N.am      1 UNK        -0.4461 
      5 CA        -48.3373  -28.1173    3.2731 C.3       1 UNK         0.0864 
      6 C6        -48.4984  -29.1434    4.4291 C.3       14 UNK        -0.0898 
      7 S7        -50.1604  -29.0974    5.1805 S.3       14 UNK        -0.2598 
      8 C8        -49.7747  -28.4751    6.8434 C.3       14 UNK         0.0286 
      9 C9        -51.0346  -28.3127    7.6790 C.ar      14 UNK        -0.0844 
     10 C10       -51.6418  -27.0592    7.8013 C.ar      14 UNK        -0.0881 
     11 C11       -52.8079  -26.9076    8.5566 C.ar      14 UNK        -0.0643 
     12 C12       -53.3733  -28.0236    9.1793 C.ar      14 UNK        -0.0930 
     13 C13       -52.7619  -29.2764    9.0888 C.ar      14 UNK        -0.0827 
     14 C14       -51.5952  -29.4162    8.3307 C.ar      14 UNK        -0.1249 
     15 C15       -53.3797  -30.4817    9.7862 C.3       14 UNK         0.0141 
     16 S16       -52.6159  -30.8270   11.4065 S.3       14 UNK        -0.2313 
     17 C17       -53.2522  -29.4661   12.4421 C.3       14 UNK        -0.0915 
     18 CA        -54.6225  -29.7958   13.0940 C.3       13 UNK         0.0968 
     19 C         -54.4651  -30.5432   14.4480 C.2       13 UNK         0.5732 
     20 N         -54.1831  -31.8380   14.4106 N.am      13 UNK        -0.7310 
     21 O         -54.5671  -29.9600   15.5261 O.2       13 UNK        -0.5035 
     22 N         -55.4474  -28.5874   13.2160 N.am      13 UNK        -0.4233 
     23 C         -56.7757  -28.5753   13.3672 C.2       13 UNK         0.4989 
     24 O         -57.4797  -29.5865   13.3284 O.2       13 UNK        -0.4996 
     25 CA        -57.4160  -27.1937   13.6172 C.3       12 UNK         0.0216 
     26 CB        -58.9537  -27.2293   13.5290 C.3       12 UNK        -0.1964 
     27 N         -57.0272  -26.6388   14.9177 N.am      12 UNK        -0.4276 
     28 C         -55.8229  -26.1329   15.2083 C.2       12 UNK         0.5020 
     29 O         -54.9060  -26.0512   14.3873 O.2       12 UNK        -0.5489 
     30 CA        -55.5961  -25.6782   16.6542 C.3       11 UNK         0.0294 
     31 CB        -55.5303  -26.8921   17.6030 C.3       11 UNK        -0.2019 
     32 N         -54.3421  -24.9335   16.7212 N.am      11 UNK        -0.4493 
     33 C         -53.9640  -24.1139   17.7093 C.2       11 UNK         0.4932 
     34 O         -54.6840  -23.8134   18.6636 O.2       11 UNK        -0.5029 
     35 CA        -52.5228  -23.5742   17.6197 C.3       10 UNK         0.0280 
     36 CB        -52.0667  -22.8127   18.8824 C.3       10 UNK        -0.1976 
     37 N         -51.5801  -24.6419   17.2657 N.am      10 UNK        -0.4242 
     38 C         -51.3063  -25.7558   17.9633 C.2       10 UNK         0.5072 
     39 O         -51.7048  -25.9771   19.1075 O.2       10 UNK        -0.5224 
     40 CA        -50.4730  -26.8329   17.2481 C.3       9 UNK         0.0343 
     41 CB        -51.4087  -27.8457   16.5647 C.3       9 UNK        -0.2003 
     42 N         -49.5439  -26.2879   16.2549 N.am      9 UNK        -0.4272 
     43 C         -48.4241  -25.6107   16.5481 C.2       9 UNK         0.4988 
     44 O         -48.0278  -25.4043   17.6957 O.2       9 UNK        -0.5108 
     45 CA        -47.6146  -25.0586   15.3605 C.3       8 UNK         0.0248 
     46 CB        -46.7906  -26.1708   14.6921 C.3       8 UNK        -0.2001 
     47 N         -48.4607  -24.3970   14.3639 N.am      8 UNK        -0.4140 
     48 C         -49.1406  -23.2614   14.5827 C.2       8 UNK         0.5028 
     49 O         -49.0725  -22.6064   15.6228 O.2       8 UNK        -0.5428 
     50 CA        -50.0831  -22.7911   13.4648 C.3       7 UNK         0.0264 
     51 CB        -49.3355  -21.9221   12.4407 C.3       7 UNK        -0.1988 
     52 N         -50.7323  -23.9134   12.7858 N.am      7 UNK        -0.4454 
     53 C         -51.6987  -24.6647   13.3331 C.2       7 UNK         0.5027 
     54 O         -52.1464  -24.4758   14.4641 O.2       7 UNK        -0.5083 
     55 CA        -52.2323  -25.8447   12.4957 C.3       6 UNK         0.0844 
     56 C56       -53.3445  -25.3803   11.5203 C.3       14 UNK        -0.0967 
     57 S57       -52.7206  -24.5461   10.0132 S.3       14 UNK        -0.2604 
     58 C58       -53.4661  -25.5419    8.6828 C.3       14 UNK         0.0134 
     59 N         -51.1651  -26.5971   11.8313 N.am      6 UNK        -0.4116 
     60 C         -50.1638  -27.2282   12.4608 C.2       5 UNK         0.5034 
     61 O         -50.0826  -27.3332   13.6826 O.2       5 UNK        -0.5045 
     62 CA        -49.0188  -27.7745   11.5926 C.3       5 UNK         0.0224 
     63 CB        -49.2463  -29.2521   11.2498 C.3       5 UNK        -0.1978 
     64 N         -48.8016  -27.0094   10.3626 N.am      5 UNK        -0.4737 
     65 C         -48.4708  -25.7137   10.3168 C.2       4 UNK         0.5027 
     66 O         -48.2989  -25.0201   11.3211 O.2       4 UNK        -0.5211 
     67 CA        -48.3274  -25.0976    8.9158 C.3       4 UNK         0.0297 
     68 CB        -48.6755  -23.5984    8.9128 C.3       4 UNK        -0.1993 
     69 N         -46.9857  -25.2804    8.3624 N.am      4 UNK        -0.4486 
     70 C         -46.4339  -26.4483    8.0104 C.2       3 UNK         0.4961 
     71 O         -46.9933  -27.5403    8.1165 O.2       3 UNK        -0.5105 
     72 CA        -45.0489  -26.3704    7.3519 C.3       3 UNK         0.0299 
     73 CB        -44.2011  -27.6240    7.6340 C.3       3 UNK        -0.1972 
     74 N         -45.2257  -26.2247    5.9092 N.am      3 UNK        -0.4305 
     75 C         -45.5290  -25.0771    5.2871 C.2       2 UNK         0.5006 
     76 O         -45.5596  -23.9807    5.8481 O.2       2 UNK        -0.5106 
     77 CA        -45.8720  -25.1692    3.7906 C.3       2 UNK         0.0296 
     78 CB        -44.6067  -24.9993    2.9340 C.3       2 UNK        -0.2002 
     79 N         -46.5429  -26.4217    3.4263 N.am      2 UNK        -0.4032 
     80 C         -47.7962  -26.7562    3.7763 C.2       1 UNK         0.5000 
     81 O         -48.5217  -26.0330    4.4607 O.2       1 UNK        -0.5238 
     82 H82       -46.1192  -29.7716    0.3542 H         1 UNK         0.0889 
     83 H83       -45.9642  -28.2556   -0.5359 H         1 UNK         0.0889 
     84 H84       -47.2838  -29.3680   -0.9080 H         1 UNK         0.0889 
     85 H85       -46.9566  -29.4697    2.4078 H         1 UNK         0.3028 
     86 H86       -49.3279  -27.9114    2.8605 H         1 UNK         0.0864 
     87 H87       -48.3760  -30.1605    4.0530 H         1 UNK         0.0720 
     88 H88       -47.7256  -29.0249    5.1920 H         1 UNK         0.0720 
     89 H89       -49.2563  -27.5204    6.7488 H         1 UNK         0.0814 
     90 H90       -49.0856  -29.1599    7.3404 H         1 UNK         0.0814 
     91 H91       -51.2149  -26.2016    7.2993 H         1 UNK         0.1469 
     92 H92       -54.2911  -27.9191    9.7405 H         1 UNK         0.1381 
     93 H93       -51.1251  -30.3865    8.2436 H         1 UNK         0.1206 
     94 H94       -54.4544  -30.3428    9.9134 H         1 UNK         0.0813 
     95 H95       -53.2641  -31.3626    9.1530 H         1 UNK         0.0813 
     96 H96       -53.3274  -28.5790   11.8176 H         1 UNK         0.0638 
     97 H97       -52.5028  -29.2180   13.1965 H         1 UNK         0.0638 
     98 H98       -55.1676  -30.4635   12.4237 H         1 UNK         0.0568 
     99 H99       -54.0610  -32.3153   13.5310 H         1 UNK         0.3450 
    100 H100      -54.0660  -32.3396   15.2766 H         1 UNK         0.3450 
    101 H101      -54.9598  -27.7165   13.4038 H         1 UNK         0.2987 
    102 H102      -57.0567  -26.5239   12.8325 H         1 UNK         0.0766 
    103 H103      -59.3805  -26.2317   13.6350 H         1 UNK         0.0798 
    104 H104      -59.3903  -27.8652   14.3004 H         1 UNK         0.0798 
    105 H105      -59.2802  -27.6175   12.5632 H         1 UNK         0.0798 
    106 H106      -57.7146  -26.7035   15.6551 H         1 UNK         0.3198 
    107 H107      -56.4190  -25.0208   16.9429 H         1 UNK         0.0843 
    108 H108      -56.4585  -27.4641   17.5849 H         1 UNK         0.0831 
    109 H109      -55.3646  -26.5857   18.6359 H         1 UNK         0.0831 
    110 H110      -54.7239  -27.5725   17.3246 H         1 UNK         0.0831 
    111 H111      -53.7348  -25.0653   15.9157 H         1 UNK         0.3133 
    112 H112      -52.5090  -22.8686   16.7878 H         1 UNK         0.0566 
    113 H113      -51.0441  -22.4502   18.7769 H         1 UNK         0.0814 
    114 H114      -52.7020  -21.9448   19.0628 H         1 UNK         0.0814 
    115 H115      -52.1117  -23.4371   19.7750 H         1 UNK         0.0814 
    116 H116      -51.2597  -24.6089   16.3041 H         1 UNK         0.3091 
    117 H117      -49.8908  -27.3614   18.0058 H         1 UNK         0.0702 
    118 H118      -50.8467  -28.6576   16.1026 H         1 UNK         0.0785 
    119 H119      -52.0151  -27.3760   15.7883 H         1 UNK         0.0785 
    120 H120      -52.0945  -28.2951   17.2843 H         1 UNK         0.0785 
    121 H121      -49.7609  -26.4848   15.2796 H         1 UNK         0.2998 
    122 H122      -46.9187  -24.3119   15.7491 H         1 UNK         0.0697 
    123 H123      -47.4216  -26.9840   14.3347 H         1 UNK         0.0825 
    124 H124      -46.0790  -26.6014   15.3977 H         1 UNK         0.0825 
    125 H125      -46.2189  -25.7905   13.8452 H         1 UNK         0.0825 
    126 H126      -48.5371  -24.8323   13.4512 H         1 UNK         0.3029 
    127 H127      -50.8616  -22.1775   13.9242 H         1 UNK         0.0897 
    128 H128      -50.0033  -21.5708   11.6539 H         1 UNK         0.0792 
    129 H129      -48.9079  -21.0407   12.9206 H         1 UNK         0.0792 
    130 H130      -48.5149  -22.4628   11.9689 H         1 UNK         0.0792 
    131 H131      -50.3726  -24.1660   11.8752 H         1 UNK         0.3086 
    132 H132      -52.6864  -26.5366   13.2063 H         1 UNK         0.0583 
    133 H133      -53.9530  -26.2377   11.2407 H         1 UNK         0.1020 
    134 H134      -54.0430  -24.7087   12.0249 H         1 UNK         0.1020 
    135 H135      -54.5384  -25.6434    8.8577 H         1 UNK         0.0694 
    136 H136      -53.3639  -24.9998    7.7415 H         1 UNK         0.0694 
    137 H137      -51.1555  -26.5603   10.8219 H         1 UNK         0.2989 
    138 H138      -48.1036  -27.7029   12.1826 H         1 UNK         0.1055 
    139 H139      -49.3892  -29.8465   12.1535 H         1 UNK         0.0806 
    140 H140      -48.3953  -29.6732   10.7141 H         1 UNK         0.0806 
    141 H141      -50.1317  -29.3857   10.6315 H         1 UNK         0.0806 
    142 H142      -48.8234  -27.5241    9.4914 H         1 UNK         0.3061 
    143 H143      -49.0353  -25.5982    8.2536 H         1 UNK         0.0734 
    144 H144      -49.6718  -23.4279    9.3235 H         1 UNK         0.0832 
    145 H145      -47.9724  -23.0171    9.5106 H         1 UNK         0.0832 
    146 H146      -48.6707  -23.1927    7.9010 H         1 UNK         0.0832 
    147 H147      -46.4539  -24.4381    8.1896 H         1 UNK         0.3156 
    148 H148      -44.5140  -25.5044    7.7483 H         1 UNK         0.0589 
    149 H149      -44.6615  -28.5285    7.2341 H         1 UNK         0.0808 
    150 H150      -43.2059  -27.5347    7.1981 H         1 UNK         0.0808 
    151 H151      -44.0729  -27.7718    8.7071 H         1 UNK         0.0808 
    152 H152      -45.2467  -27.0782    5.3714 H         1 UNK         0.3098 
    153 H153      -46.5515  -24.3458    3.5598 H         1 UNK         0.0720 
    154 H154      -44.8471  -24.9795    1.8707 H         1 UNK         0.0791 
    155 H155      -43.8908  -25.8048    3.1026 H         1 UNK         0.0791 
    156 H156      -44.1017  -24.0607    3.1673 H         1 UNK         0.0791 
    157 H157      -46.0254  -27.0657    2.8463 H         1 UNK         0.3028 
@<TRIPOS>BOND
     1    1    2 1    
     2    1   82 1    
     3    1   83 1    
     4    1   84 1    
     5    2    3 2    
     6    2    4 am   BACKBONE|DICT|INTERRES
     7    4    5 1    
     8    4   85 1    
     9    5    6 1    
    10    5   80 1    
    11    5   86 1    
    12    6    7 1    
    13    6   87 1    
    14    6   88 1    
    15    7    8 1    
    16    8    9 1    
    17    8   89 1    
    18    8   90 1    
    19    9   10 ar   
    20    9   14 ar   
    21   10   11 ar   
    22   10   91 1    
    23   11   12 ar   
    24   11   58 1    
    25   12   13 ar   
    26   12   92 1    
    27   13   14 ar   
    28   13   15 1    
    29   14   93 1    
    30   15   16 1    
    31   15   94 1    
    32   15   95 1    
    33   16   17 1    
    34   17   18 1    
    35   17   96 1    
    36   17   97 1    
    37   18   19 1    
    38   18   22 1    
    39   18   98 1    
    40   19   20 am   BACKBONE|DICT|INTERRES
    41   19   21 2    
    42   20   99 1    
    43   20  100 1    
    44   22   23 am   BACKBONE|DICT|INTERRES
    45   22  101 1    
    46   23   24 2    
    47   23   25 1    
    48   25   26 1    
    49   25   27 1    
    50   25  102 1    
    51   26  103 1    
    52   26  104 1    
    53   26  105 1    
    54   27   28 am   BACKBONE|DICT|INTERRES
    55   27  106 1    
    56   28   29 2    
    57   28   30 1    
    58   30   31 1    
    59   30   32 1    
    60   30  107 1    
    61   31  108 1    
    62   31  109 1    
    63   31  110 1    
    64   32   33 am   BACKBONE|DICT|INTERRES
    65   32  111 1    
    66   33   34 2    
    67   33   35 1    
    68   35   36 1    
    69   35   37 1    
    70   35  112 1    
    71   36  113 1    
    72   36  114 1    
    73   36  115 1    
    74   37   38 am   BACKBONE|DICT|INTERRES
    75   37  116 1    
    76   38   39 2    
    77   38   40 1    
    78   40   41 1    
    79   40   42 1    
    80   40  117 1    
    81   41  118 1    
    82   41  119 1    
    83   41  120 1    
    84   42   43 am   BACKBONE|DICT|INTERRES
    85   42  121 1    
    86   43   44 2    
    87   43   45 1    
    88   45   46 1    
    89   45   47 1    
    90   45  122 1    
    91   46  123 1    
    92   46  124 1    
    93   46  125 1    
    94   47   48 am   BACKBONE|DICT|INTERRES
    95   47  126 1    
    96   48   49 2    
    97   48   50 1    
    98   50   51 1    
    99   50   52 1    
   100   50  127 1    
   101   51  128 1    
   102   51  129 1    
   103   51  130 1    
   104   52   53 am   BACKBONE|DICT|INTERRES
   105   52  131 1    
   106   53   54 2    
   107   53   55 1    
   108   55   56 1    
   109   55   59 1    
   110   55  132 1    
   111   56   57 1    
   112   56  133 1    
   113   56  134 1    
   114   57   58 1    
   115   58  135 1    
   116   58  136 1    
   117   59   60 am   BACKBONE|DICT|INTERRES
   118   59  137 1    
   119   60   61 2    
   120   60   62 1    
   121   62   63 1    
   122   62   64 1    
   123   62  138 1    
   124   63  139 1    
   125   63  140 1    
   126   63  141 1    
   127   64   65 am   BACKBONE|DICT|INTERRES
   128   64  142 1    
   129   65   66 2    
   130   65   67 1    
   131   67   68 1    
   132   67   69 1    
   133   67  143 1    
   134   68  144 1    
   135   68  145 1    
   136   68  146 1    
   137   69   70 am   BACKBONE|DICT|INTERRES
   138   69  147 1    
   139   70   71 2    
   140   70   72 1    
   141   72   73 1    
   142   72   74 1    
   143   72  148 1    
   144   73  149 1    
   145   73  150 1    
   146   73  151 1    
   147   74   75 am   BACKBONE|DICT|INTERRES
   148   74  152 1    
   149   75   76 2    
   150   75   77 1    
   151   77   78 1    
   152   77   79 1    
   153   77  153 1    
   154   78  154 1    
   155   78  155 1    
   156   78  156 1    
   157   79   80 am   BACKBONE|DICT|INTERRES
   158   79  157 1    
   159   80   81 2    
@<TRIPOS>SUBSTRUCTURE
     1 UNK         1 GROUP             0       ****    0 ROOT    
