@<TRIPOS>MOLECULE
3R207
157   159    1
SMALL
USER_CHARGES


@<TRIPOS>ATOM
      1 CA        -44.6162  -27.8618    6.5929 C.3       0 UNK        -0.1975 
      2 C         -45.4735  -28.7356    5.6892 C.2       0 UNK         0.4852 
      3 O         -44.9363  -29.5266    4.9131 O.2       0 UNK        -0.5216 
      4 N         -46.8001  -28.5886    5.7820 N.am      1 UNK        -0.4461 
      5 CA        -47.7907  -29.3243    4.9846 C.3       1 UNK         0.0864 
      6 C6        -49.0343  -29.6993    5.8329 C.3       14 UNK        -0.0898 
      7 S7        -48.6578  -31.0522    6.9961 S.3       14 UNK        -0.2598 
      8 C8        -50.3187  -31.4960    7.5924 C.3       14 UNK         0.0286 
      9 C9        -50.7156  -30.7092    8.8342 C.ar      14 UNK        -0.0844 
     10 C10       -50.3735  -31.1889   10.1025 C.ar      14 UNK        -0.0881 
     11 C11       -50.7882  -30.5160   11.2560 C.ar      14 UNK        -0.0643 
     12 C12       -51.5531  -29.3510   11.1330 C.ar      14 UNK        -0.0930 
     13 C13       -51.8846  -28.8489    9.8702 C.ar      14 UNK        -0.0827 
     14 C14       -51.4584  -29.5297    8.7241 C.ar      14 UNK        -0.1249 
     15 C15       -52.7524  -27.6052    9.7418 C.3       14 UNK         0.0141 
     16 S16       -51.8785  -26.0993   10.2709 S.3       14 UNK        -0.2313 
     17 C17       -53.0318  -24.8086    9.6768 C.3       14 UNK        -0.0915 
     18 CA        -53.7169  -24.0179   10.8221 C.3       13 UNK         0.0968 
     19 C         -54.5773  -22.8463   10.2659 C.2       13 UNK         0.5732 
     20 N         -55.8863  -22.8150   10.4869 N.am      13 UNK        -0.7310 
     21 O         -54.0430  -21.9398    9.6320 O.2       13 UNK        -0.5035 
     22 N         -54.4326  -24.9167   11.7421 N.am      13 UNK        -0.4233 
     23 C         -54.6667  -24.6652   13.0348 C.2       13 UNK         0.4989 
     24 O         -54.3281  -23.6222   13.5986 O.2       13 UNK        -0.4996 
     25 CA        -55.3876  -25.7665   13.8302 C.3       12 UNK         0.0216 
     26 CB        -55.1160  -27.1879   13.2900 C.3       12 UNK        -0.1964 
     27 N         -54.9619  -25.7165   15.2263 N.am      12 UNK        -0.4276 
     28 C         -55.7680  -25.6977   16.2943 C.2       12 UNK         0.5020 
     29 O         -56.9983  -25.6474   16.2265 O.2       12 UNK        -0.5489 
     30 CA        -55.0700  -25.7826   17.6694 C.3       11 UNK         0.0294 
     31 CB        -56.0410  -26.1014   18.8258 C.3       11 UNK        -0.2019 
     32 N         -53.9393  -26.7210   17.6604 N.am      11 UNK        -0.4493 
     33 C         -53.9648  -28.0265   17.3413 C.2       11 UNK         0.4932 
     34 O         -54.9999  -28.6685   17.1612 O.2       11 UNK        -0.5029 
     35 CA        -52.6123  -28.7376   17.1489 C.3       10 UNK         0.0280 
     36 CB        -52.5137  -29.3283   15.7319 C.3       10 UNK        -0.1976 
     37 N         -51.4784  -27.8321   17.3557 N.am      10 UNK        -0.4242 
     38 C         -50.6480  -27.8687   18.4079 C.2       10 UNK         0.5072 
     39 O         -50.6932  -28.7277   19.2894 O.2       10 UNK        -0.5224 
     40 CA        -49.5939  -26.7496   18.5155 C.3       9 UNK         0.0343 
     41 CB        -48.2315  -27.2411   18.0011 C.3       9 UNK        -0.2003 
     42 N         -49.9738  -25.5160   17.8170 N.am      9 UNK        -0.4272 
     43 C         -50.9901  -24.7232   18.1947 C.2       9 UNK         0.4988 
     44 O         -51.6896  -24.9424   19.1831 O.2       9 UNK        -0.5108 
     45 CA        -51.3354  -23.5134   17.3075 C.3       8 UNK         0.0248 
     46 CB        -50.6857  -22.2380   17.8671 C.3       8 UNK        -0.2001 
     47 N         -50.9708  -23.6622   15.8968 N.am      8 UNK        -0.4140 
     48 C         -51.3837  -24.6378   15.0772 C.2       8 UNK         0.5028 
     49 O         -52.1164  -25.5670   15.4299 O.2       8 UNK        -0.5428 
     50 CA        -50.8612  -24.6071   13.6287 C.3       7 UNK         0.0264 
     51 CB        -50.0343  -23.3543   13.2635 C.3       7 UNK        -0.1988 
     52 N         -50.1138  -25.8206   13.2960 N.am      7 UNK        -0.4454 
     53 C         -49.0766  -26.3399   13.9715 C.2       7 UNK         0.5027 
     54 O         -48.5860  -25.8389   14.9850 O.2       7 UNK        -0.5083 
     55 CA        -48.5087  -27.6615   13.4210 C.3       6 UNK         0.0844 
     56 C56       -49.3506  -28.8456   13.9574 C.3       14 UNK        -0.0967 
     57 S57       -48.8654  -30.4671   13.2744 S.3       14 UNK        -0.2604 
     58 C58       -50.4523  -31.0882   12.6270 C.3       14 UNK         0.0134 
     59 N         -48.4000  -27.6605   11.9577 N.am      6 UNK        -0.4116 
     60 C         -47.6071  -26.8526   11.2390 C.2       5 UNK         0.5034 
     61 O         -46.9239  -25.9461   11.7146 O.2       5 UNK        -0.5045 
     62 CA        -47.5744  -27.0943    9.7278 C.3       5 UNK         0.0224 
     63 CB        -47.6975  -28.5816    9.3575 C.3       5 UNK        -0.1978 
     64 N         -48.6356  -26.3038    9.1130 N.am      5 UNK        -0.4737 
     65 C         -48.6454  -25.8472    7.8580 C.2       4 UNK         0.5027 
     66 O         -47.8229  -26.1701    6.9941 O.2       4 UNK        -0.5211 
     67 CA        -49.7525  -24.8340    7.5322 C.3       4 UNK         0.0297 
     68 CB        -49.6566  -23.5894    8.4435 C.3       4 UNK        -0.1993 
     69 N         -49.6521  -24.4323    6.1334 N.am      4 UNK        -0.4486 
     70 C         -50.6121  -23.8292    5.4199 C.2       3 UNK         0.4961 
     71 O         -51.7262  -23.5540    5.8665 O.2       3 UNK        -0.5105 
     72 CA        -50.2799  -23.4538    3.9628 C.3       3 UNK         0.0299 
     73 CB        -49.8640  -21.9763    3.8730 C.3       3 UNK        -0.1972 
     74 N         -49.2259  -24.2867    3.3779 N.am      3 UNK        -0.4305 
     75 C         -49.3837  -25.5703    3.0289 C.2       2 UNK         0.5006 
     76 O         -50.4611  -26.1640    3.0929 O.2       2 UNK        -0.5106 
     77 CA        -48.1314  -26.3316    2.5630 C.3       2 UNK         0.0296 
     78 CB        -46.9210  -25.4292    2.2418 C.3       2 UNK        -0.2002 
     79 N         -47.7549  -27.2745    3.6124 N.am      2 UNK        -0.4032 
     80 C         -48.1934  -28.5370    3.7192 C.2       1 UNK         0.5000 
     81 O         -48.8830  -29.0940    2.8621 O.2       1 UNK        -0.5238 
     82 H82       -45.2186  -27.1709    7.1825 H         1 UNK         0.0889 
     83 H83       -43.9171  -27.2762    5.9965 H         1 UNK         0.0889 
     84 H84       -44.0427  -28.4832    7.2800 H         1 UNK         0.0889 
     85 H85       -47.1789  -27.8762    6.4026 H         1 UNK         0.3028 
     86 H86       -47.3444  -30.2523    4.6198 H         1 UNK         0.0864 
     87 H87       -49.8536  -30.0365    5.1948 H         1 UNK         0.0720 
     88 H88       -49.4086  -28.8365    6.3874 H         1 UNK         0.0720 
     89 H89       -50.3285  -32.5627    7.8214 H         1 UNK         0.0814 
     90 H90       -51.0552  -31.3574    6.7997 H         1 UNK         0.0814 
     91 H91       -49.7968  -32.0995   10.1920 H         1 UNK         0.1469 
     92 H92       -51.9089  -28.8401   12.0163 H         1 UNK         0.1381 
     93 H93       -51.7256  -29.1576    7.7445 H         1 UNK         0.1206 
     94 H94       -53.0808  -27.4845    8.7083 H         1 UNK         0.0813 
     95 H95       -53.6556  -27.7301   10.3400 H         1 UNK         0.0813 
     96 H96       -53.7847  -25.2555    9.0256 H         1 UNK         0.0638 
     97 H97       -52.4601  -24.1301    9.0422 H         1 UNK         0.0638 
     98 H98       -52.9216  -23.5293   11.3863 H         1 UNK         0.0568 
     99 H99       -56.3367  -23.5478   11.0099 H         1 UNK         0.3450 
    100 H100      -56.4281  -22.0461   10.1252 H         1 UNK         0.3450 
    101 H101      -54.7546  -25.7869   11.3482 H         1 UNK         0.2987 
    102 H102      -56.4569  -25.5605   13.7540 H         1 UNK         0.0766 
    103 H103      -55.5480  -27.9448   13.9456 H         1 UNK         0.0798 
    104 H104      -54.0472  -27.3935   13.2129 H         1 UNK         0.0798 
    105 H105      -55.5596  -27.3375   12.3053 H         1 UNK         0.0798 
    106 H106      -53.9530  -25.6893   15.3731 H         1 UNK         0.3198 
    107 H107      -54.6472  -24.7943   17.8564 H         1 UNK         0.0843 
    108 H108      -55.5194  -26.1404   19.7820 H         1 UNK         0.0831 
    109 H109      -56.5468  -27.0562   18.6794 H         1 UNK         0.0831 
    110 H110      -56.8129  -25.3354   18.9094 H         1 UNK         0.0831 
    111 H111      -53.0347  -26.3026   17.8284 H         1 UNK         0.3133 
    112 H112      -52.5831  -29.5629   17.8628 H         1 UNK         0.0566 
    113 H113      -51.5930  -29.8979   15.6103 H         1 UNK         0.0814 
    114 H114      -53.3395  -30.0116   15.5292 H         1 UNK         0.0814 
    115 H115      -52.5409  -28.5492   14.9693 H         1 UNK         0.0814 
    116 H116      -51.3880  -27.0753   16.6850 H         1 UNK         0.3091 
    117 H117      -49.4846  -26.5077   19.5749 H         1 UNK         0.0702 
    118 H118      -47.4709  -26.4641   18.0796 H         1 UNK         0.0785 
    119 H119      -48.2812  -27.5596   16.9602 H         1 UNK         0.0785 
    120 H120      -47.8829  -28.0954   18.5830 H         1 UNK         0.0785 
    121 H121      -49.4645  -25.2974   16.9679 H         1 UNK         0.2998 
    122 H122      -52.4194  -23.3875   17.3449 H         1 UNK         0.0697 
    123 H123      -51.0065  -21.3530   17.3171 H         1 UNK         0.0825 
    124 H124      -50.9626  -22.0841   18.9113 H         1 UNK         0.0825 
    125 H125      -49.5968  -22.2864   17.8230 H         1 UNK         0.0825 
    126 H126      -50.3461  -22.9648   15.5187 H         1 UNK         0.3029 
    127 H127      -51.7463  -24.6157   12.9978 H         1 UNK         0.0897 
    128 H128      -49.7623  -23.3664   12.2078 H         1 UNK         0.0792 
    129 H129      -50.6036  -22.4388   13.4308 H         1 UNK         0.0792 
    130 H130      -49.1082  -23.2887   13.8361 H         1 UNK         0.0792 
    131 H131      -50.4527  -26.3265   12.4900 H         1 UNK         0.3086 
    132 H132      -47.4950  -27.7671   13.8133 H         1 UNK         0.0583 
    133 H133      -49.2598  -28.9059   15.0437 H         1 UNK         0.1020 
    134 H134      -50.4090  -28.6782   13.7609 H         1 UNK         0.1020 
    135 H135      -50.3926  -32.1757   12.5620 H         1 UNK         0.0694 
    136 H136      -51.2552  -30.8800   13.3352 H         1 UNK         0.0694 
    137 H137      -48.9026  -28.3940   11.4777 H         1 UNK         0.2989 
    138 H138      -46.6081  -26.7302    9.3710 H         1 UNK         0.1055 
    139 H139      -47.0078  -29.1984    9.9355 H         1 UNK         0.0806 
    140 H140      -47.4601  -28.7413    8.3110 H         1 UNK         0.0806 
    141 H141      -48.7039  -28.9585    9.5253 H         1 UNK         0.0806 
    142 H142      -49.3657  -25.9916    9.7398 H         1 UNK         0.3061 
    143 H143      -50.7123  -25.3321    7.6776 H         1 UNK         0.0734 
    144 H144      -50.4328  -22.8602    8.2122 H         1 UNK         0.0832 
    145 H145      -49.7765  -23.8483    9.4957 H         1 UNK         0.0832 
    146 H146      -48.6923  -23.0909    8.3381 H         1 UNK         0.0832 
    147 H147      -48.7755  -24.6814    5.6939 H         1 UNK         0.3156 
    148 H148      -51.1894  -23.5865    3.3727 H         1 UNK         0.0589 
    149 H149      -48.9529  -21.7766    4.4385 H         1 UNK         0.0808 
    150 H150      -49.6934  -21.6730    2.8398 H         1 UNK         0.0808 
    151 H151      -50.6440  -21.3274    4.2741 H         1 UNK         0.0808 
    152 H152      -48.3123  -23.8673    3.2797 H         1 UNK         0.3098 
    153 H153      -48.3988  -26.8711    1.6518 H         1 UNK         0.0720 
    154 H154      -46.5503  -24.8981    3.1195 H         1 UNK         0.0791 
    155 H155      -47.1701  -24.6899    1.4789 H         1 UNK         0.0791 
    156 H156      -46.0937  -26.0205    1.8484 H         1 UNK         0.0791 
    157 H157      -47.2082  -26.9075    4.3780 H         1 UNK         0.3028 
@<TRIPOS>BOND
     1    1    2 1    
     2    1   82 1    
     3    1   83 1    
     4    1   84 1    
     5    2    3 2    
     6    2    4 am   BACKBONE|DICT|INTERRES
     7    4    5 1    
     8    4   85 1    
     9    5    6 1    
    10    5   80 1    
    11    5   86 1    
    12    6    7 1    
    13    6   87 1    
    14    6   88 1    
    15    7    8 1    
    16    8    9 1    
    17    8   89 1    
    18    8   90 1    
    19    9   10 ar   
    20    9   14 ar   
    21   10   11 ar   
    22   10   91 1    
    23   11   12 ar   
    24   11   58 1    
    25   12   13 ar   
    26   12   92 1    
    27   13   14 ar   
    28   13   15 1    
    29   14   93 1    
    30   15   16 1    
    31   15   94 1    
    32   15   95 1    
    33   16   17 1    
    34   17   18 1    
    35   17   96 1    
    36   17   97 1    
    37   18   19 1    
    38   18   22 1    
    39   18   98 1    
    40   19   20 am   BACKBONE|DICT|INTERRES
    41   19   21 2    
    42   20   99 1    
    43   20  100 1    
    44   22   23 am   BACKBONE|DICT|INTERRES
    45   22  101 1    
    46   23   24 2    
    47   23   25 1    
    48   25   26 1    
    49   25   27 1    
    50   25  102 1    
    51   26  103 1    
    52   26  104 1    
    53   26  105 1    
    54   27   28 am   BACKBONE|DICT|INTERRES
    55   27  106 1    
    56   28   29 2    
    57   28   30 1    
    58   30   31 1    
    59   30   32 1    
    60   30  107 1    
    61   31  108 1    
    62   31  109 1    
    63   31  110 1    
    64   32   33 am   BACKBONE|DICT|INTERRES
    65   32  111 1    
    66   33   34 2    
    67   33   35 1    
    68   35   36 1    
    69   35   37 1    
    70   35  112 1    
    71   36  113 1    
    72   36  114 1    
    73   36  115 1    
    74   37   38 am   BACKBONE|DICT|INTERRES
    75   37  116 1    
    76   38   39 2    
    77   38   40 1    
    78   40   41 1    
    79   40   42 1    
    80   40  117 1    
    81   41  118 1    
    82   41  119 1    
    83   41  120 1    
    84   42   43 am   BACKBONE|DICT|INTERRES
    85   42  121 1    
    86   43   44 2    
    87   43   45 1    
    88   45   46 1    
    89   45   47 1    
    90   45  122 1    
    91   46  123 1    
    92   46  124 1    
    93   46  125 1    
    94   47   48 am   BACKBONE|DICT|INTERRES
    95   47  126 1    
    96   48   49 2    
    97   48   50 1    
    98   50   51 1    
    99   50   52 1    
   100   50  127 1    
   101   51  128 1    
   102   51  129 1    
   103   51  130 1    
   104   52   53 am   BACKBONE|DICT|INTERRES
   105   52  131 1    
   106   53   54 2    
   107   53   55 1    
   108   55   56 1    
   109   55   59 1    
   110   55  132 1    
   111   56   57 1    
   112   56  133 1    
   113   56  134 1    
   114   57   58 1    
   115   58  135 1    
   116   58  136 1    
   117   59   60 am   BACKBONE|DICT|INTERRES
   118   59  137 1    
   119   60   61 2    
   120   60   62 1    
   121   62   63 1    
   122   62   64 1    
   123   62  138 1    
   124   63  139 1    
   125   63  140 1    
   126   63  141 1    
   127   64   65 am   BACKBONE|DICT|INTERRES
   128   64  142 1    
   129   65   66 2    
   130   65   67 1    
   131   67   68 1    
   132   67   69 1    
   133   67  143 1    
   134   68  144 1    
   135   68  145 1    
   136   68  146 1    
   137   69   70 am   BACKBONE|DICT|INTERRES
   138   69  147 1    
   139   70   71 2    
   140   70   72 1    
   141   72   73 1    
   142   72   74 1    
   143   72  148 1    
   144   73  149 1    
   145   73  150 1    
   146   73  151 1    
   147   74   75 am   BACKBONE|DICT|INTERRES
   148   74  152 1    
   149   75   76 2    
   150   75   77 1    
   151   77   78 1    
   152   77   79 1    
   153   77  153 1    
   154   78  154 1    
   155   78  155 1    
   156   78  156 1    
   157   79   80 am   BACKBONE|DICT|INTERRES
   158   79  157 1    
   159   80   81 2    
@<TRIPOS>SUBSTRUCTURE
     1 UNK         1 GROUP             0       ****    0 ROOT    
