@<TRIPOS>MOLECULE
3R207
157   159    1
SMALL
USER_CHARGES


@<TRIPOS>ATOM
      1 CA        -54.0462  -29.5217    4.6889 C.3       0 UNK        -0.1975 
      2 C         -52.8346  -28.6272    4.9065 C.2       0 UNK         0.4852 
      3 O         -52.9922  -27.4164    5.0701 O.2       0 UNK        -0.5216 
      4 N         -51.6318  -29.2166    4.9156 N.am      1 UNK        -0.4461 
      5 CA        -50.3598  -28.5099    5.0878 C.3       1 UNK         0.0864 
      6 C6        -49.2384  -29.4804    5.5502 C.3       14 UNK        -0.0898 
      7 S7        -47.8631  -28.6222    6.3970 S.3       14 UNK        -0.2598 
      8 C8        -48.2905  -28.8481    8.1540 C.3       14 UNK         0.0286 
      9 C9        -49.6660  -28.2882    8.4878 C.ar      14 UNK        -0.0844 
     10 C10       -49.8943  -26.9096    8.4435 C.ar      14 UNK        -0.0881 
     11 C11       -51.1524  -26.3876    8.7588 C.ar      14 UNK        -0.0643 
     12 C12       -52.1936  -27.2591    9.0843 C.ar      14 UNK        -0.0930 
     13 C13       -51.9767  -28.6383    9.1460 C.ar      14 UNK        -0.0827 
     14 C14       -50.7099  -29.1471    8.8459 C.ar      14 UNK        -0.1249 
     15 C15       -53.1088  -29.5799    9.5332 C.3       14 UNK         0.0141 
     16 S16       -53.1290  -29.9116   11.3255 S.3       14 UNK        -0.2313 
     17 C17       -53.8471  -28.3659   11.9926 C.3       14 UNK        -0.0915 
     18 CA        -55.2276  -28.4709   12.7099 C.3       13 UNK         0.0968 
     19 C         -56.2968  -29.3529   11.9953 C.2       13 UNK         0.5732 
     20 N         -57.0841  -30.1538   12.7024 N.am      13 UNK        -0.7310 
     21 O         -56.4585  -29.2636   10.7805 O.2       13 UNK        -0.5035 
     22 N         -55.1012  -28.6198   14.1679 N.am      13 UNK        -0.4233 
     23 C         -54.7038  -29.6907   14.8695 C.2       13 UNK         0.4989 
     24 O         -54.4434  -30.7845   14.3701 O.2       13 UNK        -0.4996 
     25 CA        -54.5947  -29.5111   16.3975 C.3       12 UNK         0.0216 
     26 CB        -53.4297  -30.3151   17.0031 C.3       12 UNK        -0.1964 
     27 N         -54.4337  -28.0973   16.7482 N.am      12 UNK        -0.4276 
     28 C         -55.3768  -27.3306   17.3136 C.2       12 UNK         0.5020 
     29 O         -56.4619  -27.7594   17.7077 O.2       12 UNK        -0.5489 
     30 CA        -55.0881  -25.8223   17.4285 C.3       11 UNK         0.0294 
     31 CB        -54.6245  -25.4696   18.8498 C.3       11 UNK        -0.2019 
     32 N         -54.1153  -25.3390   16.4392 N.am      11 UNK        -0.4493 
     33 C         -54.3726  -25.2586   15.1230 C.2       11 UNK         0.4932 
     34 O         -55.4626  -25.5682   14.6401 O.2       11 UNK        -0.5029 
     35 CA        -53.2444  -24.8378   14.1620 C.3       10 UNK         0.0280 
     36 CB        -53.6991  -23.7456   13.1710 C.3       10 UNK        -0.1976 
     37 N         -51.9773  -24.5040   14.8192 N.am      10 UNK        -0.4242 
     38 C         -51.6472  -23.4028   15.5090 C.2       10 UNK         0.5072 
     39 O         -52.3851  -22.4287   15.6618 O.2       10 UNK        -0.5224 
     40 CA        -50.2474  -23.4308   16.1587 C.3       9 UNK         0.0343 
     41 CB        -50.0442  -22.3238   17.2155 C.3       9 UNK        -0.2003 
     42 N         -49.9148  -24.7554   16.7048 N.am      9 UNK        -0.4272 
     43 C         -50.5876  -25.4168   17.6607 C.2       9 UNK         0.4988 
     44 O         -51.5509  -24.9439   18.2620 O.2       9 UNK        -0.5108 
     45 CA        -50.1432  -26.8671   17.9428 C.3       8 UNK         0.0248 
     46 CB        -51.1509  -27.6476   18.8139 C.3       8 UNK        -0.2001 
     47 N         -49.8354  -27.6162   16.7176 N.am      8 UNK        -0.4140 
     48 C         -50.6494  -27.8259   15.6724 C.2       8 UNK         0.5028 
     49 O         -51.8230  -27.4491   15.6121 O.2       8 UNK        -0.5428 
     50 CA        -50.0242  -28.5505   14.4698 C.3       7 UNK         0.0264 
     51 CB        -50.7583  -29.8687   14.1840 C.3       7 UNK        -0.1988 
     52 N         -50.0026  -27.7291   13.2545 N.am      7 UNK        -0.4454 
     53 C         -49.4238  -26.5243   13.1406 C.2       7 UNK         0.5027 
     54 O         -48.9501  -25.8920   14.0889 O.2       7 UNK        -0.5083 
     55 CA        -49.3501  -25.9230   11.7261 C.3       6 UNK         0.0844 
     56 C56       -50.4664  -24.8724   11.4855 C.3       14 UNK        -0.0967 
     57 S57       -50.2814  -23.9847    9.8940 S.3       14 UNK        -0.2604 
     58 C58       -51.3950  -24.8843    8.7641 C.3       14 UNK         0.0134 
     59 N         -48.0140  -25.3792   11.4789 N.am      6 UNK        -0.4116 
     60 C         -46.9009  -26.0961   11.2935 C.2       5 UNK         0.5034 
     61 O         -46.8722  -27.3282   11.3105 O.2       5 UNK        -0.5045 
     62 CA        -45.6109  -25.2960   11.0141 C.3       5 UNK         0.0224 
     63 CB        -44.3866  -26.2055   10.7955 C.3       5 UNK        -0.1978 
     64 N         -45.7440  -24.4068    9.8550 N.am      5 UNK        -0.4737 
     65 C         -46.3935  -23.2348    9.8321 C.2       4 UNK         0.5027 
     66 O         -46.9513  -22.7591   10.8218 O.2       4 UNK        -0.5211 
     67 CA        -46.4255  -22.4541    8.5026 C.3       4 UNK         0.0297 
     68 CB        -45.6552  -21.1297    8.6379 C.3       4 UNK        -0.1993 
     69 N         -45.8857  -23.2015    7.3602 N.am      4 UNK        -0.4486 
     70 C         -46.5405  -24.1654    6.7014 C.2       3 UNK         0.4961 
     71 O         -47.6816  -24.5360    6.9810 O.2       3 UNK        -0.5105 
     72 CA        -45.7581  -24.8624    5.5749 C.3       3 UNK         0.0299 
     73 CB        -44.7751  -25.8879    6.1664 C.3       3 UNK        -0.1972 
     74 N         -46.6528  -25.5551    4.6477 N.am      3 UNK        -0.4305 
     75 C         -47.4510  -24.9570    3.7501 C.2       2 UNK         0.5006 
     76 O         -47.4405  -23.7492    3.5100 O.2       2 UNK        -0.5106 
     77 CA        -48.4494  -25.8666    3.0231 C.3       2 UNK         0.0296 
     78 CB        -47.7259  -26.6555    1.9100 C.3       2 UNK        -0.2002 
     79 N         -49.0761  -26.7429    4.0144 N.am      2 UNK        -0.4032 
     80 C         -49.9589  -27.7277    3.8172 C.2       1 UNK         0.5000 
     81 O         -50.4203  -28.0426    2.7161 O.2       1 UNK        -0.5238 
     82 H82       -53.7648  -30.5670    4.5626 H         1 UNK         0.0889 
     83 H83       -54.5897  -29.2068    3.7985 H         1 UNK         0.0889 
     84 H84       -54.7200  -29.4531    5.5425 H         1 UNK         0.0889 
     85 H85       -51.5629  -30.2077    4.7358 H         1 UNK         0.3028 
     86 H86       -50.5254  -27.7742    5.8766 H         1 UNK         0.0864 
     87 H87       -49.6420  -30.2249    6.2383 H         1 UNK         0.0720 
     88 H88       -48.8374  -30.0482    4.7083 H         1 UNK         0.0720 
     89 H89       -47.5411  -28.3463    8.7679 H         1 UNK         0.0814 
     90 H90       -48.2301  -29.9085    8.4035 H         1 UNK         0.0814 
     91 H91       -49.0859  -26.2396    8.1875 H         1 UNK         0.1469 
     92 H92       -53.1734  -26.8576    9.2979 H         1 UNK         0.1381 
     93 H93       -50.5394  -30.2141    8.8894 H         1 UNK         0.1206 
     94 H94       -52.9945  -30.5268    9.0038 H         1 UNK         0.0813 
     95 H95       -54.0725  -29.1748    9.2202 H         1 UNK         0.0813 
     96 H96       -53.1075  -27.9194   12.6582 H         1 UNK         0.0638 
     97 H97       -53.9553  -27.6544   11.1777 H         1 UNK         0.0638 
     98 H98       -55.6639  -27.4748   12.6273 H         1 UNK         0.0568 
     99 H99       -57.7847  -30.7010   12.2282 H         1 UNK         0.3450 
    100 H100      -56.9523  -30.2490   13.6959 H         1 UNK         0.3450 
    101 H101      -55.3308  -27.7816   14.6857 H         1 UNK         0.2987 
    102 H102      -55.5214  -29.9049   16.8192 H         1 UNK         0.0766 
    103 H103      -52.4686  -29.9954   16.6045 H         1 UNK         0.0798 
    104 H104      -53.5332  -31.3808   16.7950 H         1 UNK         0.0798 
    105 H105      -53.3942  -30.2010   18.0866 H         1 UNK         0.0798 
    106 H106      -53.5689  -27.6642   16.4254 H         1 UNK         0.3198 
    107 H107      -56.0289  -25.2974   17.2473 H         1 UNK         0.0843 
    108 H108      -54.3841  -24.4103   18.9422 H         1 UNK         0.0831 
    109 H109      -53.7450  -26.0420   19.1433 H         1 UNK         0.0831 
    110 H110      -55.4070  -25.6900   19.5770 H         1 UNK         0.0831 
    111 H111      -53.1933  -25.0977   16.7840 H         1 UNK         0.3133 
    112 H112      -53.0228  -25.7280   13.5734 H         1 UNK         0.0566 
    113 H113      -52.8939  -23.4450   12.5017 H         1 UNK         0.0814 
    114 H114      -54.5190  -24.1046   12.5476 H         1 UNK         0.0814 
    115 H115      -54.0571  -22.8538   13.6859 H         1 UNK         0.0814 
    116 H116      -51.3108  -25.2654   14.8443 H         1 UNK         0.3091 
    117 H117      -49.5370  -23.2483   15.3507 H         1 UNK         0.0702 
    118 H118      -49.0444  -22.3665   17.6471 H         1 UNK         0.0785 
    119 H119      -50.7653  -22.4010   18.0299 H         1 UNK         0.0785 
    120 H120      -50.1629  -21.3348   16.7713 H         1 UNK         0.0785 
    121 H121      -49.1812  -25.2500   16.2096 H         1 UNK         0.2998 
    122 H122      -49.2109  -26.7925   18.5043 H         1 UNK         0.0697 
    123 H123      -50.7927  -28.6540   19.0296 H         1 UNK         0.0825 
    124 H124      -51.3107  -27.1495   19.7709 H         1 UNK         0.0825 
    125 H125      -52.1217  -27.7372   18.3284 H         1 UNK         0.0825 
    126 H126      -48.8844  -27.9520   16.6489 H         1 UNK         0.3029 
    127 H127      -48.9856  -28.7930   14.7045 H         1 UNK         0.0897 
    128 H128      -50.3327  -30.3889   13.3257 H         1 UNK         0.0792 
    129 H129      -50.6911  -30.5458   15.0361 H         1 UNK         0.0792 
    130 H130      -51.8166  -29.7032   13.9842 H         1 UNK         0.0792 
    131 H131      -50.3877  -28.1589   12.4252 H         1 UNK         0.3086 
    132 H132      -49.4966  -26.7434   11.0257 H         1 UNK         0.0583 
    133 H133      -51.4503  -25.3432   11.5244 H         1 UNK         0.1020 
    134 H134      -50.4556  -24.1208   12.2772 H         1 UNK         0.1020 
    135 H135      -52.4257  -24.6563    9.0397 H         1 UNK         0.0694 
    136 H136      -51.2536  -24.5007    7.7529 H         1 UNK         0.0694 
    137 H137      -47.9405  -24.3689   11.4178 H         1 UNK         0.2989 
    138 H138      -45.4186  -24.6869   11.9005 H         1 UNK         0.1055 
    139 H139      -44.5101  -26.8465    9.9215 H         1 UNK         0.0806 
    140 H140      -44.2234  -26.8555   11.6563 H         1 UNK         0.0806 
    141 H141      -43.4766  -25.6211   10.6581 H         1 UNK         0.0806 
    142 H142      -45.3431  -24.7337    8.9890 H         1 UNK         0.3061 
    143 H143      -47.4726  -22.2187    8.2981 H         1 UNK         0.0734 
    144 H144      -45.7265  -20.5331    7.7283 H         1 UNK         0.0832 
    145 H145      -46.0588  -20.5238    9.4506 H         1 UNK         0.0832 
    146 H146      -44.5985  -21.2961    8.8511 H         1 UNK         0.0832 
    147 H147      -44.9464  -22.9660    7.0708 H         1 UNK         0.3156 
    148 H148      -45.1956  -24.1096    5.0184 H         1 UNK         0.0589 
    149 H149      -45.2899  -26.6482    6.7561 H         1 UNK         0.0808 
    150 H150      -44.2138  -26.3969    5.3825 H         1 UNK         0.0808 
    151 H151      -44.0456  -25.4073    6.8195 H         1 UNK         0.0808 
    152 H152      -46.7232  -26.5554    4.7661 H         1 UNK         0.3098 
    153 H153      -49.2252  -25.2412    2.5775 H         1 UNK         0.0720 
    154 H154      -47.1564  -25.9857    1.2641 H         1 UNK         0.0791 
    155 H155      -48.4283  -27.1862    1.2680 H         1 UNK         0.0791 
    156 H156      -47.0280  -27.3871    2.3188 H         1 UNK         0.0791 
    157 H157      -48.8001  -26.5551    4.9705 H         1 UNK         0.3028 
@<TRIPOS>BOND
     1    1    2 1    
     2    1   82 1    
     3    1   83 1    
     4    1   84 1    
     5    2    3 2    
     6    2    4 am   BACKBONE|DICT|INTERRES
     7    4    5 1    
     8    4   85 1    
     9    5    6 1    
    10    5   80 1    
    11    5   86 1    
    12    6    7 1    
    13    6   87 1    
    14    6   88 1    
    15    7    8 1    
    16    8    9 1    
    17    8   89 1    
    18    8   90 1    
    19    9   10 ar   
    20    9   14 ar   
    21   10   11 ar   
    22   10   91 1    
    23   11   12 ar   
    24   11   58 1    
    25   12   13 ar   
    26   12   92 1    
    27   13   14 ar   
    28   13   15 1    
    29   14   93 1    
    30   15   16 1    
    31   15   94 1    
    32   15   95 1    
    33   16   17 1    
    34   17   18 1    
    35   17   96 1    
    36   17   97 1    
    37   18   19 1    
    38   18   22 1    
    39   18   98 1    
    40   19   20 am   BACKBONE|DICT|INTERRES
    41   19   21 2    
    42   20   99 1    
    43   20  100 1    
    44   22   23 am   BACKBONE|DICT|INTERRES
    45   22  101 1    
    46   23   24 2    
    47   23   25 1    
    48   25   26 1    
    49   25   27 1    
    50   25  102 1    
    51   26  103 1    
    52   26  104 1    
    53   26  105 1    
    54   27   28 am   BACKBONE|DICT|INTERRES
    55   27  106 1    
    56   28   29 2    
    57   28   30 1    
    58   30   31 1    
    59   30   32 1    
    60   30  107 1    
    61   31  108 1    
    62   31  109 1    
    63   31  110 1    
    64   32   33 am   BACKBONE|DICT|INTERRES
    65   32  111 1    
    66   33   34 2    
    67   33   35 1    
    68   35   36 1    
    69   35   37 1    
    70   35  112 1    
    71   36  113 1    
    72   36  114 1    
    73   36  115 1    
    74   37   38 am   BACKBONE|DICT|INTERRES
    75   37  116 1    
    76   38   39 2    
    77   38   40 1    
    78   40   41 1    
    79   40   42 1    
    80   40  117 1    
    81   41  118 1    
    82   41  119 1    
    83   41  120 1    
    84   42   43 am   BACKBONE|DICT|INTERRES
    85   42  121 1    
    86   43   44 2    
    87   43   45 1    
    88   45   46 1    
    89   45   47 1    
    90   45  122 1    
    91   46  123 1    
    92   46  124 1    
    93   46  125 1    
    94   47   48 am   BACKBONE|DICT|INTERRES
    95   47  126 1    
    96   48   49 2    
    97   48   50 1    
    98   50   51 1    
    99   50   52 1    
   100   50  127 1    
   101   51  128 1    
   102   51  129 1    
   103   51  130 1    
   104   52   53 am   BACKBONE|DICT|INTERRES
   105   52  131 1    
   106   53   54 2    
   107   53   55 1    
   108   55   56 1    
   109   55   59 1    
   110   55  132 1    
   111   56   57 1    
   112   56  133 1    
   113   56  134 1    
   114   57   58 1    
   115   58  135 1    
   116   58  136 1    
   117   59   60 am   BACKBONE|DICT|INTERRES
   118   59  137 1    
   119   60   61 2    
   120   60   62 1    
   121   62   63 1    
   122   62   64 1    
   123   62  138 1    
   124   63  139 1    
   125   63  140 1    
   126   63  141 1    
   127   64   65 am   BACKBONE|DICT|INTERRES
   128   64  142 1    
   129   65   66 2    
   130   65   67 1    
   131   67   68 1    
   132   67   69 1    
   133   67  143 1    
   134   68  144 1    
   135   68  145 1    
   136   68  146 1    
   137   69   70 am   BACKBONE|DICT|INTERRES
   138   69  147 1    
   139   70   71 2    
   140   70   72 1    
   141   72   73 1    
   142   72   74 1    
   143   72  148 1    
   144   73  149 1    
   145   73  150 1    
   146   73  151 1    
   147   74   75 am   BACKBONE|DICT|INTERRES
   148   74  152 1    
   149   75   76 2    
   150   75   77 1    
   151   77   78 1    
   152   77   79 1    
   153   77  153 1    
   154   78  154 1    
   155   78  155 1    
   156   78  156 1    
   157   79   80 am   BACKBONE|DICT|INTERRES
   158   79  157 1    
   159   80   81 2    
@<TRIPOS>SUBSTRUCTURE
     1 UNK         1 GROUP             0       ****    0 ROOT    
