@<TRIPOS>MOLECULE
3R207
157   159    1
SMALL
USER_CHARGES


@<TRIPOS>ATOM
      1 CA        -52.4623  -24.2861    2.6401 C.3       0 UNK        -0.1975 
      2 C         -51.8966  -24.2625    4.0526 C.2       0 UNK         0.4852 
      3 O         -52.6226  -23.9422    4.9945 O.2       0 UNK        -0.5216 
      4 N         -50.6086  -24.5920    4.2018 N.am      1 UNK        -0.4461 
      5 CA        -49.8936  -24.6164    5.4820 C.3       1 UNK         0.0864 
      6 C6        -50.3401  -25.7549    6.4408 C.3       14 UNK        -0.0898 
      7 S7        -50.2068  -27.4312    5.7222 S.3       14 UNK        -0.2598 
      8 C8        -51.8213  -28.1447    6.1666 C.3       14 UNK         0.0286 
      9 C9        -51.9410  -28.4033    7.6629 C.ar      14 UNK        -0.0844 
     10 C10       -51.0393  -29.2598    8.3010 C.ar      14 UNK        -0.0881 
     11 C11       -51.1505  -29.5234    9.6685 C.ar      14 UNK        -0.0643 
     12 C12       -52.1844  -28.9336   10.4010 C.ar      14 UNK        -0.0930 
     13 C13       -53.1008  -28.0844    9.7711 C.ar      14 UNK        -0.0827 
     14 C14       -52.9692  -27.8150    8.4051 C.ar      14 UNK        -0.1249 
     15 C15       -54.2459  -27.4748   10.5617 C.3       14 UNK         0.0141 
     16 S16       -55.7311  -28.5190   10.4395 S.3       14 UNK        -0.2313 
     17 C17       -56.9456  -27.5912   11.4416 C.3       14 UNK        -0.0915 
     18 CA        -56.5419  -27.3926   12.9325 C.3       13 UNK         0.0968 
     19 C         -57.6150  -26.6387   13.7735 C.2       13 UNK         0.5732 
     20 N         -57.5356  -26.6724   15.0986 N.am      13 UNK        -0.7310 
     21 O         -58.5151  -26.0013   13.2311 O.2       13 UNK        -0.5035 
     22 N         -56.0456  -28.6244   13.5625 N.am      13 UNK        -0.4233 
     23 C         -56.7445  -29.7217   13.8768 C.2       13 UNK         0.4989 
     24 O         -57.9482  -29.8587   13.6552 O.2       13 UNK        -0.4996 
     25 CA        -55.9834  -30.8617   14.5886 C.3       12 UNK         0.0216 
     26 CB        -55.5586  -31.9557   13.5881 C.3       12 UNK        -0.1964 
     27 N         -54.8547  -30.4051   15.4205 N.am      12 UNK        -0.4276 
     28 C         -53.6994  -29.8554   15.0213 C.2       12 UNK         0.5020 
     29 O         -53.3518  -29.7478   13.8442 O.2       12 UNK        -0.5489 
     30 CA        -52.8525  -29.1838   16.1081 C.3       11 UNK         0.0294 
     31 CB        -51.4172  -29.7332   16.1288 C.3       11 UNK        -0.2019 
     32 N         -52.8182  -27.7460   15.8458 N.am      11 UNK        -0.4493 
     33 C         -53.8477  -26.9042   16.0169 C.2       11 UNK         0.4932 
     34 O         -54.9394  -27.2489   16.4748 O.2       11 UNK        -0.5029 
     35 CA        -53.6248  -25.4444   15.5723 C.3       10 UNK         0.0280 
     36 CB        -54.6221  -24.4557   16.2113 C.3       10 UNK        -0.1976 
     37 N         -52.2405  -24.9975   15.7623 N.am      10 UNK        -0.4242 
     38 C         -51.5596  -24.8997   16.9152 C.2       10 UNK         0.5072 
     39 O         -52.0540  -25.0930   18.0267 O.2       10 UNK        -0.5224 
     40 CA        -50.0584  -24.5629   16.8228 C.3       9 UNK         0.0343 
     41 CB        -49.2203  -25.8153   17.1302 C.3       9 UNK        -0.2003 
     42 N         -49.6511  -24.0278   15.5203 N.am      9 UNK        -0.4272 
     43 C         -49.9415  -22.7969   15.0756 C.2       9 UNK         0.4988 
     44 O         -50.5257  -21.9457   15.7467 O.2       9 UNK        -0.5108 
     45 CA        -49.5424  -22.4714   13.6260 C.3       8 UNK         0.0248 
     46 CB        -48.0645  -22.0554   13.5495 C.3       8 UNK        -0.2001 
     47 N         -49.7915  -23.5799   12.6990 N.am      8 UNK        -0.4140 
     48 C         -51.0000  -24.0873   12.4134 C.2       8 UNK         0.5028 
     49 O         -52.0534  -23.6552   12.8804 O.2       8 UNK        -0.5428 
     50 CA        -51.0407  -25.3201   11.4972 C.3       7 UNK         0.0264 
     51 CB        -50.8834  -24.9337   10.0195 C.3       7 UNK        -0.1988 
     52 N         -50.0307  -26.3127   11.8623 N.am      7 UNK        -0.4454 
     53 C         -50.0645  -27.0381   12.9886 C.2       7 UNK         0.5027 
     54 O         -50.9697  -26.9678   13.8201 O.2       7 UNK        -0.5083 
     55 CA        -48.8621  -27.9583   13.2715 C.3       6 UNK         0.0844 
     56 C56       -49.0711  -29.3912   12.7227 C.3       14 UNK        -0.0967 
     57 S57       -48.6970  -29.5849   10.9445 S.3       14 UNK        -0.2604 
     58 C58       -50.1654  -30.4697   10.3342 C.3       14 UNK         0.0134 
     59 N         -47.5866  -27.3662   12.8568 N.am      6 UNK        -0.4116 
     60 C         -47.0446  -26.2764   13.4139 C.2       5 UNK         0.5034 
     61 O         -47.5611  -25.6472   14.3368 O.2       5 UNK        -0.5045 
     62 CA        -45.7165  -25.7866   12.8215 C.3       5 UNK         0.0224 
     63 CB        -44.5583  -26.7115   13.2291 C.3       5 UNK        -0.1978 
     64 N         -45.7271  -25.6244   11.3644 N.am      5 UNK        -0.4737 
     65 C         -46.5545  -24.8345   10.6694 C.2       4 UNK         0.5027 
     66 O         -47.5422  -24.2839   11.1521 O.2       4 UNK        -0.5211 
     67 CA        -46.2012  -24.5764    9.1959 C.3       4 UNK         0.0297 
     68 CB        -44.7921  -23.9686    9.0444 C.3       4 UNK        -0.1993 
     69 N         -46.3777  -25.7284    8.3083 N.am      4 UNK        -0.4486 
     70 C         -45.7591  -26.9192    8.3309 C.2       3 UNK         0.4961 
     71 O         -44.9345  -27.2570    9.1810 O.2       3 UNK        -0.5105 
     72 CA        -46.1057  -27.8997    7.1931 C.3       3 UNK         0.0299 
     73 CB        -47.1820  -28.8927    7.6573 C.3       3 UNK        -0.1972 
     74 N         -46.5660  -27.2300    5.9723 N.am      3 UNK        -0.4305 
     75 C         -45.7944  -26.4783    5.1700 C.2       2 UNK         0.5006 
     76 O         -44.5786  -26.3490    5.3158 O.2       2 UNK        -0.5106 
     77 CA        -46.4957  -25.7205    4.0242 C.3       2 UNK         0.0296 
     78 CB        -46.3626  -26.4977    2.7044 C.3       2 UNK        -0.2002 
     79 N         -47.9138  -25.4453    4.2830 N.am      2 UNK        -0.4032 
     80 C         -48.3725  -24.6521    5.2656 C.2       1 UNK         0.5000 
     81 O         -47.6423  -24.0050    6.0168 O.2       1 UNK        -0.5238 
     82 H82       -53.2973  -24.9839    2.5835 H         1 UNK         0.0889 
     83 H83       -51.7169  -24.5903    1.9056 H         1 UNK         0.0889 
     84 H84       -52.8258  -23.2964    2.3650 H         1 UNK         0.0889 
     85 H85       -50.0520  -24.7817    3.3809 H         1 UNK         0.3028 
     86 H86       -50.1011  -23.6663    5.9799 H         1 UNK         0.0864 
     87 H87       -51.3689  -25.5794    6.7575 H         1 UNK         0.0720 
     88 H88       -49.7499  -25.7340    7.3584 H         1 UNK         0.0720 
     89 H89       -51.9467  -29.0891    5.6356 H         1 UNK         0.0814 
     90 H90       -52.6161  -27.4857    5.8133 H         1 UNK         0.0814 
     91 H91       -50.2470  -29.7225    7.7286 H         1 UNK         0.1469 
     92 H92       -52.2843  -29.1451   11.4574 H         1 UNK         0.1381 
     93 H93       -53.6804  -27.1616    7.9184 H         1 UNK         0.1206 
     94 H94       -53.9505  -27.3730   11.6065 H         1 UNK         0.0813 
     95 H95       -54.4676  -26.4712   10.1957 H         1 UNK         0.0813 
     96 H96       -57.8950  -28.1259   11.3804 H         1 UNK         0.0638 
     97 H97       -57.1107  -26.6250   10.9618 H         1 UNK         0.0638 
     98 H98       -55.6938  -26.7091   12.9408 H         1 UNK         0.0568 
     99 H99       -58.2291  -26.1864   15.6436 H         1 UNK         0.3450 
    100 H100      -56.7580  -27.1283   15.5621 H         1 UNK         0.3450 
    101 H101      -55.0469  -28.6667   13.7278 H         1 UNK         0.2987 
    102 H102      -56.6923  -31.3142   15.2839 H         1 UNK         0.0766 
    103 H103      -55.0397  -32.7731   14.0884 H         1 UNK         0.0798 
    104 H104      -54.9026  -31.5664   12.8088 H         1 UNK         0.0798 
    105 H105      -56.4300  -32.3809   13.0885 H         1 UNK         0.0798 
    106 H106      -55.0531  -30.3814   16.4120 H         1 UNK         0.3198 
    107 H107      -53.3031  -29.3523   17.0886 H         1 UNK         0.0843 
    108 H108      -50.9125  -29.5766   15.1760 H         1 UNK         0.0831 
    109 H109      -51.4131  -30.8054   16.3285 H         1 UNK         0.0831 
    110 H110      -50.8207  -29.2541   16.9053 H         1 UNK         0.0831 
    111 H111      -52.0192  -27.4054   15.3152 H         1 UNK         0.3133 
    112 H112      -53.7944  -25.4307   14.4947 H         1 UNK         0.0566 
    113 H113      -54.4319  -23.4342   15.8820 H         1 UNK         0.0814 
    114 H114      -55.6477  -24.6979   15.9325 H         1 UNK         0.0814 
    115 H115      -54.5699  -24.4736   17.3002 H         1 UNK         0.0814 
    116 H116      -51.7300  -24.8242   14.9056 H         1 UNK         0.3091 
    117 H117      -49.8436  -23.8109   17.5849 H         1 UNK         0.0702 
    118 H118      -48.1539  -25.5890   17.1309 H         1 UNK         0.0785 
    119 H119      -49.3949  -26.6043   16.3976 H         1 UNK         0.0785 
    120 H120      -49.4659  -26.2214   18.1124 H         1 UNK         0.0785 
    121 H121      -49.0895  -24.6403   14.9337 H         1 UNK         0.2998 
    122 H122      -50.1511  -21.6263   13.2979 H         1 UNK         0.0697 
    123 H123      -47.3999  -22.8728   13.8317 H         1 UNK         0.0825 
    124 H124      -47.8579  -21.2188   14.2182 H         1 UNK         0.0825 
    125 H125      -47.7940  -21.7401   12.5416 H         1 UNK         0.0825 
    126 H126      -48.9755  -23.9691   12.2276 H         1 UNK         0.3029 
    127 H127      -52.0214  -25.7836   11.6186 H         1 UNK         0.0897 
    128 H128      -51.0048  -25.8071    9.3794 H         1 UNK         0.0792 
    129 H129      -49.9077  -24.4938    9.8113 H         1 UNK         0.0792 
    130 H130      -51.6414  -24.2078    9.7227 H         1 UNK         0.0792 
    131 H131      -49.2357  -26.4097   11.2479 H         1 UNK         0.3086 
    132 H132      -48.8164  -28.0511   14.3590 H         1 UNK         0.0583 
    133 H133      -48.4153  -30.0760   13.2625 H         1 UNK         0.1020 
    134 H134      -50.0837  -29.7383   12.9377 H         1 UNK         0.1020 
    135 H135      -49.8371  -31.2201    9.6133 H         1 UNK         0.0694 
    136 H136      -50.6494  -31.0257   11.1382 H         1 UNK         0.0694 
    137 H137      -47.1134  -27.8125   12.0840 H         1 UNK         0.2989 
    138 H138      -45.5253  -24.8004   13.2502 H         1 UNK         0.1055 
    139 H139      -44.5287  -26.8489   14.3111 H         1 UNK         0.0806 
    140 H140      -43.5959  -26.2943   12.9319 H         1 UNK         0.0806 
    141 H141      -44.6480  -27.6996   12.7758 H         1 UNK         0.0806 
    142 H142      -45.0181  -26.1205   10.8331 H         1 UNK         0.3061 
    143 H143      -46.9096  -23.8261    8.8400 H         1 UNK         0.0734 
    144 H144      -44.6109  -23.6535    8.0166 H         1 UNK         0.0832 
    145 H145      -44.6773  -23.0877    9.6775 H         1 UNK         0.0832 
    146 H146      -44.0049  -24.6711    9.3189 H         1 UNK         0.0832 
    147 H147      -47.0101  -25.5560    7.5380 H         1 UNK         0.3156 
    148 H148      -45.2015  -28.4618    6.9507 H         1 UNK         0.0589 
    149 H149      -48.0993  -28.3837    7.9567 H         1 UNK         0.0808 
    150 H150      -47.4334  -29.6077    6.8739 H         1 UNK         0.0808 
    151 H151      -46.8332  -29.4662    8.5170 H         1 UNK         0.0808 
    152 H152      -47.5503  -27.3094    5.7573 H         1 UNK         0.3098 
    153 H153      -45.9861  -24.7613    3.9098 H         1 UNK         0.0720 
    154 H154      -46.7795  -25.9358    1.8683 H         1 UNK         0.0791 
    155 H155      -46.8702  -27.4622    2.7493 H         1 UNK         0.0791 
    156 H156      -45.3148  -26.6920    2.4703 H         1 UNK         0.0791 
    157 H157      -48.5772  -25.9985    3.7602 H         1 UNK         0.3028 
@<TRIPOS>BOND
     1    1    2 1    
     2    1   82 1    
     3    1   83 1    
     4    1   84 1    
     5    2    3 2    
     6    2    4 am   BACKBONE|DICT|INTERRES
     7    4    5 1    
     8    4   85 1    
     9    5    6 1    
    10    5   80 1    
    11    5   86 1    
    12    6    7 1    
    13    6   87 1    
    14    6   88 1    
    15    7    8 1    
    16    8    9 1    
    17    8   89 1    
    18    8   90 1    
    19    9   10 ar   
    20    9   14 ar   
    21   10   11 ar   
    22   10   91 1    
    23   11   12 ar   
    24   11   58 1    
    25   12   13 ar   
    26   12   92 1    
    27   13   14 ar   
    28   13   15 1    
    29   14   93 1    
    30   15   16 1    
    31   15   94 1    
    32   15   95 1    
    33   16   17 1    
    34   17   18 1    
    35   17   96 1    
    36   17   97 1    
    37   18   19 1    
    38   18   22 1    
    39   18   98 1    
    40   19   20 am   BACKBONE|DICT|INTERRES
    41   19   21 2    
    42   20   99 1    
    43   20  100 1    
    44   22   23 am   BACKBONE|DICT|INTERRES
    45   22  101 1    
    46   23   24 2    
    47   23   25 1    
    48   25   26 1    
    49   25   27 1    
    50   25  102 1    
    51   26  103 1    
    52   26  104 1    
    53   26  105 1    
    54   27   28 am   BACKBONE|DICT|INTERRES
    55   27  106 1    
    56   28   29 2    
    57   28   30 1    
    58   30   31 1    
    59   30   32 1    
    60   30  107 1    
    61   31  108 1    
    62   31  109 1    
    63   31  110 1    
    64   32   33 am   BACKBONE|DICT|INTERRES
    65   32  111 1    
    66   33   34 2    
    67   33   35 1    
    68   35   36 1    
    69   35   37 1    
    70   35  112 1    
    71   36  113 1    
    72   36  114 1    
    73   36  115 1    
    74   37   38 am   BACKBONE|DICT|INTERRES
    75   37  116 1    
    76   38   39 2    
    77   38   40 1    
    78   40   41 1    
    79   40   42 1    
    80   40  117 1    
    81   41  118 1    
    82   41  119 1    
    83   41  120 1    
    84   42   43 am   BACKBONE|DICT|INTERRES
    85   42  121 1    
    86   43   44 2    
    87   43   45 1    
    88   45   46 1    
    89   45   47 1    
    90   45  122 1    
    91   46  123 1    
    92   46  124 1    
    93   46  125 1    
    94   47   48 am   BACKBONE|DICT|INTERRES
    95   47  126 1    
    96   48   49 2    
    97   48   50 1    
    98   50   51 1    
    99   50   52 1    
   100   50  127 1    
   101   51  128 1    
   102   51  129 1    
   103   51  130 1    
   104   52   53 am   BACKBONE|DICT|INTERRES
   105   52  131 1    
   106   53   54 2    
   107   53   55 1    
   108   55   56 1    
   109   55   59 1    
   110   55  132 1    
   111   56   57 1    
   112   56  133 1    
   113   56  134 1    
   114   57   58 1    
   115   58  135 1    
   116   58  136 1    
   117   59   60 am   BACKBONE|DICT|INTERRES
   118   59  137 1    
   119   60   61 2    
   120   60   62 1    
   121   62   63 1    
   122   62   64 1    
   123   62  138 1    
   124   63  139 1    
   125   63  140 1    
   126   63  141 1    
   127   64   65 am   BACKBONE|DICT|INTERRES
   128   64  142 1    
   129   65   66 2    
   130   65   67 1    
   131   67   68 1    
   132   67   69 1    
   133   67  143 1    
   134   68  144 1    
   135   68  145 1    
   136   68  146 1    
   137   69   70 am   BACKBONE|DICT|INTERRES
   138   69  147 1    
   139   70   71 2    
   140   70   72 1    
   141   72   73 1    
   142   72   74 1    
   143   72  148 1    
   144   73  149 1    
   145   73  150 1    
   146   73  151 1    
   147   74   75 am   BACKBONE|DICT|INTERRES
   148   74  152 1    
   149   75   76 2    
   150   75   77 1    
   151   77   78 1    
   152   77   79 1    
   153   77  153 1    
   154   78  154 1    
   155   78  155 1    
   156   78  156 1    
   157   79   80 am   BACKBONE|DICT|INTERRES
   158   79  157 1    
   159   80   81 2    
@<TRIPOS>SUBSTRUCTURE
     1 UNK         1 GROUP             0       ****    0 ROOT    
