@<TRIPOS>MOLECULE
3R207
157   159    1
SMALL
USER_CHARGES


@<TRIPOS>ATOM
      1 CA        -43.8537  -29.5112    8.6418 C.3       0 UNK        -0.1975 
      2 C         -44.7345  -29.8314    7.4432 C.2       0 UNK         0.4852 
      3 O         -44.2221  -30.2225    6.3941 O.2       0 UNK        -0.5216 
      4 N         -46.0558  -29.6673    7.5947 N.am      1 UNK        -0.4461 
      5 CA        -47.0705  -29.9201    6.5620 C.3       1 UNK         0.0864 
      6 C6        -48.5058  -29.8374    7.1355 C.3       14 UNK        -0.0898 
      7 S7        -48.8292  -30.9955    8.5094 S.3       14 UNK        -0.2598 
      8 C8        -49.5609  -29.9010    9.7729 C.3       14 UNK         0.0286 
      9 C9        -51.0279  -29.5799    9.5046 C.ar      14 UNK        -0.0844 
     10 C10       -51.3816  -28.6371    8.5351 C.ar      14 UNK        -0.0881 
     11 C11       -52.7164  -28.2760    8.3329 C.ar      14 UNK        -0.0643 
     12 C12       -53.7099  -28.8879    9.1002 C.ar      14 UNK        -0.0930 
     13 C13       -53.3756  -29.8246   10.0834 C.ar      14 UNK        -0.0827 
     14 C14       -52.0348  -30.1771   10.2705 C.ar      14 UNK        -0.1249 
     15 C15       -54.4635  -30.4417   10.9531 C.3       14 UNK         0.0141 
     16 S16       -54.7873  -29.4500   12.4495 S.3       14 UNK        -0.2313 
     17 C17       -55.5273  -27.9470   11.7230 C.3       14 UNK        -0.0915 
     18 CA        -56.2851  -27.0346   12.7227 C.3       13 UNK         0.0968 
     19 C         -57.5980  -27.6547   13.2845 C.2       13 UNK         0.5732 
     20 N         -57.9478  -27.4451   14.5492 N.am      13 UNK        -0.7310 
     21 O         -58.3362  -28.3126   12.5539 O.2       13 UNK        -0.5035 
     22 N         -55.3879  -26.5177   13.7639 N.am      13 UNK        -0.4233 
     23 C         -55.2330  -25.2248   14.0756 C.2       13 UNK         0.4989 
     24 O         -55.7914  -24.3001   13.4793 O.2       13 UNK        -0.4996 
     25 CA        -54.3199  -24.9214   15.2814 C.3       12 UNK         0.0216 
     26 CB        -54.4428  -23.4653   15.7783 C.3       12 UNK        -0.1964 
     27 N         -54.5013  -25.8587   16.3988 N.am      12 UNK        -0.4276 
     28 C         -55.6507  -26.1683   17.0238 C.2       12 UNK         0.5020 
     29 O         -56.7422  -25.6849   16.7175 O.2       12 UNK        -0.5489 
     30 CA        -55.5858  -27.2016   18.1703 C.3       11 UNK         0.0294 
     31 CB        -56.8986  -28.0022   18.3156 C.3       11 UNK        -0.2019 
     32 N         -54.4335  -28.1092   18.0955 N.am      11 UNK        -0.4493 
     33 C         -54.1371  -28.9589   17.1022 C.2       11 UNK         0.4932 
     34 O         -54.8277  -29.1278   16.0957 O.2       11 UNK        -0.5029 
     35 CA        -52.8024  -29.7098   17.2447 C.3       10 UNK         0.0280 
     36 CB        -53.0389  -31.2263   17.3423 C.3       10 UNK        -0.1976 
     37 N         -51.8849  -29.4304   16.1364 N.am      10 UNK        -0.4242 
     38 C         -51.5014  -28.2157   15.7156 C.2       10 UNK         0.5072 
     39 O         -51.8876  -27.1563   16.2192 O.2       10 UNK        -0.5224 
     40 CA        -50.5455  -28.2073   14.5085 C.3       9 UNK         0.0343 
     41 CB        -51.3098  -28.5483   13.2201 C.3       9 UNK        -0.2003 
     42 N         -49.8608  -26.9297   14.3109 N.am      9 UNK        -0.4272 
     43 C         -48.9964  -26.3521   15.1565 C.2       9 UNK         0.4988 
     44 O         -48.6237  -26.8606   16.2152 O.2       9 UNK        -0.5108 
     45 CA        -48.4222  -24.9843   14.7413 C.3       8 UNK         0.0248 
     46 CB        -47.0296  -25.1573   14.1129 C.3       8 UNK        -0.2001 
     47 N         -49.2862  -24.2590   13.8050 N.am      8 UNK        -0.4140 
     48 C         -50.4054  -23.6060   14.1504 C.2       8 UNK         0.5028 
     49 O         -50.8006  -23.4894   15.3102 O.2       8 UNK        -0.5428 
     50 CA        -51.2231  -22.9707   13.0134 C.3       7 UNK         0.0264 
     51 CB        -50.8206  -21.5007   12.8134 C.3       7 UNK        -0.1988 
     52 N         -51.0705  -23.6950   11.7488 N.am      7 UNK        -0.4454 
     53 C         -51.7567  -24.8066   11.4394 C.2       7 UNK         0.5027 
     54 O         -52.6178  -25.2929   12.1692 O.2       7 UNK        -0.5083 
     55 CA        -51.4213  -25.5119   10.1079 C.3       6 UNK         0.0844 
     56 C56       -52.3912  -25.0437    8.9914 C.3       14 UNK        -0.0967 
     57 S57       -52.0161  -25.7438    7.3460 S.3       14 UNK        -0.2604 
     58 C58       -53.0905  -27.2203    7.2967 C.3       14 UNK         0.0134 
     59 N         -50.0089  -25.3765    9.7341 N.am      6 UNK        -0.4116 
     60 C         -48.9806  -25.8563   10.4469 C.2       5 UNK         0.5034 
     61 O         -49.1137  -26.5160   11.4752 O.2       5 UNK        -0.5045 
     62 CA        -47.5581  -25.5015    9.9784 C.3       5 UNK         0.0224 
     63 CB        -46.9556  -26.6679    9.1838 C.3       5 UNK        -0.1978 
     64 N         -47.4473  -24.2573    9.2038 N.am      5 UNK        -0.4737 
     65 C         -47.8544  -23.0492    9.6271 C.2       4 UNK         0.5027 
     66 O         -48.4301  -22.8749   10.7025 O.2       4 UNK        -0.5211 
     67 CA        -47.5936  -21.8265    8.7275 C.3       4 UNK         0.0297 
     68 CB        -46.6942  -20.8105    9.4522 C.3       4 UNK        -0.1993 
     69 N         -46.9970  -22.1393    7.4262 N.am      4 UNK        -0.4486 
     70 C         -47.6378  -22.6815    6.3825 C.2       3 UNK         0.4961 
     71 O         -48.8199  -23.0260    6.4119 O.2       3 UNK        -0.5105 
     72 CA        -46.8305  -22.8690    5.0798 C.3       3 UNK         0.0299 
     73 CB        -45.3909  -22.3046    5.1357 C.3       3 UNK        -0.1972 
     74 N         -46.8061  -24.2655    4.6303 N.am      3 UNK        -0.4305 
     75 C         -46.3819  -25.3267    5.3301 C.2       2 UNK         0.5006 
     76 O         -45.9720  -25.2755    6.4933 O.2       2 UNK        -0.5106 
     77 CA        -46.3844  -26.6682    4.5890 C.3       2 UNK         0.0296 
     78 CB        -45.1127  -26.8277    3.7354 C.3       2 UNK        -0.2002 
     79 N         -46.4632  -27.7452    5.5699 N.am      2 UNK        -0.4032 
     80 C         -46.9617  -28.9684    5.3483 C.2       1 UNK         0.5000 
     81 O         -47.3577  -29.3533    4.2462 O.2       1 UNK        -0.5238 
     82 H82       -44.4361  -29.1754    9.4997 H         1 UNK         0.0889 
     83 H83       -43.1443  -28.7247    8.3856 H         1 UNK         0.0889 
     84 H84       -43.2902  -30.3950    8.9396 H         1 UNK         0.0889 
     85 H85       -46.4171  -29.3986    8.4976 H         1 UNK         0.3028 
     86 H86       -46.9097  -30.9335    6.1877 H         1 UNK         0.0864 
     87 H87       -49.2475  -30.0381    6.3592 H         1 UNK         0.0720 
     88 H88       -48.6818  -28.8181    7.4740 H         1 UNK         0.0720 
     89 H89       -48.9886  -28.9764    9.8475 H         1 UNK         0.0814 
     90 H90       -49.4602  -30.3875   10.7443 H         1 UNK         0.0814 
     91 H91       -50.6209  -28.1419    7.9545 H         1 UNK         0.1469 
     92 H92       -54.7455  -28.6167    8.9498 H         1 UNK         0.1381 
     93 H93       -51.7738  -30.8956   11.0354 H         1 UNK         0.1206 
     94 H94       -54.1681  -31.4470   11.2569 H         1 UNK         0.0813 
     95 H95       -55.3869  -30.5572   10.3835 H         1 UNK         0.0813 
     96 H96       -54.7221  -27.3712   11.2635 H         1 UNK         0.0638 
     97 H97       -56.1907  -28.2377   10.9069 H         1 UNK         0.0638 
     98 H98       -56.6420  -26.1934   12.1263 H         1 UNK         0.0568 
     99 H99       -58.8066  -27.8468   14.8890 H         1 UNK         0.3450 
    100 H100      -57.3922  -26.8556   15.1586 H         1 UNK         0.3450 
    101 H101      -54.9305  -27.2221   14.3279 H         1 UNK         0.2987 
    102 H102      -53.2977  -25.0635   14.9264 H         1 UNK         0.0766 
    103 H103      -54.2140  -22.7577   14.9805 H         1 UNK         0.0798 
    104 H104      -53.7450  -23.2666   16.5919 H         1 UNK         0.0798 
    105 H105      -55.4495  -23.2435   16.1342 H         1 UNK         0.0798 
    106 H106      -53.6559  -26.3578   16.6665 H         1 UNK         0.3198 
    107 H107      -55.4542  -26.6193   19.0838 H         1 UNK         0.0843 
    108 H108      -56.8410  -28.7146   19.1383 H         1 UNK         0.0831 
    109 H109      -57.1368  -28.5568   17.4071 H         1 UNK         0.0831 
    110 H110      -57.7416  -27.3412   18.5217 H         1 UNK         0.0831 
    111 H111      -53.7746  -28.0316   18.8592 H         1 UNK         0.3133 
    112 H112      -52.3068  -29.3845   18.1621 H         1 UNK         0.0566 
    113 H113      -52.1076  -31.7659   17.5164 H         1 UNK         0.0814 
    114 H114      -53.4935  -31.6225   16.4326 H         1 UNK         0.0814 
    115 H115      -53.7088  -31.4639   18.1699 H         1 UNK         0.0814 
    116 H116      -51.5411  -30.2364   15.6353 H         1 UNK         0.3091 
    117 H117      -49.7789  -28.9665   14.6753 H         1 UNK         0.0702 
    118 H118      -50.6460  -28.5644   12.3563 H         1 UNK         0.0785 
    119 H119      -52.1013  -27.8255   13.0172 H         1 UNK         0.0785 
    120 H120      -51.7780  -29.5309   13.2830 H         1 UNK         0.0785 
    121 H121      -50.0367  -26.4656   13.4295 H         1 UNK         0.2998 
    122 H122      -48.3143  -24.3823   15.6461 H         1 UNK         0.0697 
    123 H123      -47.0597  -25.8107   13.2408 H         1 UNK         0.0825 
    124 H124      -46.3363  -25.6045   14.8265 H         1 UNK         0.0825 
    125 H125      -46.6065  -24.2005   13.8060 H         1 UNK         0.0825 
    126 H126      -49.0303  -24.2884   12.8281 H         1 UNK         0.3029 
    127 H127      -52.2743  -22.9938   13.3101 H         1 UNK         0.0897 
    128 H128      -50.9683  -20.9295   13.7309 H         1 UNK         0.0792 
    129 H129      -51.4211  -21.0269   12.0368 H         1 UNK         0.0792 
    130 H130      -49.7710  -21.4010   12.5341 H         1 UNK         0.0792 
    131 H131      -50.3301  -23.3745   11.1312 H         1 UNK         0.3086 
    132 H132      -51.5988  -26.5733   10.2850 H         1 UNK         0.0583 
    133 H133      -53.4210  -25.2917    9.2572 H         1 UNK         0.1020 
    134 H134      -52.3612  -23.9564    8.8945 H         1 UNK         0.1020 
    135 H135      -54.1272  -26.9034    7.4208 H         1 UNK         0.0694 
    136 H136      -53.0210  -27.6691    6.3051 H         1 UNK         0.0694 
    137 H137      -49.8133  -24.8531    8.8927 H         1 UNK         0.2989 
    138 H138      -46.9567  -25.3635   10.8786 H         1 UNK         0.1055 
    139 H139      -47.5019  -26.8393    8.2565 H         1 UNK         0.0806 
    140 H140      -45.9109  -26.4800    8.9350 H         1 UNK         0.0806 
    141 H141      -46.9850  -27.5897    9.7655 H         1 UNK         0.0806 
    142 H142      -46.9861  -24.3232    8.3035 H         1 UNK         0.3061 
    143 H143      -48.5624  -21.3542    8.5511 H         1 UNK         0.0734 
    144 H144      -45.7074  -21.2240    9.6646 H         1 UNK         0.0832 
    145 H145      -46.5607  -19.9041    8.8615 H         1 UNK         0.0832 
    146 H146      -47.1315  -20.5088   10.4054 H         1 UNK         0.0832 
    147 H147      -46.0177  -21.9187    7.3152 H         1 UNK         0.3156 
    148 H148      -47.3695  -22.3104    4.3131 H         1 UNK         0.0589 
    149 H149      -44.8966  -22.4073    4.1694 H         1 UNK         0.0808 
    150 H150      -45.3886  -21.2406    5.3765 H         1 UNK         0.0808 
    151 H151      -44.7724  -22.8193    5.8723 H         1 UNK         0.0808 
    152 H152      -47.1529  -24.4227    3.6940 H         1 UNK         0.3098 
    153 H153      -47.2662  -26.7042    3.9453 H         1 UNK         0.0720 
    154 H154      -45.0261  -26.0248    3.0022 H         1 UNK         0.0791 
    155 H155      -45.1191  -27.7684    3.1846 H         1 UNK         0.0791 
    156 H156      -44.2124  -26.8079    4.3511 H         1 UNK         0.0791 
    157 H157      -46.1697  -27.4808    6.5014 H         1 UNK         0.3028 
@<TRIPOS>BOND
     1    1    2 1    
     2    1   82 1    
     3    1   83 1    
     4    1   84 1    
     5    2    3 2    
     6    2    4 am   BACKBONE|DICT|INTERRES
     7    4    5 1    
     8    4   85 1    
     9    5    6 1    
    10    5   80 1    
    11    5   86 1    
    12    6    7 1    
    13    6   87 1    
    14    6   88 1    
    15    7    8 1    
    16    8    9 1    
    17    8   89 1    
    18    8   90 1    
    19    9   10 ar   
    20    9   14 ar   
    21   10   11 ar   
    22   10   91 1    
    23   11   12 ar   
    24   11   58 1    
    25   12   13 ar   
    26   12   92 1    
    27   13   14 ar   
    28   13   15 1    
    29   14   93 1    
    30   15   16 1    
    31   15   94 1    
    32   15   95 1    
    33   16   17 1    
    34   17   18 1    
    35   17   96 1    
    36   17   97 1    
    37   18   19 1    
    38   18   22 1    
    39   18   98 1    
    40   19   20 am   BACKBONE|DICT|INTERRES
    41   19   21 2    
    42   20   99 1    
    43   20  100 1    
    44   22   23 am   BACKBONE|DICT|INTERRES
    45   22  101 1    
    46   23   24 2    
    47   23   25 1    
    48   25   26 1    
    49   25   27 1    
    50   25  102 1    
    51   26  103 1    
    52   26  104 1    
    53   26  105 1    
    54   27   28 am   BACKBONE|DICT|INTERRES
    55   27  106 1    
    56   28   29 2    
    57   28   30 1    
    58   30   31 1    
    59   30   32 1    
    60   30  107 1    
    61   31  108 1    
    62   31  109 1    
    63   31  110 1    
    64   32   33 am   BACKBONE|DICT|INTERRES
    65   32  111 1    
    66   33   34 2    
    67   33   35 1    
    68   35   36 1    
    69   35   37 1    
    70   35  112 1    
    71   36  113 1    
    72   36  114 1    
    73   36  115 1    
    74   37   38 am   BACKBONE|DICT|INTERRES
    75   37  116 1    
    76   38   39 2    
    77   38   40 1    
    78   40   41 1    
    79   40   42 1    
    80   40  117 1    
    81   41  118 1    
    82   41  119 1    
    83   41  120 1    
    84   42   43 am   BACKBONE|DICT|INTERRES
    85   42  121 1    
    86   43   44 2    
    87   43   45 1    
    88   45   46 1    
    89   45   47 1    
    90   45  122 1    
    91   46  123 1    
    92   46  124 1    
    93   46  125 1    
    94   47   48 am   BACKBONE|DICT|INTERRES
    95   47  126 1    
    96   48   49 2    
    97   48   50 1    
    98   50   51 1    
    99   50   52 1    
   100   50  127 1    
   101   51  128 1    
   102   51  129 1    
   103   51  130 1    
   104   52   53 am   BACKBONE|DICT|INTERRES
   105   52  131 1    
   106   53   54 2    
   107   53   55 1    
   108   55   56 1    
   109   55   59 1    
   110   55  132 1    
   111   56   57 1    
   112   56  133 1    
   113   56  134 1    
   114   57   58 1    
   115   58  135 1    
   116   58  136 1    
   117   59   60 am   BACKBONE|DICT|INTERRES
   118   59  137 1    
   119   60   61 2    
   120   60   62 1    
   121   62   63 1    
   122   62   64 1    
   123   62  138 1    
   124   63  139 1    
   125   63  140 1    
   126   63  141 1    
   127   64   65 am   BACKBONE|DICT|INTERRES
   128   64  142 1    
   129   65   66 2    
   130   65   67 1    
   131   67   68 1    
   132   67   69 1    
   133   67  143 1    
   134   68  144 1    
   135   68  145 1    
   136   68  146 1    
   137   69   70 am   BACKBONE|DICT|INTERRES
   138   69  147 1    
   139   70   71 2    
   140   70   72 1    
   141   72   73 1    
   142   72   74 1    
   143   72  148 1    
   144   73  149 1    
   145   73  150 1    
   146   73  151 1    
   147   74   75 am   BACKBONE|DICT|INTERRES
   148   74  152 1    
   149   75   76 2    
   150   75   77 1    
   151   77   78 1    
   152   77   79 1    
   153   77  153 1    
   154   78  154 1    
   155   78  155 1    
   156   78  156 1    
   157   79   80 am   BACKBONE|DICT|INTERRES
   158   79  157 1    
   159   80   81 2    
@<TRIPOS>SUBSTRUCTURE
     1 UNK         1 GROUP             0       ****    0 ROOT    
