@<TRIPOS>MOLECULE
3R207
157   159    1
SMALL
USER_CHARGES


@<TRIPOS>ATOM
      1 CA        -45.6518  -27.0245    5.2472 C.3       0 UNK        -0.1975 
      2 C         -45.7889  -28.0893    6.3332 C.2       0 UNK         0.4852 
      3 O         -44.8291  -28.3273    7.0627 O.2       0 UNK        -0.5216 
      4 N         -46.9387  -28.7642    6.4806 N.am      1 UNK        -0.4461 
      5 CA        -48.2097  -28.5498    5.7790 C.3       1 UNK         0.0864 
      6 C6        -49.2048  -29.6913    6.1125 C.3       14 UNK        -0.0898 
      7 S7        -50.7647  -29.6130    5.1607 S.3       14 UNK        -0.2598 
      8 C8        -51.9632  -30.4005    6.2903 C.3       14 UNK         0.0286 
      9 C9        -52.0434  -29.7256    7.6555 C.ar      14 UNK        -0.0844 
     10 C10       -52.4612  -28.3973    7.7735 C.ar      14 UNK        -0.0881 
     11 C11       -52.5189  -27.7776    9.0265 C.ar      14 UNK        -0.0643 
     12 C12       -52.1575  -28.4989   10.1693 C.ar      14 UNK        -0.0930 
     13 C13       -51.7774  -29.8424   10.0692 C.ar      14 UNK        -0.0827 
     14 C14       -51.7118  -30.4422    8.8083 C.ar      14 UNK        -0.1249 
     15 C15       -51.4273  -30.6695   11.3036 C.3       14 UNK         0.0141 
     16 S16       -52.5850  -30.4905   12.7027 S.3       14 UNK        -0.2313 
     17 C17       -54.2384  -30.6929   11.9561 C.3       14 UNK        -0.0915 
     18 CA        -55.1231  -29.4232   12.1529 C.3       13 UNK         0.0968 
     19 C         -56.4821  -29.5031   11.3907 C.2       13 UNK         0.5732 
     20 N         -57.5635  -28.9154   11.8934 N.am      13 UNK        -0.7310 
     21 O         -56.5588  -30.0790   10.3080 O.2       13 UNK        -0.5035 
     22 N         -55.2488  -29.0062   13.5622 N.am      13 UNK        -0.4233 
     23 C         -55.8264  -29.7127   14.5453 C.2       13 UNK         0.4989 
     24 O         -56.2515  -30.8614   14.4156 O.2       13 UNK        -0.4996 
     25 CA        -55.9987  -29.0132   15.9074 C.3       12 UNK         0.0216 
     26 CB        -54.9012  -29.4590   16.8862 C.3       12 UNK        -0.1964 
     27 N         -56.0321  -27.5465   15.8409 N.am      12 UNK        -0.4276 
     28 C         -56.9486  -26.8273   15.1735 C.2       12 UNK         0.5020 
     29 O         -57.8560  -27.3333   14.5106 O.2       12 UNK        -0.5489 
     30 CA        -56.8439  -25.2913   15.2334 C.3       11 UNK         0.0294 
     31 CB        -57.9280  -24.7186   16.1612 C.3       11 UNK        -0.2019 
     32 N         -55.5363  -24.7770   15.6543 N.am      11 UNK        -0.4493 
     33 C         -54.3932  -24.9110   14.9686 C.2       11 UNK         0.4932 
     34 O         -54.3084  -25.5328   13.9069 O.2       11 UNK        -0.5029 
     35 CA        -53.1321  -24.2463   15.5590 C.3       10 UNK         0.0280 
     36 CB        -53.3221  -23.6173   16.9597 C.3       10 UNK        -0.1976 
     37 N         -51.9953  -25.1715   15.5442 N.am      10 UNK        -0.4242 
     38 C         -51.9166  -26.3457   16.1862 C.2       10 UNK         0.5072 
     39 O         -52.7718  -26.7497   16.9765 O.2       10 UNK        -0.5224 
     40 CA        -50.7137  -27.2517   15.8804 C.3       9 UNK         0.0343 
     41 CB        -51.1244  -28.3319   14.8733 C.3       9 UNK        -0.2003 
     42 N         -49.5352  -26.5518   15.3615 N.am      9 UNK        -0.4272 
     43 C         -48.6092  -25.9762   16.1407 C.2       9 UNK         0.4988 
     44 O         -48.7202  -25.8557   17.3616 O.2       9 UNK        -0.5108 
     45 CA        -47.3203  -25.4932   15.4535 C.3       8 UNK         0.0248 
     46 CB        -46.4549  -26.6867   15.0149 C.3       8 UNK        -0.2001 
     47 N         -47.5780  -24.6270   14.3050 N.am      8 UNK        -0.4140 
     48 C         -48.0311  -23.3690   14.3938 C.2       8 UNK         0.5028 
     49 O         -48.2255  -22.7805   15.4583 O.2       8 UNK        -0.5428 
     50 CA        -48.3387  -22.6467   13.0703 C.3       7 UNK         0.0264 
     51 CB        -47.0672  -22.0115   12.4855 C.3       7 UNK        -0.1988 
     52 N         -48.9596  -23.5174   12.0686 N.am      7 UNK        -0.4454 
     53 C         -50.1401  -24.1343   12.2272 C.2       7 UNK         0.5027 
     54 O         -50.8423  -24.0139   13.2285 O.2       7 UNK        -0.5083 
     55 CA        -50.6035  -25.0646   11.0928 C.3       6 UNK         0.0844 
     56 C56       -51.2604  -24.2317    9.9655 C.3       14 UNK        -0.0967 
     57 S57       -51.7382  -25.1880    8.4935 S.3       14 UNK        -0.2604 
     58 C58       -52.9942  -26.3365    9.1333 C.3       14 UNK         0.0134 
     59 N         -49.5153  -25.9288   10.6309 N.am      6 UNK        -0.4116 
     60 C         -48.9150  -26.8586   11.3875 C.2       5 UNK         0.5034 
     61 O         -49.2407  -27.1234   12.5444 O.2       5 UNK        -0.5045 
     62 CA        -47.6967  -27.5628   10.7758 C.3       5 UNK         0.0224 
     63 CB        -48.1251  -28.7291    9.8739 C.3       5 UNK        -0.1978 
     64 N         -46.8367  -26.6265   10.0436 N.am      5 UNK        -0.4737 
     65 C         -46.1132  -25.6766   10.6553 C.2       4 UNK         0.5027 
     66 O         -46.1053  -25.5091   11.8751 O.2       4 UNK        -0.5211 
     67 CA        -45.2730  -24.7390    9.7736 C.3       4 UNK         0.0297 
     68 CB        -43.9290  -25.3959    9.4222 C.3       4 UNK        -0.1993 
     69 N         -45.9315  -24.2855    8.5454 N.am      4 UNK        -0.4486 
     70 C         -47.0950  -23.6238    8.4776 C.2       3 UNK         0.4961 
     71 O         -47.8324  -23.4244    9.4427 O.2       3 UNK        -0.5105 
     72 CA        -47.5172  -23.1109    7.0961 C.3       3 UNK         0.0299 
     73 CB        -46.3295  -22.7995    6.1563 C.3       3 UNK        -0.1972 
     74 N         -48.4010  -24.1133    6.5214 N.am      3 UNK        -0.4305 
     75 C         -49.1967  -23.9897    5.4582 C.2       2 UNK         0.5006 
     76 O         -49.2611  -22.9679    4.7719 O.2       2 UNK        -0.5106 
     77 CA        -50.0702  -25.2170    5.1066 C.3       2 UNK         0.0296 
     78 CB        -50.8191  -25.0429    3.7714 C.3       2 UNK        -0.2002 
     79 N         -49.3622  -26.5040    5.0779 N.am      2 UNK        -0.4032 
     80 C         -48.7953  -27.1573    6.1042 C.2       1 UNK         0.5000 
     81 O         -48.7030  -26.7080    7.2511 O.2       1 UNK        -0.5238 
     82 H82       -44.6002  -26.8000    5.0696 H         1 UNK         0.0889 
     83 H83       -46.1414  -26.1005    5.5499 H         1 UNK         0.0889 
     84 H84       -46.0764  -27.3562    4.3007 H         1 UNK         0.0889 
     85 H85       -46.9750  -29.4629    7.2073 H         1 UNK         0.3028 
     86 H86       -48.0018  -28.5988    4.7086 H         1 UNK         0.0864 
     87 H87       -48.7445  -30.6575    5.8998 H         1 UNK         0.0720 
     88 H88       -49.4214  -29.6944    7.1808 H         1 UNK         0.0720 
     89 H89       -51.7011  -31.4545    6.3943 H         1 UNK         0.0814 
     90 H90       -52.9502  -30.3776    5.8267 H         1 UNK         0.0814 
     91 H91       -52.7288  -27.8392    6.8866 H         1 UNK         0.1469 
     92 H92       -52.1940  -28.0255   11.1405 H         1 UNK         0.1381 
     93 H93       -51.4028  -31.4751    8.7231 H         1 UNK         0.1206 
     94 H94       -50.4331  -30.3850   11.6478 H         1 UNK         0.0813 
     95 H95       -51.3726  -31.7292   11.0497 H         1 UNK         0.0813 
     96 H96       -54.7114  -31.5694   12.4001 H         1 UNK         0.0638 
     97 H97       -54.1254  -30.9236   10.8961 H         1 UNK         0.0638 
     98 H98       -54.6041  -28.5977   11.6667 H         1 UNK         0.0568 
     99 H99       -58.4297  -28.9680   11.3820 H         1 UNK         0.3450 
    100 H100      -57.5349  -28.4308   12.7835 H         1 UNK         0.3450 
    101 H101      -54.9464  -28.0639   13.7663 H         1 UNK         0.2987 
    102 H102      -56.9606  -29.3368   16.3104 H         1 UNK         0.0766 
    103 H103      -55.0520  -29.0317   17.8777 H         1 UNK         0.0798 
    104 H104      -53.9108  -29.1642   16.5413 H         1 UNK         0.0798 
    105 H105      -54.8956  -30.5441   16.9989 H         1 UNK         0.0798 
    106 H106      -55.3022  -27.0514   16.3366 H         1 UNK         0.3198 
    107 H107      -57.0317  -24.9228   14.2225 H         1 UNK         0.0843 
    108 H108      -57.7829  -25.0338   17.1953 H         1 UNK         0.0831 
    109 H109      -58.9205  -25.0539   15.8558 H         1 UNK         0.0831 
    110 H110      -57.9375  -23.6287   16.1383 H         1 UNK         0.0831 
    111 H111      -55.5105  -24.2634   16.5237 H         1 UNK         0.3133 
    112 H112      -52.8740  -23.4376   14.8747 H         1 UNK         0.0566 
    113 H113      -52.3916  -23.1729   17.3135 H         1 UNK         0.0814 
    114 H114      -54.0632  -22.8173   16.9384 H         1 UNK         0.0814 
    115 H115      -53.6385  -24.3474   17.7054 H         1 UNK         0.0814 
    116 H116      -51.2869  -24.9473   14.8504 H         1 UNK         0.3091 
    117 H117      -50.4405  -27.7541   16.8110 H         1 UNK         0.0702 
    118 H118      -50.2979  -29.0064   14.6490 H         1 UNK         0.0785 
    119 H119      -51.4638  -27.8947   13.9331 H         1 UNK         0.0785 
    120 H120      -51.9405  -28.9401   15.2629 H         1 UNK         0.0785 
    121 H121      -49.3679  -26.6301   14.3603 H         1 UNK         0.2998 
    122 H122      -46.7485  -24.9199   16.1865 H         1 UNK         0.0697 
    123 H123      -46.9458  -27.2838   14.2454 H         1 UNK         0.0825 
    124 H124      -46.2428  -27.3471   15.8567 H         1 UNK         0.0825 
    125 H125      -45.4972  -26.3536   14.6143 H         1 UNK         0.0825 
    126 H126      -47.3739  -25.0082   13.3860 H         1 UNK         0.3029 
    127 H127      -49.0483  -21.8466   13.2916 H         1 UNK         0.0897 
    128 H128      -47.2863  -21.4455   11.5799 H         1 UNK         0.0792 
    129 H129      -46.6125  -21.3220   13.1981 H         1 UNK         0.0792 
    130 H130      -46.3187  -22.7638   12.2365 H         1 UNK         0.0792 
    131 H131      -48.4657  -23.6281   11.1845 H         1 UNK         0.3086 
    132 H132      -51.3670  -25.7193   11.5165 H         1 UNK         0.0583 
    133 H133      -52.1475  -23.7182   10.3421 H         1 UNK         0.1020 
    134 H134      -50.5826  -23.4462    9.6245 H         1 UNK         0.1020 
    135 H135      -53.2621  -26.0863   10.1605 H         1 UNK         0.0694 
    136 H136      -53.9067  -26.2166    8.5476 H         1 UNK         0.0694 
    137 H137      -49.1883  -25.7812    9.6862 H         1 UNK         0.2989 
    138 H138      -47.1095  -27.9778   11.5985 H         1 UNK         0.1055 
    139 H139      -48.5971  -29.5145   10.4633 H         1 UNK         0.0806 
    140 H140      -47.2712  -29.1779    9.3680 H         1 UNK         0.0806 
    141 H141      -48.8504  -28.4189    9.1229 H         1 UNK         0.0806 
    142 H142      -46.8312  -26.6867    9.0348 H         1 UNK         0.3061 
    143 H143      -45.0630  -23.8467   10.3667 H         1 UNK         0.0734 
    144 H144      -43.2680  -24.7006    8.9046 H         1 UNK         0.0832 
    145 H145      -43.4081  -25.7235   10.3232 H         1 UNK         0.0832 
    146 H146      -44.0607  -26.2725    8.7868 H         1 UNK         0.0832 
    147 H147      -45.4081  -24.4021    7.6906 H         1 UNK         0.3156 
    148 H148      -48.0880  -22.1933    7.2522 H         1 UNK         0.0589 
    149 H149      -45.8033  -23.6986    5.8363 H         1 UNK         0.0808 
    150 H150      -46.6660  -22.2840    5.2568 H         1 UNK         0.0808 
    151 H151      -45.6061  -22.1427    6.6416 H         1 UNK         0.0808 
    152 H152      -48.4542  -25.0011    7.0235 H         1 UNK         0.3098 
    153 H153      -50.8282  -25.2888    5.8838 H         1 UNK         0.0720 
    154 H154      -51.4905  -25.8804    3.5799 H         1 UNK         0.0791 
    155 H155      -50.1293  -24.9635    2.9302 H         1 UNK         0.0791 
    156 H156      -51.4315  -24.1401    3.7788 H         1 UNK         0.0791 
    157 H157      -49.3663  -26.9672    4.1807 H         1 UNK         0.3028 
@<TRIPOS>BOND
     1    1    2 1    
     2    1   82 1    
     3    1   83 1    
     4    1   84 1    
     5    2    3 2    
     6    2    4 am   BACKBONE|DICT|INTERRES
     7    4    5 1    
     8    4   85 1    
     9    5    6 1    
    10    5   80 1    
    11    5   86 1    
    12    6    7 1    
    13    6   87 1    
    14    6   88 1    
    15    7    8 1    
    16    8    9 1    
    17    8   89 1    
    18    8   90 1    
    19    9   10 ar   
    20    9   14 ar   
    21   10   11 ar   
    22   10   91 1    
    23   11   12 ar   
    24   11   58 1    
    25   12   13 ar   
    26   12   92 1    
    27   13   14 ar   
    28   13   15 1    
    29   14   93 1    
    30   15   16 1    
    31   15   94 1    
    32   15   95 1    
    33   16   17 1    
    34   17   18 1    
    35   17   96 1    
    36   17   97 1    
    37   18   19 1    
    38   18   22 1    
    39   18   98 1    
    40   19   20 am   BACKBONE|DICT|INTERRES
    41   19   21 2    
    42   20   99 1    
    43   20  100 1    
    44   22   23 am   BACKBONE|DICT|INTERRES
    45   22  101 1    
    46   23   24 2    
    47   23   25 1    
    48   25   26 1    
    49   25   27 1    
    50   25  102 1    
    51   26  103 1    
    52   26  104 1    
    53   26  105 1    
    54   27   28 am   BACKBONE|DICT|INTERRES
    55   27  106 1    
    56   28   29 2    
    57   28   30 1    
    58   30   31 1    
    59   30   32 1    
    60   30  107 1    
    61   31  108 1    
    62   31  109 1    
    63   31  110 1    
    64   32   33 am   BACKBONE|DICT|INTERRES
    65   32  111 1    
    66   33   34 2    
    67   33   35 1    
    68   35   36 1    
    69   35   37 1    
    70   35  112 1    
    71   36  113 1    
    72   36  114 1    
    73   36  115 1    
    74   37   38 am   BACKBONE|DICT|INTERRES
    75   37  116 1    
    76   38   39 2    
    77   38   40 1    
    78   40   41 1    
    79   40   42 1    
    80   40  117 1    
    81   41  118 1    
    82   41  119 1    
    83   41  120 1    
    84   42   43 am   BACKBONE|DICT|INTERRES
    85   42  121 1    
    86   43   44 2    
    87   43   45 1    
    88   45   46 1    
    89   45   47 1    
    90   45  122 1    
    91   46  123 1    
    92   46  124 1    
    93   46  125 1    
    94   47   48 am   BACKBONE|DICT|INTERRES
    95   47  126 1    
    96   48   49 2    
    97   48   50 1    
    98   50   51 1    
    99   50   52 1    
   100   50  127 1    
   101   51  128 1    
   102   51  129 1    
   103   51  130 1    
   104   52   53 am   BACKBONE|DICT|INTERRES
   105   52  131 1    
   106   53   54 2    
   107   53   55 1    
   108   55   56 1    
   109   55   59 1    
   110   55  132 1    
   111   56   57 1    
   112   56  133 1    
   113   56  134 1    
   114   57   58 1    
   115   58  135 1    
   116   58  136 1    
   117   59   60 am   BACKBONE|DICT|INTERRES
   118   59  137 1    
   119   60   61 2    
   120   60   62 1    
   121   62   63 1    
   122   62   64 1    
   123   62  138 1    
   124   63  139 1    
   125   63  140 1    
   126   63  141 1    
   127   64   65 am   BACKBONE|DICT|INTERRES
   128   64  142 1    
   129   65   66 2    
   130   65   67 1    
   131   67   68 1    
   132   67   69 1    
   133   67  143 1    
   134   68  144 1    
   135   68  145 1    
   136   68  146 1    
   137   69   70 am   BACKBONE|DICT|INTERRES
   138   69  147 1    
   139   70   71 2    
   140   70   72 1    
   141   72   73 1    
   142   72   74 1    
   143   72  148 1    
   144   73  149 1    
   145   73  150 1    
   146   73  151 1    
   147   74   75 am   BACKBONE|DICT|INTERRES
   148   74  152 1    
   149   75   76 2    
   150   75   77 1    
   151   77   78 1    
   152   77   79 1    
   153   77  153 1    
   154   78  154 1    
   155   78  155 1    
   156   78  156 1    
   157   79   80 am   BACKBONE|DICT|INTERRES
   158   79  157 1    
   159   80   81 2    
@<TRIPOS>SUBSTRUCTURE
     1 UNK         1 GROUP             0       ****    0 ROOT    
