@<TRIPOS>MOLECULE
3R207
157   159    1
SMALL
USER_CHARGES


@<TRIPOS>ATOM
      1 CA        -50.8949  -31.0545   10.1321 C.3       0 UNK        -0.1975 
      2 C         -49.7002  -30.8272    9.2220 C.2       0 UNK         0.4852 
      3 O         -48.7947  -31.6605    9.1848 O.2       0 UNK        -0.5216 
      4 N         -49.7071  -29.7146    8.4765 N.am      1 UNK        -0.4461 
      5 CA        -48.6759  -29.3589    7.4993 C.3       1 UNK         0.0864 
      6 C6        -49.1658  -28.2747    6.5114 C.3       14 UNK        -0.0898 
      7 S7        -50.5079  -28.9019    5.4512 S.3       14 UNK        -0.2598 
      8 C8        -51.5208  -27.4029    5.2094 C.3       14 UNK         0.0286 
      9 C9        -52.4703  -27.0341    6.3528 C.ar      14 UNK        -0.0844 
     10 C10       -52.9960  -25.7397    6.3736 C.ar      14 UNK        -0.0881 
     11 C11       -53.9225  -25.3488    7.3454 C.ar      14 UNK        -0.0643 
     12 C12       -54.3326  -26.2763    8.3090 C.ar      14 UNK        -0.0930 
     13 C13       -53.8268  -27.5809    8.3022 C.ar      14 UNK        -0.0827 
     14 C14       -52.8928  -27.9504    7.3262 C.ar      14 UNK        -0.1249 
     15 C15       -54.3403  -28.6150    9.2995 C.3       14 UNK         0.0141 
     16 S16       -53.9187  -28.1984   11.0241 S.3       14 UNK        -0.2313 
     17 C17       -53.8041  -29.8494   11.7989 C.3       14 UNK        -0.0915 
     18 CA        -54.9944  -30.1975   12.7269 C.3       13 UNK         0.0968 
     19 C         -54.9895  -31.7201   13.0666 C.2       13 UNK         0.5732 
     20 N         -54.7537  -32.1401   14.3049 N.am      13 UNK        -0.7310 
     21 O         -55.2128  -32.5413   12.1802 O.2       13 UNK        -0.5035 
     22 N         -55.0511  -29.3179   13.9054 N.am      13 UNK        -0.4233 
     23 C         -56.1275  -29.2108   14.6977 C.2       13 UNK         0.4989 
     24 O         -57.2209  -29.7081   14.4210 O.2       13 UNK        -0.4996 
     25 CA        -55.9672  -28.4329   16.0206 C.3       12 UNK         0.0216 
     26 CB        -56.9481  -28.9175   17.1095 C.3       12 UNK        -0.1964 
     27 N         -54.5975  -28.4030   16.5528 N.am      12 UNK        -0.4276 
     28 C         -53.8127  -29.4441   16.8780 C.2       12 UNK         0.5020 
     29 O         -54.1540  -30.6185   16.7296 O.2       12 UNK        -0.5489 
     30 CA        -52.4051  -29.1332   17.4291 C.3       11 UNK         0.0294 
     31 CB        -51.3469  -30.0716   16.8203 C.3       11 UNK        -0.2019 
     32 N         -52.0159  -27.7490   17.1522 N.am      11 UNK        -0.4493 
     33 C         -51.9842  -26.7481   18.0449 C.2       11 UNK         0.4932 
     34 O         -52.1702  -26.9015   19.2519 O.2       11 UNK        -0.5029 
     35 CA        -51.7462  -25.3234   17.4979 C.3       10 UNK         0.0280 
     36 CB        -50.2627  -24.9438   17.6234 C.3       10 UNK        -0.1976 
     37 N         -52.1745  -25.1543   16.1039 N.am      10 UNK        -0.4242 
     38 C         -53.4345  -25.3271   15.6703 C.2       10 UNK         0.5072 
     39 O         -54.3909  -25.4793   16.4297 O.2       10 UNK        -0.5224 
     40 CA        -53.6750  -25.4532   14.1532 C.3       9 UNK         0.0343 
     41 CB        -54.3690  -24.1954   13.6109 C.3       9 UNK        -0.2003 
     42 N         -52.4594  -25.7319   13.3812 N.am      9 UNK        -0.4272 
     43 C         -51.6960  -26.8297   13.5197 C.2       9 UNK         0.4988 
     44 O         -52.0167  -27.7758   14.2413 O.2       9 UNK        -0.5108 
     45 CA        -50.3284  -26.8726   12.8021 C.3       8 UNK         0.0248 
     46 CB        -50.3746  -27.8425   11.6135 C.3       8 UNK        -0.2001 
     47 N         -49.8379  -25.5716   12.3385 N.am      8 UNK        -0.4140 
     48 C         -49.6063  -24.5004   13.1152 C.2       8 UNK         0.5028 
     49 O         -49.6569  -24.5293   14.3454 O.2       8 UNK        -0.5428 
     50 CA        -49.3797  -23.1505   12.4001 C.3       7 UNK         0.0264 
     51 CB        -47.8856  -22.8054   12.3475 C.3       7 UNK        -0.1988 
     52 N         -49.9449  -23.0915   11.0437 N.am      7 UNK        -0.4454 
     53 C         -51.2331  -23.3294   10.7456 C.2       7 UNK         0.5027 
     54 O         -52.0981  -23.4706   11.6075 O.2       7 UNK        -0.5083 
     55 CA        -51.6378  -23.5160    9.2706 C.3       6 UNK         0.0844 
     56 C56       -52.6841  -22.4510    8.8605 C.3       14 UNK        -0.0967 
     57 S57       -53.2746  -22.6279    7.1448 S.3       14 UNK        -0.2604 
     58 C58       -54.5256  -23.9470    7.3149 C.3       14 UNK         0.0134 
     59 N         -50.5068  -23.5880    8.3437 N.am      6 UNK        -0.4116 
     60 C         -49.5737  -24.5483    8.2958 C.2       5 UNK         0.5034 
     61 O         -49.5202  -25.5082    9.0697 O.2       5 UNK        -0.5045 
     62 CA        -48.4932  -24.3890    7.2126 C.3       5 UNK         0.0224 
     63 CB        -48.9724  -23.5978    5.9752 C.3       5 UNK        -0.1978 
     64 N         -47.2401  -23.8200    7.7231 N.am      5 UNK        -0.4737 
     65 C         -47.0533  -22.6855    8.4169 C.2       4 UNK         0.5027 
     66 O         -47.9726  -21.9802    8.8347 O.2       4 UNK        -0.5211 
     67 CA        -45.5898  -22.2818    8.6888 C.3       4 UNK         0.0297 
     68 CB        -45.4366  -21.2836    9.8510 C.3       4 UNK        -0.1993 
     69 N         -44.7710  -23.4640    8.9577 N.am      4 UNK        -0.4486 
     70 C         -43.7774  -23.9240    8.1861 C.2       3 UNK         0.4961 
     71 O         -43.3373  -23.3320    7.2005 O.2       3 UNK        -0.5105 
     72 CA        -43.2008  -25.3064    8.5568 C.3       3 UNK         0.0299 
     73 CB        -41.9298  -25.1468    9.4064 C.3       3 UNK        -0.1972 
     74 N         -44.1521  -26.1777    9.2625 N.am      3 UNK        -0.4305 
     75 C         -45.3276  -26.5895    8.7649 C.2       2 UNK         0.5006 
     76 O         -45.7184  -26.3091    7.6288 O.2       2 UNK        -0.5106 
     77 CA        -46.2379  -27.3715    9.7308 C.3       2 UNK         0.0296 
     78 CB        -46.7132  -26.4636   10.8806 C.3       2 UNK        -0.2002 
     79 N         -47.4103  -27.9353    9.0538 N.am      2 UNK        -0.4032 
     80 C         -47.3561  -28.9550    8.1833 C.2       1 UNK         0.5000 
     81 O         -46.3252  -29.5806    7.9244 O.2       1 UNK        -0.5238 
     82 H82       -51.6010  -30.2291   10.0643 H         1 UNK         0.0889 
     83 H83       -50.5709  -31.1492   11.1680 H         1 UNK         0.0889 
     84 H84       -51.4143  -31.9702    9.8510 H         1 UNK         0.0889 
     85 H85       -50.4837  -29.0731    8.5414 H         1 UNK         0.3028 
     86 H86       -48.4559  -30.2562    6.9156 H         1 UNK         0.0864 
     87 H87       -49.5181  -27.3966    7.0531 H         1 UNK         0.0720 
     88 H88       -48.3548  -27.9402    5.8611 H         1 UNK         0.0720 
     89 H89       -52.1230  -27.5496    4.3118 H         1 UNK         0.0814 
     90 H90       -50.8546  -26.5657    4.9944 H         1 UNK         0.0814 
     91 H91       -52.6986  -25.0316    5.6121 H         1 UNK         0.1469 
     92 H92       -55.0646  -25.9940    9.0535 H         1 UNK         0.1381 
     93 H93       -52.5295  -28.9677    7.3047 H         1 UNK         0.1206 
     94 H94       -53.9426  -29.5975    9.0439 H         1 UNK         0.0813 
     95 H95       -55.4244  -28.6961    9.2113 H         1 UNK         0.0813 
     96 H96       -53.7103  -30.5989   11.0126 H         1 UNK         0.0638 
     97 H97       -52.8717  -29.8947   12.3634 H         1 UNK         0.0638 
     98 H98       -55.9081  -30.0302   12.1532 H         1 UNK         0.0568 
     99 H99       -54.5727  -31.4903   15.0650 H         1 UNK         0.3450 
    100 H100      -54.7616  -33.1295   14.4922 H         1 UNK         0.3450 
    101 H101      -54.1800  -28.8881   14.1851 H         1 UNK         0.2987 
    102 H102      -56.2243  -27.3992   15.7861 H         1 UNK         0.0766 
    103 H103      -56.7900  -29.9683   17.3552 H         1 UNK         0.0798 
    104 H104      -56.8396  -28.3386   18.0267 H         1 UNK         0.0798 
    105 H105      -57.9839  -28.8111   16.7845 H         1 UNK         0.0798 
    106 H106      -54.2357  -27.4684   16.7131 H         1 UNK         0.3198 
    107 H107      -52.4389  -29.3101   18.5060 H         1 UNK         0.0843 
    108 H108      -51.5585  -31.1137   17.0634 H         1 UNK         0.0831 
    109 H109      -50.3513  -29.8480   17.2036 H         1 UNK         0.0831 
    110 H110      -51.3140  -29.9908   15.7330 H         1 UNK         0.0831 
    111 H111      -51.8657  -27.5392   16.1686 H         1 UNK         0.3133 
    112 H112      -52.3302  -24.6330   18.1099 H         1 UNK         0.0566 
    113 H113      -50.0872  -23.9162   17.3042 H         1 UNK         0.0814 
    114 H114      -49.9237  -25.0247   18.6571 H         1 UNK         0.0814 
    115 H115      -49.6281  -25.5935   17.0189 H         1 UNK         0.0814 
    116 H116      -51.4375  -25.0078   15.4210 H         1 UNK         0.3091 
    117 H117      -54.3505  -26.2978   14.0037 H         1 UNK         0.0702 
    118 H118      -54.6014  -24.2971   12.5506 H         1 UNK         0.0785 
    119 H119      -53.7483  -23.3075   13.7366 H         1 UNK         0.0785 
    120 H120      -55.3097  -24.0121   14.1320 H         1 UNK         0.0785 
    121 H121      -52.1592  -24.9928   12.7511 H         1 UNK         0.2998 
    122 H122      -49.6063  -27.2546   13.5263 H         1 UNK         0.0697 
    123 H123      -51.0098  -27.4681   10.8096 H         1 UNK         0.0825 
    124 H124      -50.7692  -28.8083   11.9262 H         1 UNK         0.0825 
    125 H125      -49.3833  -28.0230   11.2022 H         1 UNK         0.0825 
    126 H126      -49.7767  -25.4501   11.3348 H         1 UNK         0.3029 
    127 H127      -49.8853  -22.3885   12.9969 H         1 UNK         0.0897 
    128 H128      -47.7364  -21.7923   11.9743 H         1 UNK         0.0792 
    129 H129      -47.4362  -22.8527   13.3405 H         1 UNK         0.0792 
    130 H130      -47.3332  -23.4898   11.7040 H         1 UNK         0.0792 
    131 H131      -49.2983  -22.9211   10.2808 H         1 UNK         0.3086 
    132 H132      -52.1242  -24.4917    9.2332 H         1 UNK         0.0583 
    133 H133      -53.5480  -22.4808    9.5280 H         1 UNK         0.1020 
    134 H134      -52.2628  -21.4491    8.9646 H         1 UNK         0.1020 
    135 H135      -55.1322  -23.7604    8.2024 H         1 UNK         0.0694 
    136 H136      -55.2047  -23.8882    6.4635 H         1 UNK         0.0694 
    137 H137      -50.4346  -22.8273    7.6844 H         1 UNK         0.2989 
    138 H138      -48.2520  -25.3984    6.8783 H         1 UNK         0.1055 
    139 H139      -48.2455  -23.6678    5.1659 H         1 UNK         0.0806 
    140 H140      -49.1187  -22.5385    6.1892 H         1 UNK         0.0806 
    141 H141      -49.9139  -23.9942    5.5914 H         1 UNK         0.0806 
    142 H142      -46.4200  -24.3800    7.5116 H         1 UNK         0.3061 
    143 H143      -45.2477  -21.7826    7.7799 H         1 UNK         0.0734 
    144 H144      -46.0664  -20.4044    9.7082 H         1 UNK         0.0832 
    145 H145      -45.7025  -21.7309   10.8072 H         1 UNK         0.0832 
    146 H146      -44.4082  -20.9306    9.9281 H         1 UNK         0.0832 
    147 H147      -45.0551  -24.0318    9.7425 H         1 UNK         0.3156 
    148 H148      -42.9283  -25.8054    7.6244 H         1 UNK         0.0589 
    149 H149      -42.1410  -24.6745   10.3667 H         1 UNK         0.0808 
    150 H150      -41.4571  -26.1098    9.6007 H         1 UNK         0.0808 
    151 H151      -41.1936  -24.5257    8.8937 H         1 UNK         0.0808 
    152 H152      -43.8977  -26.4553   10.2002 H         1 UNK         0.3098 
    153 H153      -45.6553  -28.1937   10.1516 H         1 UNK         0.0720 
    154 H154      -47.3142  -27.0178   11.6004 H         1 UNK         0.0791 
    155 H155      -47.3097  -25.6287   10.5137 H         1 UNK         0.0791 
    156 H156      -45.8743  -26.0445   11.4370 H         1 UNK         0.0791 
    157 H157      -48.2804  -27.4307    9.1639 H         1 UNK         0.3028 
@<TRIPOS>BOND
     1    1    2 1    
     2    1   82 1    
     3    1   83 1    
     4    1   84 1    
     5    2    3 2    
     6    2    4 am   BACKBONE|DICT|INTERRES
     7    4    5 1    
     8    4   85 1    
     9    5    6 1    
    10    5   80 1    
    11    5   86 1    
    12    6    7 1    
    13    6   87 1    
    14    6   88 1    
    15    7    8 1    
    16    8    9 1    
    17    8   89 1    
    18    8   90 1    
    19    9   10 ar   
    20    9   14 ar   
    21   10   11 ar   
    22   10   91 1    
    23   11   12 ar   
    24   11   58 1    
    25   12   13 ar   
    26   12   92 1    
    27   13   14 ar   
    28   13   15 1    
    29   14   93 1    
    30   15   16 1    
    31   15   94 1    
    32   15   95 1    
    33   16   17 1    
    34   17   18 1    
    35   17   96 1    
    36   17   97 1    
    37   18   19 1    
    38   18   22 1    
    39   18   98 1    
    40   19   20 am   BACKBONE|DICT|INTERRES
    41   19   21 2    
    42   20   99 1    
    43   20  100 1    
    44   22   23 am   BACKBONE|DICT|INTERRES
    45   22  101 1    
    46   23   24 2    
    47   23   25 1    
    48   25   26 1    
    49   25   27 1    
    50   25  102 1    
    51   26  103 1    
    52   26  104 1    
    53   26  105 1    
    54   27   28 am   BACKBONE|DICT|INTERRES
    55   27  106 1    
    56   28   29 2    
    57   28   30 1    
    58   30   31 1    
    59   30   32 1    
    60   30  107 1    
    61   31  108 1    
    62   31  109 1    
    63   31  110 1    
    64   32   33 am   BACKBONE|DICT|INTERRES
    65   32  111 1    
    66   33   34 2    
    67   33   35 1    
    68   35   36 1    
    69   35   37 1    
    70   35  112 1    
    71   36  113 1    
    72   36  114 1    
    73   36  115 1    
    74   37   38 am   BACKBONE|DICT|INTERRES
    75   37  116 1    
    76   38   39 2    
    77   38   40 1    
    78   40   41 1    
    79   40   42 1    
    80   40  117 1    
    81   41  118 1    
    82   41  119 1    
    83   41  120 1    
    84   42   43 am   BACKBONE|DICT|INTERRES
    85   42  121 1    
    86   43   44 2    
    87   43   45 1    
    88   45   46 1    
    89   45   47 1    
    90   45  122 1    
    91   46  123 1    
    92   46  124 1    
    93   46  125 1    
    94   47   48 am   BACKBONE|DICT|INTERRES
    95   47  126 1    
    96   48   49 2    
    97   48   50 1    
    98   50   51 1    
    99   50   52 1    
   100   50  127 1    
   101   51  128 1    
   102   51  129 1    
   103   51  130 1    
   104   52   53 am   BACKBONE|DICT|INTERRES
   105   52  131 1    
   106   53   54 2    
   107   53   55 1    
   108   55   56 1    
   109   55   59 1    
   110   55  132 1    
   111   56   57 1    
   112   56  133 1    
   113   56  134 1    
   114   57   58 1    
   115   58  135 1    
   116   58  136 1    
   117   59   60 am   BACKBONE|DICT|INTERRES
   118   59  137 1    
   119   60   61 2    
   120   60   62 1    
   121   62   63 1    
   122   62   64 1    
   123   62  138 1    
   124   63  139 1    
   125   63  140 1    
   126   63  141 1    
   127   64   65 am   BACKBONE|DICT|INTERRES
   128   64  142 1    
   129   65   66 2    
   130   65   67 1    
   131   67   68 1    
   132   67   69 1    
   133   67  143 1    
   134   68  144 1    
   135   68  145 1    
   136   68  146 1    
   137   69   70 am   BACKBONE|DICT|INTERRES
   138   69  147 1    
   139   70   71 2    
   140   70   72 1    
   141   72   73 1    
   142   72   74 1    
   143   72  148 1    
   144   73  149 1    
   145   73  150 1    
   146   73  151 1    
   147   74   75 am   BACKBONE|DICT|INTERRES
   148   74  152 1    
   149   75   76 2    
   150   75   77 1    
   151   77   78 1    
   152   77   79 1    
   153   77  153 1    
   154   78  154 1    
   155   78  155 1    
   156   78  156 1    
   157   79   80 am   BACKBONE|DICT|INTERRES
   158   79  157 1    
   159   80   81 2    
@<TRIPOS>SUBSTRUCTURE
     1 UNK         1 GROUP             0       ****    0 ROOT    
