@<TRIPOS>MOLECULE
3R207
157   159    1
SMALL
USER_CHARGES


@<TRIPOS>ATOM
      1 CA        -48.7820  -31.3946    4.1868 C.3       0 UNK        -0.1975 
      2 C         -48.9507  -29.8958    4.3879 C.2       0 UNK         0.4852 
      3 O         -48.4275  -29.3599    5.3633 O.2       0 UNK        -0.5216 
      4 N         -49.6810  -29.2392    3.4729 N.am      1 UNK        -0.4461 
      5 CA        -49.9966  -27.8025    3.4141 C.3       1 UNK         0.0864 
      6 C6        -51.1804  -27.3797    4.3412 C.3       14 UNK        -0.0898 
      7 S7        -50.8306  -27.2919    6.1367 S.3       14 UNK        -0.2598 
      8 C8        -51.6865  -28.7948    6.6969 C.3       14 UNK         0.0286 
      9 C9        -51.4607  -29.0766    8.1740 C.ar      14 UNK        -0.0844 
     10 C10       -50.2817  -29.6978    8.5989 C.ar      14 UNK        -0.0881 
     11 C11       -50.1042  -30.0492    9.9418 C.ar      14 UNK        -0.0643 
     12 C12       -51.1243  -29.7738   10.8588 C.ar      14 UNK        -0.0930 
     13 C13       -52.3008  -29.1402   10.4482 C.ar      14 UNK        -0.0827 
     14 C14       -52.4586  -28.7817    9.1070 C.ar      14 UNK        -0.1249 
     15 C15       -53.4094  -28.8680   11.4512 C.3       14 UNK         0.0141 
     16 S16       -54.7871  -30.0372   11.2411 S.3       14 UNK        -0.2313 
     17 C17       -55.5880  -29.9810   12.8786 C.3       14 UNK        -0.0915 
     18 CA        -56.7115  -28.9152   12.9719 C.3       13 UNK         0.0968 
     19 C         -57.6335  -29.1690   14.2019 C.2       13 UNK         0.5732 
     20 N         -57.7905  -28.2434   15.1415 N.am      13 UNK        -0.7310 
     21 O         -58.2390  -30.2340   14.2996 O.2       13 UNK        -0.5035 
     22 N         -56.1629  -27.5529   12.9121 N.am      13 UNK        -0.4233 
     23 C         -56.8298  -26.4826   12.4635 C.2       13 UNK         0.4989 
     24 O         -57.9460  -26.5469   11.9441 O.2       13 UNK        -0.4996 
     25 CA        -56.1394  -25.1102   12.6224 C.3       12 UNK         0.0216 
     26 CB        -57.1436  -23.9382   12.6181 C.3       12 UNK        -0.1964 
     27 N         -55.2556  -25.0140   13.7915 N.am      12 UNK        -0.4276 
     28 C         -55.5685  -25.2313   15.0767 C.2       12 UNK         0.5020 
     29 O         -56.6835  -25.5777   15.4732 O.2       12 UNK        -0.5489 
     30 CA        -54.4156  -25.0625   16.0826 C.3       11 UNK         0.0294 
     31 CB        -54.9145  -24.4558   17.4061 C.3       11 UNK        -0.2019 
     32 N         -53.6533  -26.2817   16.3863 N.am      11 UNK        -0.4493 
     33 C         -53.3268  -27.3097   15.5868 C.2       11 UNK         0.4932 
     34 O         -53.7489  -27.4855   14.4447 O.2       11 UNK        -0.5029 
     35 CA        -52.2780  -28.2708   16.1647 C.3       10 UNK         0.0280 
     36 CB        -52.0901  -29.5468   15.3243 C.3       10 UNK        -0.1976 
     37 N         -51.0088  -27.5518   16.2241 N.am      10 UNK        -0.4242 
     38 C         -50.5485  -26.8998   17.2978 C.2       10 UNK         0.5072 
     39 O         -51.0839  -26.9385   18.4067 O.2       10 UNK        -0.5224 
     40 CA        -49.3146  -26.0113   17.0816 C.3       9 UNK         0.0343 
     41 CB        -48.0512  -26.8644   16.8811 C.3       9 UNK        -0.2003 
     42 N         -49.4798  -25.0854   15.9562 N.am      9 UNK        -0.4272 
     43 C         -50.3811  -24.0908   15.9093 C.2       9 UNK         0.4988 
     44 O         -51.1634  -23.8299   16.8235 O.2       9 UNK        -0.5108 
     45 CA        -50.4111  -23.2273   14.6381 C.3       8 UNK         0.0248 
     46 CB        -49.2660  -22.2019   14.6532 C.3       8 UNK        -0.2001 
     47 N         -50.3434  -24.0344   13.4199 N.am      8 UNK        -0.4140 
     48 C         -51.3716  -24.7288   12.9130 C.2       8 UNK         0.5028 
     49 O         -52.5229  -24.6513   13.3412 O.2       8 UNK        -0.5428 
     50 CA        -51.0830  -25.6728   11.7318 C.3       7 UNK         0.0264 
     51 CB        -51.3692  -24.9818   10.3904 C.3       7 UNK        -0.1988 
     52 N         -49.7212  -26.2096   11.7182 N.am      7 UNK        -0.4454 
     53 C         -49.2137  -27.0267   12.6523 C.2       7 UNK         0.5027 
     54 O         -49.8368  -27.4135   13.6419 O.2       7 UNK        -0.5083 
     55 CA        -47.7334  -27.4209   12.4844 C.3       6 UNK         0.0844 
     56 C56       -47.5303  -28.5046   11.3974 C.3       14 UNK        -0.0967 
     57 S57       -48.1007  -30.1536   11.9209 S.3       14 UNK        -0.2604 
     58 C58       -48.8383  -30.7849   10.3747 C.3       14 UNK         0.0134 
     59 N         -46.9073  -26.2411   12.2208 N.am      6 UNK        -0.4116 
     60 C         -46.6795  -25.2479   13.0908 C.2       5 UNK         0.5034 
     61 O         -47.1152  -25.2263   14.2407 O.2       5 UNK        -0.5045 
     62 CA        -45.8628  -24.0528   12.5716 C.3       5 UNK         0.0224 
     63 CB        -44.3564  -24.3439   12.6598 C.3       5 UNK        -0.1978 
     64 N         -46.2150  -23.6831   11.1974 N.am      5 UNK        -0.4737 
     65 C         -47.4093  -23.1929   10.8369 C.2       4 UNK         0.5027 
     66 O         -48.3182  -22.9612   11.6307 O.2       4 UNK        -0.5211 
     67 CA        -47.6495  -22.9688    9.3360 C.3       4 UNK         0.0297 
     68 CB        -47.1296  -21.5885    8.9056 C.3       4 UNK        -0.1993 
     69 N         -47.0678  -24.0028    8.4745 N.am      4 UNK        -0.4486 
     70 C         -47.3218  -25.3162    8.5472 C.2       3 UNK         0.4961 
     71 O         -48.0326  -25.8291    9.4128 O.2       3 UNK        -0.5105 
     72 CA        -46.6933  -26.1848    7.4441 C.3       3 UNK         0.0299 
     73 CB        -46.8166  -27.6900    7.7373 C.3       3 UNK        -0.1972 
     74 N         -47.3280  -25.8949    6.1585 N.am      3 UNK        -0.4305 
     75 C         -47.0556  -24.8351    5.3827 C.2       2 UNK         0.5006 
     76 O         -46.1632  -24.0259    5.6454 O.2       2 UNK        -0.5106 
     77 CA        -47.9541  -24.5810    4.1555 C.3       2 UNK         0.0296 
     78 CB        -47.1381  -24.2443    2.8889 C.3       2 UNK        -0.2002 
     79 N         -48.9507  -25.6330    3.9111 N.am      2 UNK        -0.4032 
     80 C         -48.7518  -26.8805    3.4581 C.2       1 UNK         0.5000 
     81 O         -47.6609  -27.3011    3.0638 O.2       1 UNK        -0.5238 
     82 H82       -47.7257  -31.6410    4.0828 H         1 UNK         0.0889 
     83 H83       -49.3029  -31.7507    3.2982 H         1 UNK         0.0889 
     84 H84       -49.1745  -31.9335    5.0487 H         1 UNK         0.0889 
     85 H85       -50.0405  -29.7702    2.6922 H         1 UNK         0.3028 
     86 H86       -50.3655  -27.6676    2.3960 H         1 UNK         0.0864 
     87 H87       -51.5639  -26.4051    4.0348 H         1 UNK         0.0720 
     88 H88       -52.0181  -28.0591    4.1767 H         1 UNK         0.0720 
     89 H89       -51.3425  -29.6489    6.1127 H         1 UNK         0.0814 
     90 H90       -52.7532  -28.6955    6.4897 H         1 UNK         0.0814 
     91 H91       -49.5139  -29.9289    7.8723 H         1 UNK         0.1469 
     92 H92       -51.0041  -30.0617   11.8941 H         1 UNK         0.1381 
     93 H93       -53.3761  -28.3077    8.7855 H         1 UNK         0.1206 
     94 H94       -53.7761  -27.8474   11.3361 H         1 UNK         0.0813 
     95 H95       -53.0149  -28.9444   12.4625 H         1 UNK         0.0813 
     96 H96       -54.8410  -29.8289   13.6576 H         1 UNK         0.0638 
     97 H97       -55.9929  -30.9801   13.0493 H         1 UNK         0.0638 
     98 H98       -57.3574  -29.0547   12.1031 H         1 UNK         0.0568 
     99 H99       -58.4003  -28.4391   15.9185 H         1 UNK         0.3450 
    100 H100      -57.3232  -27.3422   15.0898 H         1 UNK         0.3450 
    101 H101      -55.2674  -27.4187   13.3775 H         1 UNK         0.2987 
    102 H102      -55.4943  -24.9981   11.7498 H         1 UNK         0.0766 
    103 H103      -56.6335  -22.9787   12.7033 H         1 UNK         0.0798 
    104 H104      -57.8541  -24.0148   13.4421 H         1 UNK         0.0798 
    105 H105      -57.7191  -23.9150   11.6919 H         1 UNK         0.0798 
    106 H106      -54.2695  -24.8340   13.5846 H         1 UNK         0.3198 
    107 H107      -53.7079  -24.3507   15.6550 H         1 UNK         0.0843 
    108 H108      -55.5571  -25.1492   17.9501 H         1 UNK         0.0831 
    109 H109      -55.4922  -23.5479   17.2271 H         1 UNK         0.0831 
    110 H110      -54.0827  -24.1846   18.0568 H         1 UNK         0.0831 
    111 H111      -53.1995  -26.2744   17.2899 H         1 UNK         0.3133 
    112 H112      -52.6039  -28.5714   17.1626 H         1 UNK         0.0566 
    113 H113      -51.3802  -30.2258   15.7964 H         1 UNK         0.0814 
    114 H114      -53.0306  -30.0866   15.2140 H         1 UNK         0.0814 
    115 H115      -51.7149  -29.3221   14.3261 H         1 UNK         0.0814 
    116 H116      -50.5296  -27.4298   15.3317 H         1 UNK         0.3091 
    117 H117      -49.1762  -25.4126   17.9842 H         1 UNK         0.0702 
    118 H118      -47.1573  -26.2418   16.8416 H         1 UNK         0.0785 
    119 H119      -48.0946  -27.4430   15.9576 H         1 UNK         0.0785 
    120 H120      -47.9190  -27.5684   17.7037 H         1 UNK         0.0785 
    121 H121      -48.8306  -25.1983   15.1831 H         1 UNK         0.2998 
    122 H122      -51.3533  -22.6749   14.6329 H         1 UNK         0.0697 
    123 H123      -48.2885  -22.6841   14.6243 H         1 UNK         0.0825 
    124 H124      -49.3022  -21.5884   15.5544 H         1 UNK         0.0825 
    125 H125      -49.3296  -21.5269   13.7995 H         1 UNK         0.0825 
    126 H126      -49.4570  -24.0484   12.9266 H         1 UNK         0.3029 
    127 H127      -51.7630  -26.5198   11.8324 H         1 UNK         0.0897 
    128 H128      -51.2471  -25.6738    9.5560 H         1 UNK         0.0792 
    129 H129      -50.7021  -24.1353   10.2254 H         1 UNK         0.0792 
    130 H130      -52.3929  -24.6067   10.3549 H         1 UNK         0.0792 
    131 H131      -49.1377  -25.9643   10.9201 H         1 UNK         0.3086 
    132 H132      -47.3943  -27.8326   13.4377 H         1 UNK         0.0583 
    133 H133      -48.0234  -28.2194   10.4669 H         1 UNK         0.1020 
    134 H134      -46.4700  -28.5987   11.1582 H         1 UNK         0.1020 
    135 H135      -48.0818  -30.7464    9.5890 H         1 UNK         0.0694 
    136 H136      -49.0843  -31.8383   10.5135 H         1 UNK         0.0694 
    137 H137      -46.5827  -26.1256   11.2720 H         1 UNK         0.2989 
    138 H138      -46.0849  -23.2002   13.2176 H         1 UNK         0.1055 
    139 H139      -44.0700  -24.6066   13.6794 H         1 UNK         0.0806 
    140 H140      -43.7669  -23.4721   12.3751 H         1 UNK         0.0806 
    141 H141      -44.0629  -25.1733   12.0151 H         1 UNK         0.0806 
    142 H142      -45.5224  -23.8395   10.4790 H         1 UNK         0.3061 
    143 H143      -48.7292  -22.9892    9.1754 H         1 UNK         0.0734 
    144 H144      -47.3891  -21.3716    7.8692 H         1 UNK         0.0832 
    145 H145      -47.5662  -20.7989    9.5191 H         1 UNK         0.0832 
    146 H146      -46.0458  -21.5156    9.0032 H         1 UNK         0.0832 
    147 H147      -46.5076  -23.6861    7.6901 H         1 UNK         0.3156 
    148 H148      -45.6303  -25.9420    7.3859 H         1 UNK         0.0589 
    149 H149      -47.8588  -28.0000    7.8277 H         1 UNK         0.0808 
    150 H150      -46.3618  -28.2858    6.9458 H         1 UNK         0.0808 
    151 H151      -46.3110  -27.9499    8.6671 H         1 UNK         0.0808 
    152 H152      -48.0885  -26.5061    5.8928 H         1 UNK         0.3098 
    153 H153      -48.5344  -23.6915    4.4049 H         1 UNK         0.0720 
    154 H154      -47.7878  -24.0659    2.0322 H         1 UNK         0.0791 
    155 H155      -46.4432  -25.0419    2.6255 H         1 UNK         0.0791 
    156 H156      -46.5451  -23.3410    3.0376 H         1 UNK         0.0791 
    157 H157      -49.8877  -25.4038    4.2144 H         1 UNK         0.3028 
@<TRIPOS>BOND
     1    1    2 1    
     2    1   82 1    
     3    1   83 1    
     4    1   84 1    
     5    2    3 2    
     6    2    4 am   BACKBONE|DICT|INTERRES
     7    4    5 1    
     8    4   85 1    
     9    5    6 1    
    10    5   80 1    
    11    5   86 1    
    12    6    7 1    
    13    6   87 1    
    14    6   88 1    
    15    7    8 1    
    16    8    9 1    
    17    8   89 1    
    18    8   90 1    
    19    9   10 ar   
    20    9   14 ar   
    21   10   11 ar   
    22   10   91 1    
    23   11   12 ar   
    24   11   58 1    
    25   12   13 ar   
    26   12   92 1    
    27   13   14 ar   
    28   13   15 1    
    29   14   93 1    
    30   15   16 1    
    31   15   94 1    
    32   15   95 1    
    33   16   17 1    
    34   17   18 1    
    35   17   96 1    
    36   17   97 1    
    37   18   19 1    
    38   18   22 1    
    39   18   98 1    
    40   19   20 am   BACKBONE|DICT|INTERRES
    41   19   21 2    
    42   20   99 1    
    43   20  100 1    
    44   22   23 am   BACKBONE|DICT|INTERRES
    45   22  101 1    
    46   23   24 2    
    47   23   25 1    
    48   25   26 1    
    49   25   27 1    
    50   25  102 1    
    51   26  103 1    
    52   26  104 1    
    53   26  105 1    
    54   27   28 am   BACKBONE|DICT|INTERRES
    55   27  106 1    
    56   28   29 2    
    57   28   30 1    
    58   30   31 1    
    59   30   32 1    
    60   30  107 1    
    61   31  108 1    
    62   31  109 1    
    63   31  110 1    
    64   32   33 am   BACKBONE|DICT|INTERRES
    65   32  111 1    
    66   33   34 2    
    67   33   35 1    
    68   35   36 1    
    69   35   37 1    
    70   35  112 1    
    71   36  113 1    
    72   36  114 1    
    73   36  115 1    
    74   37   38 am   BACKBONE|DICT|INTERRES
    75   37  116 1    
    76   38   39 2    
    77   38   40 1    
    78   40   41 1    
    79   40   42 1    
    80   40  117 1    
    81   41  118 1    
    82   41  119 1    
    83   41  120 1    
    84   42   43 am   BACKBONE|DICT|INTERRES
    85   42  121 1    
    86   43   44 2    
    87   43   45 1    
    88   45   46 1    
    89   45   47 1    
    90   45  122 1    
    91   46  123 1    
    92   46  124 1    
    93   46  125 1    
    94   47   48 am   BACKBONE|DICT|INTERRES
    95   47  126 1    
    96   48   49 2    
    97   48   50 1    
    98   50   51 1    
    99   50   52 1    
   100   50  127 1    
   101   51  128 1    
   102   51  129 1    
   103   51  130 1    
   104   52   53 am   BACKBONE|DICT|INTERRES
   105   52  131 1    
   106   53   54 2    
   107   53   55 1    
   108   55   56 1    
   109   55   59 1    
   110   55  132 1    
   111   56   57 1    
   112   56  133 1    
   113   56  134 1    
   114   57   58 1    
   115   58  135 1    
   116   58  136 1    
   117   59   60 am   BACKBONE|DICT|INTERRES
   118   59  137 1    
   119   60   61 2    
   120   60   62 1    
   121   62   63 1    
   122   62   64 1    
   123   62  138 1    
   124   63  139 1    
   125   63  140 1    
   126   63  141 1    
   127   64   65 am   BACKBONE|DICT|INTERRES
   128   64  142 1    
   129   65   66 2    
   130   65   67 1    
   131   67   68 1    
   132   67   69 1    
   133   67  143 1    
   134   68  144 1    
   135   68  145 1    
   136   68  146 1    
   137   69   70 am   BACKBONE|DICT|INTERRES
   138   69  147 1    
   139   70   71 2    
   140   70   72 1    
   141   72   73 1    
   142   72   74 1    
   143   72  148 1    
   144   73  149 1    
   145   73  150 1    
   146   73  151 1    
   147   74   75 am   BACKBONE|DICT|INTERRES
   148   74  152 1    
   149   75   76 2    
   150   75   77 1    
   151   77   78 1    
   152   77   79 1    
   153   77  153 1    
   154   78  154 1    
   155   78  155 1    
   156   78  156 1    
   157   79   80 am   BACKBONE|DICT|INTERRES
   158   79  157 1    
   159   80   81 2    
@<TRIPOS>SUBSTRUCTURE
     1 UNK         1 GROUP             0       ****    0 ROOT    
