@<TRIPOS>MOLECULE
3R207
157   159    1
SMALL
USER_CHARGES


@<TRIPOS>ATOM
      1 CA        -47.3604  -32.3133    4.5749 C.3       0 UNK        -0.1975 
      2 C         -47.9858  -31.0155    5.0624 C.2       0 UNK         0.4852 
      3 O         -47.8857  -30.7011    6.2484 O.2       0 UNK        -0.5216 
      4 N         -48.6214  -30.2610    4.1541 N.am      1 UNK        -0.4461 
      5 CA        -49.3345  -28.9867    4.3526 C.3       1 UNK         0.0864 
      6 C6        -50.5295  -29.0644    5.3407 C.3       14 UNK        -0.0898 
      7 S7        -51.8234  -30.2517    4.8361 S.3       14 UNK        -0.2598 
      8 C8        -51.6321  -31.6133    6.0360 C.3       14 UNK         0.0286 
      9 C9        -51.8838  -31.1703    7.4715 C.ar      14 UNK        -0.0844 
     10 C10       -50.8046  -30.9455    8.3300 C.ar      14 UNK        -0.0881 
     11 C11       -51.0135  -30.5024    9.6375 C.ar      14 UNK        -0.0643 
     12 C12       -52.3180  -30.3258   10.1023 C.ar      14 UNK        -0.0930 
     13 C13       -53.4091  -30.5667    9.2622 C.ar      14 UNK        -0.0827 
     14 C14       -53.1869  -30.9848    7.9450 C.ar      14 UNK        -0.1249 
     15 C15       -54.8240  -30.3738    9.7845 C.3       14 UNK         0.0141 
     16 S16       -55.2403  -28.6102    9.9267 S.3       14 UNK        -0.2313 
     17 C17       -56.9917  -28.7372   10.4101 C.3       14 UNK        -0.0915 
     18 CA        -57.5613  -27.3876   10.9138 C.3       13 UNK         0.0968 
     19 C         -59.1038  -27.4689   11.0776 C.2       13 UNK         0.5732 
     20 N         -59.8540  -27.1954   10.0189 N.am      13 UNK        -0.7310 
     21 O         -59.6240  -27.8146   12.1375 O.2       13 UNK        -0.5035 
     22 N         -56.8945  -26.9525   12.1479 N.am      13 UNK        -0.4233 
     23 C         -56.9826  -25.7307   12.6802 C.2       13 UNK         0.4989 
     24 O         -57.5596  -24.7910   12.1309 O.2       13 UNK        -0.4996 
     25 CA        -56.3149  -25.4879   14.0481 C.3       12 UNK         0.0216 
     26 CB        -57.3321  -25.6812   15.1899 C.3       12 UNK        -0.1964 
     27 N         -55.0781  -26.2418   14.3131 N.am      12 UNK        -0.4276 
     28 C         -54.8964  -27.5631   14.4653 C.2       12 UNK         0.5020 
     29 O         -55.7802  -28.4037   14.2955 O.2       12 UNK        -0.5489 
     30 CA        -53.4828  -28.0321   14.8603 C.3       11 UNK         0.0294 
     31 CB        -52.7342  -28.5485   13.6231 C.3       11 UNK        -0.2019 
     32 N         -52.6858  -26.9907   15.5219 N.am      11 UNK        -0.4493 
     33 C         -52.9285  -26.5372   16.7622 C.2       11 UNK         0.4932 
     34 O         -53.8110  -26.9952   17.4904 O.2       11 UNK        -0.5029 
     35 CA        -52.0667  -25.3589   17.2530 C.3       10 UNK         0.0280 
     36 CB        -52.2286  -25.0690   18.7610 C.3       10 UNK        -0.1976 
     37 N         -50.6530  -25.4838   16.8881 N.am      10 UNK        -0.4242 
     38 C         -49.7801  -26.4209   17.2909 C.2       10 UNK         0.5072 
     39 O         -50.0686  -27.3384   18.0608 O.2       10 UNK        -0.5224 
     40 CA        -48.3361  -26.3406   16.7509 C.3       9 UNK         0.0343 
     41 CB        -48.0162  -27.5745   15.8899 C.3       9 UNK        -0.2003 
     42 N         -48.0562  -25.1332   15.9685 N.am      9 UNK        -0.4272 
     43 C         -47.8937  -23.9002   16.4680 C.2       9 UNK         0.4988 
     44 O         -47.8711  -23.6465   17.6725 O.2       9 UNK        -0.5108 
     45 CA        -47.7919  -22.7482   15.4496 C.3       8 UNK         0.0248 
     46 CB        -46.3370  -22.5440   14.9987 C.3       8 UNK        -0.2001 
     47 N         -48.6598  -22.9308   14.2778 N.am      8 UNK        -0.4140 
     48 C         -49.9995  -23.0036   14.3350 C.2       8 UNK         0.5028 
     49 O         -50.6443  -22.8850   15.3762 O.2       8 UNK        -0.5428 
     50 CA        -50.7506  -23.3179   13.0319 C.3       7 UNK         0.0264 
     51 CB        -50.8602  -22.0656   12.1481 C.3       7 UNK        -0.1988 
     52 N         -50.1346  -24.4158   12.2837 N.am      7 UNK        -0.4454 
     53 C         -50.0632  -25.6843   12.7154 C.2       7 UNK         0.5027 
     54 O         -50.6077  -26.0758   13.7494 O.2       7 UNK        -0.5083 
     55 CA        -49.1938  -26.6680   11.9018 C.3       6 UNK         0.0844 
     56 C56       -49.9920  -27.3751   10.7826 C.3       14 UNK        -0.0967 
     57 S57       -48.9820  -28.6787    9.9953 S.3       14 UNK        -0.2604 
     58 C58       -49.8208  -30.2017   10.5294 C.3       14 UNK         0.0134 
     59 N         -47.9772  -26.0294   11.3909 N.am      6 UNK        -0.4116 
     60 C         -46.9795  -25.5712   12.1568 C.2       5 UNK         0.5034 
     61 O         -46.9623  -25.6553   13.3831 O.2       5 UNK        -0.5045 
     62 CA        -45.8298  -24.8548   11.4368 C.3       5 UNK         0.0224 
     63 CB        -44.8226  -25.8657   10.8654 C.3       5 UNK        -0.1978 
     64 N         -46.3248  -23.9815   10.3715 N.am      5 UNK        -0.4737 
     65 C         -46.9724  -22.8288   10.5891 C.2       4 UNK         0.5027 
     66 O         -47.1870  -22.3682   11.7106 O.2       4 UNK        -0.5211 
     67 CA        -47.5004  -22.0856    9.3497 C.3       4 UNK         0.0297 
     68 CB        -46.3876  -21.2393    8.7118 C.3       4 UNK        -0.1993 
     69 N         -48.0763  -22.9837    8.3437 N.am      4 UNK        -0.4486 
     70 C         -49.1785  -23.7204    8.5392 C.2       3 UNK         0.4961 
     71 O         -49.8312  -23.7107    9.5801 O.2       3 UNK        -0.5105 
     72 CA        -49.6138  -24.6591    7.4040 C.3       3 UNK         0.0299 
     73 CB        -50.4620  -23.9003    6.3717 C.3       3 UNK        -0.1972 
     74 N         -48.5267  -25.3641    6.7188 N.am      3 UNK        -0.4305 
     75 C         -47.5513  -26.0822    7.2928 C.2       2 UNK         0.5006 
     76 O         -47.3358  -26.1019    8.5055 O.2       2 UNK        -0.5106 
     77 CA        -46.7063  -26.9514    6.3413 C.3       2 UNK         0.0296 
     78 CB        -45.5231  -27.6278    7.0582 C.3       2 UNK        -0.2002 
     79 N         -47.5353  -27.9864    5.7182 N.am      2 UNK        -0.4032 
     80 C         -48.4182  -27.8016    4.7284 C.2       1 UNK         0.5000 
     81 O         -48.5531  -26.7254    4.1413 O.2       1 UNK        -0.5238 
     82 H82       -46.2856  -32.3012    4.7537 H         1 UNK         0.0889 
     83 H83       -47.5262  -32.4728    3.5096 H         1 UNK         0.0889 
     84 H84       -47.7863  -33.1587    5.1146 H         1 UNK         0.0889 
     85 H85       -48.6320  -30.5873    3.1975 H         1 UNK         0.3028 
     86 H86       -49.7467  -28.7401    3.3726 H         1 UNK         0.0864 
     87 H87       -50.1781  -29.2853    6.3469 H         1 UNK         0.0720 
     88 H88       -51.0179  -28.0905    5.4141 H         1 UNK         0.0720 
     89 H89       -50.6361  -32.0458    5.9356 H         1 UNK         0.0814 
     90 H90       -52.3323  -32.4088    5.7774 H         1 UNK         0.0814 
     91 H91       -49.7928  -31.0815    7.9729 H         1 UNK         0.1469 
     92 H92       -52.4868  -29.9880   11.1135 H         1 UNK         0.1381 
     93 H93       -54.0253  -31.1600    7.2845 H         1 UNK         0.1206 
     94 H94       -54.9224  -30.8499   10.7613 H         1 UNK         0.0813 
     95 H95       -55.5439  -30.8631    9.1264 H         1 UNK         0.0813 
     96 H96       -57.0982  -29.5060   11.1781 H         1 UNK         0.0638 
     97 H97       -57.5465  -29.0897    9.5384 H         1 UNK         0.0638 
     98 H98       -57.3550  -26.6314   10.1534 H         1 UNK         0.0568 
     99 H99       -60.8568  -27.2571   10.1008 H         1 UNK         0.3450 
    100 H100      -59.4390  -26.9233    9.1413 H         1 UNK         0.3450 
    101 H101      -56.4639  -27.6772   12.7154 H         1 UNK         0.2987 
    102 H102      -56.0172  -24.4380   14.0554 H         1 UNK         0.0766 
    103 H103      -56.8961  -25.4295   16.1568 H         1 UNK         0.0798 
    104 H104      -57.6938  -26.7087   15.2423 H         1 UNK         0.0798 
    105 H105      -58.2029  -25.0393   15.0494 H         1 UNK         0.0798 
    106 H106      -54.2535  -25.6699   14.4295 H         1 UNK         0.3198 
    107 H107      -53.5971  -28.8634   15.5594 H         1 UNK         0.0843 
    108 H108      -52.6554  -27.7812   12.8526 H         1 UNK         0.0831 
    109 H109      -53.2638  -29.3966   13.1882 H         1 UNK         0.0831 
    110 H110      -51.7275  -28.8844   13.8728 H         1 UNK         0.0831 
    111 H111      -51.9176  -26.5900   14.9848 H         1 UNK         0.3133 
    112 H112      -52.4343  -24.4829   16.7174 H         1 UNK         0.0566 
    113 H113      -51.6229  -24.2160   19.0673 H         1 UNK         0.0814 
    114 H114      -53.2652  -24.8325   19.0040 H         1 UNK         0.0814 
    115 H115      -51.9396  -25.9237   19.3732 H         1 UNK         0.0814 
    116 H116      -50.3207  -24.7709   16.2481 H         1 UNK         0.3091 
    117 H117      -47.6685  -26.3466   17.6148 H         1 UNK         0.0702 
    118 H118      -46.9878  -27.5524   15.5288 H         1 UNK         0.0785 
    119 H119      -48.6748  -27.6398   15.0239 H         1 UNK         0.0785 
    120 H120      -48.1385  -28.4952   16.4619 H         1 UNK         0.0785 
    121 H121      -47.9593  -25.2602   14.9643 H         1 UNK         0.2998 
    122 H122      -48.1180  -21.8369   15.9550 H         1 UNK         0.0697 
    123 H123      -45.9470  -23.4188   14.4788 H         1 UNK         0.0825 
    124 H124      -45.6866  -22.3572   15.8542 H         1 UNK         0.0825 
    125 H125      -46.2453  -21.6887   14.3289 H         1 UNK         0.0825 
    126 H126      -48.2016  -22.9888   13.3731 H         1 UNK         0.3029 
    127 H127      -51.7623  -23.6281   13.3020 H         1 UNK         0.0897 
    128 H128      -51.4803  -22.2542   11.2716 H         1 UNK         0.0792 
    129 H129      -51.3164  -21.2393   12.6950 H         1 UNK         0.0792 
    130 H130      -49.8839  -21.7281   11.7993 H         1 UNK         0.0792 
    131 H131      -49.7484  -24.1803   11.3713 H         1 UNK         0.3086 
    132 H132      -48.8727  -27.4402   12.6040 H         1 UNK         0.0583 
    133 H133      -50.9108  -27.8133   11.1742 H         1 UNK         0.1020 
    134 H134      -50.2981  -26.6609   10.0164 H         1 UNK         0.1020 
    135 H135      -49.1136  -31.0304   10.4725 H         1 UNK         0.0694 
    136 H136      -50.1150  -30.1198   11.5771 H         1 UNK         0.0694 
    137 H137      -47.8796  -25.9710   10.3807 H         1 UNK         0.2989 
    138 H138      -45.3102  -24.2369   12.1726 H         1 UNK         0.1055 
    139 H139      -44.4069  -26.4882   11.6589 H         1 UNK         0.0806 
    140 H140      -43.9877  -25.3623   10.3779 H         1 UNK         0.0806 
    141 H141      -45.2827  -26.5347   10.1376 H         1 UNK         0.0806 
    142 H142      -46.2826  -24.3457    9.4283 H         1 UNK         0.3061 
    143 H143      -48.2906  -21.4101    9.6846 H         1 UNK         0.0734 
    144 H144      -46.7693  -20.6377    7.8867 H         1 UNK         0.0832 
    145 H145      -45.9575  -20.5504    9.4404 H         1 UNK         0.0832 
    146 H146      -45.5745  -21.8581    8.3301 H         1 UNK         0.0832 
    147 H147      -47.5947  -23.0637    7.4599 H         1 UNK         0.3156 
    148 H148      -50.2450  -25.4288    7.8518 H         1 UNK         0.0589 
    149 H149      -49.8759  -23.1495    5.8403 H         1 UNK         0.0808 
    150 H150      -50.8881  -24.5787    5.6321 H         1 UNK         0.0808 
    151 H151      -51.2946  -23.3847    6.8527 H         1 UNK         0.0808 
    152 H152      -48.6183  -25.4578    5.7119 H         1 UNK         0.3098 
    153 H153      -46.3035  -26.3002    5.5629 H         1 UNK         0.0720 
    154 H154      -44.9159  -28.2064    6.3621 H         1 UNK         0.0791 
    155 H155      -45.8624  -28.3014    7.8468 H         1 UNK         0.0791 
    156 H156      -44.8700  -26.8862    7.5200 H         1 UNK         0.0791 
    157 H157      -47.5260  -28.9083    6.1517 H         1 UNK         0.3028 
@<TRIPOS>BOND
     1    1    2 1    
     2    1   82 1    
     3    1   83 1    
     4    1   84 1    
     5    2    3 2    
     6    2    4 am   BACKBONE|DICT|INTERRES
     7    4    5 1    
     8    4   85 1    
     9    5    6 1    
    10    5   80 1    
    11    5   86 1    
    12    6    7 1    
    13    6   87 1    
    14    6   88 1    
    15    7    8 1    
    16    8    9 1    
    17    8   89 1    
    18    8   90 1    
    19    9   10 ar   
    20    9   14 ar   
    21   10   11 ar   
    22   10   91 1    
    23   11   12 ar   
    24   11   58 1    
    25   12   13 ar   
    26   12   92 1    
    27   13   14 ar   
    28   13   15 1    
    29   14   93 1    
    30   15   16 1    
    31   15   94 1    
    32   15   95 1    
    33   16   17 1    
    34   17   18 1    
    35   17   96 1    
    36   17   97 1    
    37   18   19 1    
    38   18   22 1    
    39   18   98 1    
    40   19   20 am   BACKBONE|DICT|INTERRES
    41   19   21 2    
    42   20   99 1    
    43   20  100 1    
    44   22   23 am   BACKBONE|DICT|INTERRES
    45   22  101 1    
    46   23   24 2    
    47   23   25 1    
    48   25   26 1    
    49   25   27 1    
    50   25  102 1    
    51   26  103 1    
    52   26  104 1    
    53   26  105 1    
    54   27   28 am   BACKBONE|DICT|INTERRES
    55   27  106 1    
    56   28   29 2    
    57   28   30 1    
    58   30   31 1    
    59   30   32 1    
    60   30  107 1    
    61   31  108 1    
    62   31  109 1    
    63   31  110 1    
    64   32   33 am   BACKBONE|DICT|INTERRES
    65   32  111 1    
    66   33   34 2    
    67   33   35 1    
    68   35   36 1    
    69   35   37 1    
    70   35  112 1    
    71   36  113 1    
    72   36  114 1    
    73   36  115 1    
    74   37   38 am   BACKBONE|DICT|INTERRES
    75   37  116 1    
    76   38   39 2    
    77   38   40 1    
    78   40   41 1    
    79   40   42 1    
    80   40  117 1    
    81   41  118 1    
    82   41  119 1    
    83   41  120 1    
    84   42   43 am   BACKBONE|DICT|INTERRES
    85   42  121 1    
    86   43   44 2    
    87   43   45 1    
    88   45   46 1    
    89   45   47 1    
    90   45  122 1    
    91   46  123 1    
    92   46  124 1    
    93   46  125 1    
    94   47   48 am   BACKBONE|DICT|INTERRES
    95   47  126 1    
    96   48   49 2    
    97   48   50 1    
    98   50   51 1    
    99   50   52 1    
   100   50  127 1    
   101   51  128 1    
   102   51  129 1    
   103   51  130 1    
   104   52   53 am   BACKBONE|DICT|INTERRES
   105   52  131 1    
   106   53   54 2    
   107   53   55 1    
   108   55   56 1    
   109   55   59 1    
   110   55  132 1    
   111   56   57 1    
   112   56  133 1    
   113   56  134 1    
   114   57   58 1    
   115   58  135 1    
   116   58  136 1    
   117   59   60 am   BACKBONE|DICT|INTERRES
   118   59  137 1    
   119   60   61 2    
   120   60   62 1    
   121   62   63 1    
   122   62   64 1    
   123   62  138 1    
   124   63  139 1    
   125   63  140 1    
   126   63  141 1    
   127   64   65 am   BACKBONE|DICT|INTERRES
   128   64  142 1    
   129   65   66 2    
   130   65   67 1    
   131   67   68 1    
   132   67   69 1    
   133   67  143 1    
   134   68  144 1    
   135   68  145 1    
   136   68  146 1    
   137   69   70 am   BACKBONE|DICT|INTERRES
   138   69  147 1    
   139   70   71 2    
   140   70   72 1    
   141   72   73 1    
   142   72   74 1    
   143   72  148 1    
   144   73  149 1    
   145   73  150 1    
   146   73  151 1    
   147   74   75 am   BACKBONE|DICT|INTERRES
   148   74  152 1    
   149   75   76 2    
   150   75   77 1    
   151   77   78 1    
   152   77   79 1    
   153   77  153 1    
   154   78  154 1    
   155   78  155 1    
   156   78  156 1    
   157   79   80 am   BACKBONE|DICT|INTERRES
   158   79  157 1    
   159   80   81 2    
@<TRIPOS>SUBSTRUCTURE
     1 UNK         1 GROUP             0       ****    0 ROOT    
