@<TRIPOS>MOLECULE
3R207
157   159    1
SMALL
USER_CHARGES


@<TRIPOS>ATOM
      1 CA        -49.5498  -30.6487    8.4042 C.3       0 UNK        -0.1975 
      2 C         -49.3584  -29.8710    7.1118 C.2       0 UNK         0.4852 
      3 O         -48.2545  -29.4016    6.8342 O.2       0 UNK        -0.5216 
      4 N         -50.4274  -29.7386    6.3146 N.am      1 UNK        -0.4461 
      5 CA        -50.4199  -29.1286    4.9790 C.3       1 UNK         0.0864 
      6 C6        -51.7295  -29.4467    4.2026 C.3       14 UNK        -0.0898 
      7 S7        -53.1769  -28.3860    4.5722 S.3       14 UNK        -0.2598 
      8 C8        -54.1235  -29.3723    5.7799 C.3       14 UNK         0.0286 
      9 C9        -53.5358  -29.3707    7.1894 C.ar      14 UNK        -0.0844 
     10 C10       -52.9920  -28.2091    7.7558 C.ar      14 UNK        -0.0881 
     11 C11       -52.4810  -28.2189    9.0579 C.ar      14 UNK        -0.0643 
     12 C12       -52.5637  -29.3928    9.8090 C.ar      14 UNK        -0.0930 
     13 C13       -53.1343  -30.5494    9.2740 C.ar      14 UNK        -0.0827 
     14 C14       -53.5992  -30.5383    7.9565 C.ar      14 UNK        -0.1249 
     15 C15       -53.2805  -31.7945   10.1386 C.3       14 UNK         0.0141 
     16 S16       -54.1570  -31.4439   11.7009 S.3       14 UNK        -0.2313 
     17 C17       -55.8543  -31.0924   11.1225 C.3       14 UNK        -0.0915 
     18 CA        -56.1082  -29.6235   10.6765 C.3       13 UNK         0.0968 
     19 C         -57.5963  -29.4251   10.2662 C.2       13 UNK         0.5732 
     20 N         -58.3750  -28.5986   10.9550 N.am      13 UNK        -0.7310 
     21 O         -58.0532  -30.0321    9.3004 O.2       13 UNK        -0.5035 
     22 N         -55.5977  -28.6412   11.6468 N.am      13 UNK        -0.4233 
     23 C         -55.3397  -27.3565   11.3810 C.2       13 UNK         0.4989 
     24 O         -55.5078  -26.8443   10.2743 O.2       13 UNK        -0.4996 
     25 CA        -54.8049  -26.4692   12.5232 C.3       12 UNK         0.0216 
     26 CB        -55.9669  -25.7631   13.2480 C.3       12 UNK        -0.1964 
     27 N         -53.9017  -27.1075   13.4945 N.am      12 UNK        -0.4276 
     28 C         -54.1456  -28.1092   14.3553 C.2       12 UNK         0.5020 
     29 O         -55.1851  -28.7686   14.3824 O.2       12 UNK        -0.5489 
     30 CA        -53.0467  -28.3916   15.3906 C.3       11 UNK         0.0294 
     31 CB        -51.9321  -29.2629   14.7883 C.3       11 UNK        -0.2019 
     32 N         -52.4861  -27.1382   15.9008 N.am      11 UNK        -0.4493 
     33 C         -53.0988  -26.3503   16.7967 C.2       11 UNK         0.4932 
     34 O         -54.1293  -26.6708   17.3916 O.2       11 UNK        -0.5029 
     35 CA        -52.4702  -24.9642   17.0447 C.3       10 UNK         0.0280 
     36 CB        -52.9500  -24.3060   18.3560 C.3       10 UNK        -0.1976 
     37 N         -51.0057  -24.9629   16.9605 N.am      10 UNK        -0.4242 
     38 C         -50.1440  -25.6403   17.7364 C.2       10 UNK         0.5072 
     39 O         -50.4874  -26.3560   18.6784 O.2       10 UNK        -0.5224 
     40 CA        -48.6427  -25.5328   17.4038 C.3       9 UNK         0.0343 
     41 CB        -48.1064  -26.8966   16.9357 C.3       9 UNK        -0.2003 
     42 N         -48.3314  -24.5261   16.3846 N.am      9 UNK        -0.4272 
     43 C         -48.3032  -23.2023   16.5928 C.2       9 UNK         0.4988 
     44 O         -48.4764  -22.6784   17.6935 O.2       9 UNK        -0.5108 
     45 CA        -48.0850  -22.3100   15.3568 C.3       8 UNK         0.0248 
     46 CB        -46.5892  -22.2042   15.0202 C.3       8 UNK        -0.2001 
     47 N         -48.8252  -22.7596   14.1719 N.am      8 UNK        -0.4140 
     48 C         -50.1611  -22.8666   14.0926 C.2       8 UNK         0.5028 
     49 O         -50.9274  -22.5996   15.0172 O.2       8 UNK        -0.5428 
     50 CA        -50.7374  -23.4218   12.7830 C.3       7 UNK         0.0264 
     51 CB        -50.7495  -22.3557   11.6757 C.3       7 UNK        -0.1988 
     52 N         -49.9772  -24.5904   12.3461 N.am      7 UNK        -0.4454 
     53 C         -50.1524  -25.8236   12.8412 C.2       7 UNK         0.5027 
     54 O         -51.0546  -26.1194   13.6286 O.2       7 UNK        -0.5083 
     55 CA        -49.1528  -26.9140   12.3980 C.3       6 UNK         0.0844 
     56 C56       -49.7355  -27.8286   11.2982 C.3       14 UNK        -0.0967 
     57 S57       -50.0648  -26.9930    9.7026 S.3       14 UNK        -0.2604 
     58 C58       -51.8885  -26.9545    9.6687 C.3       14 UNK         0.0134 
     59 N         -47.8391  -26.3823   12.0295 N.am      6 UNK        -0.4116 
     60 C         -46.9679  -25.8588   12.9014 C.2       5 UNK         0.5034 
     61 O         -47.1848  -25.7555   14.1067 O.2       5 UNK        -0.5045 
     62 CA        -45.6527  -25.3136   12.3291 C.3       5 UNK         0.0224 
     63 CB        -44.6259  -26.4444   12.1632 C.3       5 UNK        -0.1978 
     64 N         -45.8105  -24.6083   11.0558 N.am      5 UNK        -0.4737 
     65 C         -46.5897  -23.5443   10.8334 C.2       4 UNK         0.5027 
     66 O         -47.3485  -23.0703   11.6797 O.2       4 UNK        -0.5211 
     67 CA        -46.5226  -22.9065    9.4345 C.3       4 UNK         0.0297 
     68 CB        -45.2490  -22.0535    9.2843 C.3       4 UNK        -0.1993 
     69 N         -46.6715  -23.8458    8.3118 N.am      4 UNK        -0.4486 
     70 C         -45.9001  -24.8764    7.9354 C.2       3 UNK         0.4961 
     71 O         -44.8700  -25.2072    8.5257 O.2       3 UNK        -0.5105 
     72 CA        -46.3631  -25.6802    6.6989 C.3       3 UNK         0.0299 
     73 CB        -45.6379  -27.0332    6.5746 C.3       3 UNK        -0.1972 
     74 N         -47.8102  -25.9233    6.6593 N.am      3 UNK        -0.4305 
     75 C         -48.7497  -25.0252    6.3288 C.2       2 UNK         0.5006 
     76 O         -48.4912  -23.8475    6.0749 O.2       2 UNK        -0.5106 
     77 CA        -50.2156  -25.4977    6.3295 C.3       2 UNK         0.0296 
     78 CB        -51.1104  -24.6787    5.3748 C.3       2 UNK        -0.2002 
     79 N         -50.3741  -26.9365    6.0911 N.am      2 UNK        -0.4032 
     80 C         -50.0704  -27.6222    4.9770 C.2       1 UNK         0.5000 
     81 O         -49.5459  -27.1267    3.9777 O.2       1 UNK        -0.5238 
     82 H82       -49.6610  -29.9653    9.2424 H         1 UNK         0.0889 
     83 H83       -48.6864  -31.2856    8.5939 H         1 UNK         0.0889 
     84 H84       -50.4331  -31.2853    8.3624 H         1 UNK         0.0889 
     85 H85       -51.3210  -30.0985    6.6231 H         1 UNK         0.3028 
     86 H86       -49.6077  -29.6187    4.4372 H         1 UNK         0.0864 
     87 H87       -51.5346  -29.3368    3.1344 H         1 UNK         0.0720 
     88 H88       -52.0039  -30.4950    4.3315 H         1 UNK         0.0720 
     89 H89       -54.2263  -30.3905    5.4013 H         1 UNK         0.0814 
     90 H90       -55.1339  -28.9655    5.8370 H         1 UNK         0.0814 
     91 H91       -52.9789  -27.2911    7.1848 H         1 UNK         0.1469 
     92 H92       -52.2260  -29.4101   10.8325 H         1 UNK         0.1381 
     93 H93       -54.0467  -31.4309    7.5404 H         1 UNK         0.1206 
     94 H94       -53.8030  -32.5886    9.6032 H         1 UNK         0.0813 
     95 H95       -52.2867  -32.1791   10.3709 H         1 UNK         0.0813 
     96 H96       -56.5276  -31.3508   11.9418 H         1 UNK         0.0638 
     97 H97       -56.0908  -31.7823   10.3103 H         1 UNK         0.0638 
     98 H98       -55.5496  -29.4618    9.7552 H         1 UNK         0.0568 
     99 H99       -58.0108  -28.0999   11.7502 H         1 UNK         0.3450 
    100 H100      -59.3358  -28.4777   10.6765 H         1 UNK         0.3450 
    101 H101      -55.4692  -28.9622   12.6039 H         1 UNK         0.2987 
    102 H102      -54.2043  -25.6937   12.0449 H         1 UNK         0.0766 
    103 H103      -55.5980  -25.0440   13.9795 H         1 UNK         0.0798 
    104 H104      -56.6103  -26.4713   13.7711 H         1 UNK         0.0798 
    105 H105      -56.5928  -25.2147   12.5425 H         1 UNK         0.0798 
    106 H106      -52.9795  -26.6848   13.5545 H         1 UNK         0.3198 
    107 H107      -53.4967  -28.9412   16.2205 H         1 UNK         0.0843 
    108 H108      -52.3351  -30.2084   14.4222 H         1 UNK         0.0831 
    109 H109      -51.1711  -29.5007   15.5317 H         1 UNK         0.0831 
    110 H110      -51.4385  -28.7751   13.9488 H         1 UNK         0.0831 
    111 H111      -51.6841  -26.7650   15.4033 H         1 UNK         0.3133 
    112 H112      -52.8133  -24.3348   16.2223 H         1 UNK         0.0566 
    113 H113      -52.5023  -23.3213   18.4912 H         1 UNK         0.0814 
    114 H114      -54.0322  -24.1702   18.3527 H         1 UNK         0.0814 
    115 H115      -52.7019  -24.9110   19.2285 H         1 UNK         0.0814 
    116 H116      -50.6245  -24.3692   16.2333 H         1 UNK         0.3091 
    117 H117      -48.1246  -25.2614   18.3259 H         1 UNK         0.0702 
    118 H118      -47.0349  -26.8553   16.7392 H         1 UNK         0.0785 
    119 H119      -48.6016  -27.2315   16.0232 H         1 UNK         0.0785 
    120 H120      -48.2660  -27.6642   17.6942 H         1 UNK         0.0785 
    121 H121      -48.0901  -24.8819   15.4615 H         1 UNK         0.2998 
    122 H122      -48.4485  -21.3106   15.6044 H         1 UNK         0.0697 
    123 H123      -46.1625  -23.1760   14.7730 H         1 UNK         0.0825 
    124 H124      -46.0266  -21.8073   15.8663 H         1 UNK         0.0825 
    125 H125      -46.4174  -21.5380   14.1744 H         1 UNK         0.0825 
    126 H126      -48.2742  -22.9700   13.3428 H         1 UNK         0.3029 
    127 H127      -51.7719  -23.7198   12.9703 H         1 UNK         0.0897 
    128 H128      -51.1827  -22.7476   10.7553 H         1 UNK         0.0792 
    129 H129      -51.3489  -21.4947   11.9746 H         1 UNK         0.0792 
    130 H130      -49.7492  -21.9892   11.4448 H         1 UNK         0.0792 
    131 H131      -49.1934  -24.4192   11.7304 H         1 UNK         0.3086 
    132 H132      -48.9974  -27.5447   13.2765 H         1 UNK         0.0583 
    133 H133      -50.6390  -28.3011   11.6755 H         1 UNK         0.1020 
    134 H134      -49.0408  -28.6485   11.1116 H         1 UNK         0.1020 
    135 H135      -52.2775  -26.8083   10.6769 H         1 UNK         0.0694 
    136 H136      -52.2073  -26.0802    9.0996 H         1 UNK         0.0694 
    137 H137      -47.5956  -26.4092   11.0501 H         1 UNK         0.2989 
    138 H138      -45.2566  -24.5967   13.0506 H         1 UNK         0.1055 
    139 H139      -44.4786  -26.9805   13.1021 H         1 UNK         0.0806 
    140 H140      -43.6542  -26.0550   11.8586 H         1 UNK         0.0806 
    141 H141      -44.9427  -27.1730   11.4158 H         1 UNK         0.0806 
    142 H142      -45.2529  -24.9347   10.2674 H         1 UNK         0.3061 
    143 H143      -47.3764  -22.2304    9.3641 H         1 UNK         0.0734 
    144 H144      -45.1836  -21.3090   10.0790 H         1 UNK         0.0832 
    145 H145      -44.3427  -22.6579    9.3320 H         1 UNK         0.0832 
    146 H146      -45.2426  -21.5157    8.3362 H         1 UNK         0.0832 
    147 H147      -47.4712  -23.6676    7.7098 H         1 UNK         0.3156 
    148 H148      -46.0964  -25.0842    5.8238 H         1 UNK         0.0589 
    149 H149      -45.8391  -27.6769    7.4321 H         1 UNK         0.0808 
    150 H150      -45.9477  -27.5688    5.6768 H         1 UNK         0.0808 
    151 H151      -44.5573  -26.8987    6.5111 H         1 UNK         0.0808 
    152 H152      -48.1083  -26.8649    6.8791 H         1 UNK         0.3098 
    153 H153      -50.5810  -25.3150    7.3396 H         1 UNK         0.0720 
    154 H154      -52.1424  -25.0289    5.4009 H         1 UNK         0.0791 
    155 H155      -50.7627  -24.7374    4.3430 H         1 UNK         0.0791 
    156 H156      -51.1203  -23.6244    5.6538 H         1 UNK         0.0791 
    157 H157      -50.7605  -27.4679    6.8593 H         1 UNK         0.3028 
@<TRIPOS>BOND
     1    1    2 1    
     2    1   82 1    
     3    1   83 1    
     4    1   84 1    
     5    2    3 2    
     6    2    4 am   BACKBONE|DICT|INTERRES
     7    4    5 1    
     8    4   85 1    
     9    5    6 1    
    10    5   80 1    
    11    5   86 1    
    12    6    7 1    
    13    6   87 1    
    14    6   88 1    
    15    7    8 1    
    16    8    9 1    
    17    8   89 1    
    18    8   90 1    
    19    9   10 ar   
    20    9   14 ar   
    21   10   11 ar   
    22   10   91 1    
    23   11   12 ar   
    24   11   58 1    
    25   12   13 ar   
    26   12   92 1    
    27   13   14 ar   
    28   13   15 1    
    29   14   93 1    
    30   15   16 1    
    31   15   94 1    
    32   15   95 1    
    33   16   17 1    
    34   17   18 1    
    35   17   96 1    
    36   17   97 1    
    37   18   19 1    
    38   18   22 1    
    39   18   98 1    
    40   19   20 am   BACKBONE|DICT|INTERRES
    41   19   21 2    
    42   20   99 1    
    43   20  100 1    
    44   22   23 am   BACKBONE|DICT|INTERRES
    45   22  101 1    
    46   23   24 2    
    47   23   25 1    
    48   25   26 1    
    49   25   27 1    
    50   25  102 1    
    51   26  103 1    
    52   26  104 1    
    53   26  105 1    
    54   27   28 am   BACKBONE|DICT|INTERRES
    55   27  106 1    
    56   28   29 2    
    57   28   30 1    
    58   30   31 1    
    59   30   32 1    
    60   30  107 1    
    61   31  108 1    
    62   31  109 1    
    63   31  110 1    
    64   32   33 am   BACKBONE|DICT|INTERRES
    65   32  111 1    
    66   33   34 2    
    67   33   35 1    
    68   35   36 1    
    69   35   37 1    
    70   35  112 1    
    71   36  113 1    
    72   36  114 1    
    73   36  115 1    
    74   37   38 am   BACKBONE|DICT|INTERRES
    75   37  116 1    
    76   38   39 2    
    77   38   40 1    
    78   40   41 1    
    79   40   42 1    
    80   40  117 1    
    81   41  118 1    
    82   41  119 1    
    83   41  120 1    
    84   42   43 am   BACKBONE|DICT|INTERRES
    85   42  121 1    
    86   43   44 2    
    87   43   45 1    
    88   45   46 1    
    89   45   47 1    
    90   45  122 1    
    91   46  123 1    
    92   46  124 1    
    93   46  125 1    
    94   47   48 am   BACKBONE|DICT|INTERRES
    95   47  126 1    
    96   48   49 2    
    97   48   50 1    
    98   50   51 1    
    99   50   52 1    
   100   50  127 1    
   101   51  128 1    
   102   51  129 1    
   103   51  130 1    
   104   52   53 am   BACKBONE|DICT|INTERRES
   105   52  131 1    
   106   53   54 2    
   107   53   55 1    
   108   55   56 1    
   109   55   59 1    
   110   55  132 1    
   111   56   57 1    
   112   56  133 1    
   113   56  134 1    
   114   57   58 1    
   115   58  135 1    
   116   58  136 1    
   117   59   60 am   BACKBONE|DICT|INTERRES
   118   59  137 1    
   119   60   61 2    
   120   60   62 1    
   121   62   63 1    
   122   62   64 1    
   123   62  138 1    
   124   63  139 1    
   125   63  140 1    
   126   63  141 1    
   127   64   65 am   BACKBONE|DICT|INTERRES
   128   64  142 1    
   129   65   66 2    
   130   65   67 1    
   131   67   68 1    
   132   67   69 1    
   133   67  143 1    
   134   68  144 1    
   135   68  145 1    
   136   68  146 1    
   137   69   70 am   BACKBONE|DICT|INTERRES
   138   69  147 1    
   139   70   71 2    
   140   70   72 1    
   141   72   73 1    
   142   72   74 1    
   143   72  148 1    
   144   73  149 1    
   145   73  150 1    
   146   73  151 1    
   147   74   75 am   BACKBONE|DICT|INTERRES
   148   74  152 1    
   149   75   76 2    
   150   75   77 1    
   151   77   78 1    
   152   77   79 1    
   153   77  153 1    
   154   78  154 1    
   155   78  155 1    
   156   78  156 1    
   157   79   80 am   BACKBONE|DICT|INTERRES
   158   79  157 1    
   159   80   81 2    
@<TRIPOS>SUBSTRUCTURE
     1 UNK         1 GROUP             0       ****    0 ROOT    
