@<TRIPOS>MOLECULE
3R207
157   159    1
SMALL
USER_CHARGES


@<TRIPOS>ATOM
      1 CA        -50.4567  -31.8471    2.2289 C.3       0 UNK        -0.1975 
      2 C         -49.2445  -31.1022    2.7817 C.2       0 UNK         0.4852 
      3 O         -48.2049  -31.0674    2.1251 O.2       0 UNK        -0.5216 
      4 N         -49.3233  -30.4955    3.9717 N.am      1 UNK        -0.4461 
      5 CA        -50.4895  -30.4174    4.8483 C.3       1 UNK         0.0864 
      6 C6        -50.6003  -31.6614    5.7834 C.3       14 UNK        -0.0898 
      7 S7        -52.3006  -32.2443    6.1219 S.3       14 UNK        -0.2598 
      8 C8        -53.1132  -30.9183    7.0802 C.3       14 UNK         0.0286 
      9 C9        -52.7089  -30.8398    8.5497 C.ar      14 UNK        -0.0844 
     10 C10       -51.4395  -30.3952    8.9330 C.ar      14 UNK        -0.0881 
     11 C11       -51.1102  -30.2272   10.2805 C.ar      14 UNK        -0.0643 
     12 C12       -52.0819  -30.4650   11.2567 C.ar      14 UNK        -0.0930 
     13 C13       -53.3624  -30.8907   10.8892 C.ar      14 UNK        -0.0827 
     14 C14       -53.6560  -31.1135    9.5405 C.ar      14 UNK        -0.1249 
     15 C15       -54.4481  -31.0560   11.9417 C.3       14 UNK         0.0141 
     16 S16       -55.2084  -29.4537   12.3711 S.3       14 UNK        -0.2313 
     17 C17       -56.0271  -28.9770   10.8078 C.3       14 UNK        -0.0915 
     18 CA        -55.1775  -28.0108    9.9348 C.3       13 UNK         0.0968 
     19 C         -55.8287  -27.7936    8.5384 C.2       13 UNK         0.5732 
     20 N         -56.2179  -26.5805    8.1636 N.am      13 UNK        -0.7310 
     21 O         -55.9760  -28.7448    7.7751 O.2       13 UNK        -0.5035 
     22 N         -54.8318  -26.7782   10.6578 N.am      13 UNK        -0.4233 
     23 C         -53.7993  -25.9835   10.3498 C.2       13 UNK         0.4989 
     24 O         -53.0462  -26.1682    9.3946 O.2       13 UNK        -0.4996 
     25 CA        -53.5529  -24.7658   11.2572 C.3       12 UNK         0.0216 
     26 CB        -54.1708  -23.5045   10.6321 C.3       12 UNK        -0.1964 
     27 N         -54.0239  -24.9012   12.6422 N.am      12 UNK        -0.4276 
     28 C         -53.6148  -25.8376   13.5091 C.2       12 UNK         0.5020 
     29 O         -52.9049  -26.7984   13.2107 O.2       12 UNK        -0.5489 
     30 CA        -54.0569  -25.6646   14.9630 C.3       11 UNK         0.0294 
     31 CB        -55.4101  -26.3559   15.2113 C.3       11 UNK        -0.2019 
     32 N         -53.0242  -26.2510   15.8124 N.am      11 UNK        -0.4493 
     33 C         -52.8207  -25.9691   17.1028 C.2       11 UNK         0.4932 
     34 O         -53.4689  -25.1320   17.7319 O.2       11 UNK        -0.5029 
     35 CA        -51.7401  -26.7810   17.8260 C.3       10 UNK         0.0280 
     36 CB        -52.0665  -28.2888   17.8116 C.3       10 UNK        -0.1976 
     37 N         -50.4065  -26.5333   17.2747 N.am      10 UNK        -0.4242 
     38 C         -49.2688  -26.7429   17.9523 C.2       10 UNK         0.5072 
     39 O         -49.2302  -27.1331   19.1209 O.2       10 UNK        -0.5224 
     40 CA        -47.9428  -26.4942   17.2140 C.3       9 UNK         0.0343 
     41 CB        -47.6216  -27.6575   16.2611 C.3       9 UNK        -0.2003 
     42 N         -47.9125  -25.2258   16.4847 N.am      9 UNK        -0.4272 
     43 C         -47.8545  -24.0178   17.0649 C.2       9 UNK         0.4988 
     44 O         -47.8032  -23.8435   18.2831 O.2       9 UNK        -0.5108 
     45 CA        -47.8419  -22.7915   16.1344 C.3       8 UNK         0.0248 
     46 CB        -46.4172  -22.5055   15.6328 C.3       8 UNK        -0.2001 
     47 N         -48.7429  -22.9350   14.9906 N.am      8 UNK        -0.4140 
     48 C         -50.0786  -22.9957   15.0779 C.2       8 UNK         0.5028 
     49 O         -50.7087  -22.8399   16.1240 O.2       8 UNK        -0.5428 
     50 CA        -50.8413  -23.3265   13.7848 C.3       7 UNK         0.0264 
     51 CB        -51.0769  -22.0637   12.9414 C.3       7 UNK        -0.1988 
     52 N         -50.1852  -24.3564   12.9716 N.am      7 UNK        -0.4454 
     53 C         -49.9328  -25.6107   13.3821 C.2       7 UNK         0.5027 
     54 O         -50.2219  -26.0399   14.4996 O.2       7 UNK        -0.5083 
     55 CA        -49.1754  -26.5186   12.3972 C.3       6 UNK         0.0844 
     56 C56       -50.1360  -27.0944   11.3257 C.3       14 UNK        -0.0967 
     57 S57       -49.2831  -28.1273   10.0906 S.3       14 UNK        -0.2604 
     58 C58       -49.6992  -29.8032   10.6700 C.3       14 UNK         0.0134 
     59 N         -48.0298  -25.8024   11.8305 N.am      6 UNK        -0.4116 
     60 C         -46.9480  -25.4265   12.5292 C.2       5 UNK         0.5034 
     61 O         -46.7717  -25.6930   13.7173 O.2       5 UNK        -0.5045 
     62 CA        -45.9111  -24.5596   11.7945 C.3       5 UNK         0.0224 
     63 CB        -44.9192  -25.4425   11.0208 C.3       5 UNK        -0.1978 
     64 N         -46.5263  -23.5956   10.8788 N.am      5 UNK        -0.4737 
     65 C         -47.3520  -22.6076   11.2541 C.2       4 UNK         0.5027 
     66 O         -47.6053  -22.3438   12.4280 O.2       4 UNK        -0.5211 
     67 CA        -48.0572  -21.8213   10.1336 C.3       4 UNK         0.0297 
     68 CB        -47.2799  -20.5364    9.8093 C.3       4 UNK        -0.1993 
     69 N         -48.2482  -22.6049    8.9070 N.am      4 UNK        -0.4486 
     70 C         -48.9887  -23.7183    8.8210 C.2       3 UNK         0.4961 
     71 O         -49.6420  -24.1839    9.7592 O.2       3 UNK        -0.5105 
     72 CA        -48.9119  -24.4700    7.4886 C.3       3 UNK         0.0299 
     73 CB        -47.5578  -25.1994    7.3647 C.3       3 UNK        -0.1972 
     74 N         -50.0032  -25.4358    7.4075 N.am      3 UNK        -0.4305 
     75 C         -50.4190  -26.0381    6.2883 C.2       2 UNK         0.5006 
     76 O         -49.9753  -25.7925    5.1633 O.2       2 UNK        -0.5106 
     77 CA        -51.5467  -27.0698    6.4487 C.3       2 UNK         0.0296 
     78 CB        -52.9083  -26.4281    6.1331 C.3       2 UNK        -0.2002 
     79 N         -51.3795  -28.2570    5.6042 N.am      2 UNK        -0.4032 
     80 C         -50.3445  -29.1088    5.6432 C.2       1 UNK         0.5000 
     81 O         -49.3169  -28.9281    6.3006 O.2       1 UNK        -0.5238 
     82 H82       -50.9058  -32.4963    2.9798 H         1 UNK         0.0889 
     83 H83       -50.1672  -32.4734    1.3852 H         1 UNK         0.0889 
     84 H84       -51.2103  -31.1421    1.8791 H         1 UNK         0.0889 
     85 H85       -48.5199  -29.9897    4.3237 H         1 UNK         0.3028 
     86 H86       -51.3866  -30.3436    4.2305 H         1 UNK         0.0864 
     87 H87       -50.1147  -32.5127    5.3042 H         1 UNK         0.0720 
     88 H88       -50.0423  -31.5460    6.7120 H         1 UNK         0.0720 
     89 H89       -54.1878  -31.0959    7.0120 H         1 UNK         0.0814 
     90 H90       -52.9729  -29.9519    6.6086 H         1 UNK         0.0814 
     91 H91       -50.6975  -30.1492    8.1931 H         1 UNK         0.1469 
     92 H92       -51.8515  -30.2997   12.3003 H         1 UNK         0.1381 
     93 H93       -54.6506  -31.4303    9.2577 H         1 UNK         0.1206 
     94 H94       -54.0210  -31.4978   12.8431 H         1 UNK         0.0813 
     95 H95       -55.2195  -31.7473   11.5987 H         1 UNK         0.0813 
     96 H96       -56.2758  -29.8853   10.2567 H         1 UNK         0.0638 
     97 H97       -56.9815  -28.5111   11.0585 H         1 UNK         0.0638 
     98 H98       -54.2307  -28.5056    9.7218 H         1 UNK         0.0568 
     99 H99       -56.0967  -25.7924    8.7775 H         1 UNK         0.3450 
    100 H100      -56.6360  -26.4564    7.2556 H         1 UNK         0.3450 
    101 H101      -55.3844  -26.5663   11.4737 H         1 UNK         0.2987 
    102 H102      -52.4716  -24.6242   11.2989 H         1 UNK         0.0766 
    103 H103      -53.8015  -23.3521    9.6166 H         1 UNK         0.0798 
    104 H104      -55.2580  -23.5716   10.5772 H         1 UNK         0.0798 
    105 H105      -53.9184  -22.6101   11.2015 H         1 UNK         0.0798 
    106 H106      -54.6342  -24.1692   12.9776 H         1 UNK         0.3198 
    107 H107      -54.1380  -24.5981   15.1848 H         1 UNK         0.0843 
    108 H108      -55.3569  -27.4255   15.0023 H         1 UNK         0.0831 
    109 H109      -56.1888  -25.9369   14.5731 H         1 UNK         0.0831 
    110 H110      -55.7380  -26.2329   16.2435 H         1 UNK         0.0831 
    111 H111      -52.4081  -26.8894   15.3195 H         1 UNK         0.3133 
    112 H112      -51.7484  -26.4463   18.8658 H         1 UNK         0.0566 
    113 H113      -51.9730  -28.7154   16.8123 H         1 UNK         0.0814 
    114 H114      -51.4030  -28.8456   18.4732 H         1 UNK         0.0814 
    115 H115      -53.0864  -28.4722   18.1525 H         1 UNK         0.0814 
    116 H116      -50.3563  -26.2147   16.3064 H         1 UNK         0.3091 
    117 H117      -47.1518  -26.4597   17.9664 H         1 UNK         0.0702 
    118 H118      -46.6371  -27.5377   15.8087 H         1 UNK         0.0785 
    119 H119      -48.3515  -27.7375   15.4556 H         1 UNK         0.0785 
    120 H120      -47.6191  -28.6091   16.7942 H         1 UNK         0.0785 
    121 H121      -47.9025  -25.2850   15.4728 H         1 UNK         0.2998 
    122 H122      -48.1768  -21.9298   16.7155 H         1 UNK         0.0697 
    123 H123      -46.0290  -23.3266   15.0292 H         1 UNK         0.0825 
    124 H124      -45.7308  -22.3606   16.4680 H         1 UNK         0.0825 
    125 H125      -46.3852  -21.6011   15.0248 H         1 UNK         0.0825 
    126 H126      -48.3150  -22.9750   14.0682 H         1 UNK         0.3029 
    127 H127      -51.8135  -23.7169   14.0835 H         1 UNK         0.0897 
    128 H128      -50.1419  -21.5672   12.6838 H         1 UNK         0.0792 
    129 H129      -51.6837  -21.3418   13.4894 H         1 UNK         0.0792 
    130 H130      -51.6014  -22.2916   12.0140 H         1 UNK         0.0792 
    131 H131      -49.9007  -24.0926   12.0358 H         1 UNK         0.3086 
    132 H132      -48.7809  -27.3613   12.9688 H         1 UNK         0.0583 
    133 H133      -50.9231  -27.6836   11.7991 H         1 UNK         0.1020 
    134 H134      -50.6531  -26.2972   10.7923 H         1 UNK         0.1020 
    135 H135      -48.9908  -30.5063   10.2298 H         1 UNK         0.0694 
    136 H136      -49.5537  -29.8609   11.7500 H         1 UNK         0.0694 
    137 H137      -48.1250  -25.5064   10.8694 H         1 UNK         0.2989 
    138 H138      -45.3580  -23.9980   12.5508 H         1 UNK         0.1055 
    139 H139      -44.4339  -26.1576   11.6868 H         1 UNK         0.0806 
    140 H140      -44.1313  -24.8457   10.5609 H         1 UNK         0.0806 
    141 H141      -45.4122  -26.0141   10.2332 H         1 UNK         0.0806 
    142 H142      -46.3589  -23.7274    9.8925 H         1 UNK         0.3061 
    143 H143      -49.0452  -21.5396   10.5026 H         1 UNK         0.0734 
    144 H144      -46.2866  -20.7519    9.4137 H         1 UNK         0.0832 
    145 H145      -47.8091  -19.9249    9.0783 H         1 UNK         0.0832 
    146 H146      -47.1482  -19.9258   10.7039 H         1 UNK         0.0832 
    147 H147      -47.7447  -22.2930    8.0884 H         1 UNK         0.3156 
    148 H148      -49.0186  -23.7449    6.6791 H         1 UNK         0.0589 
    149 H149      -47.4297  -25.9422    8.1536 H         1 UNK         0.0808 
    150 H150      -47.4683  -25.7166    6.4093 H         1 UNK         0.0808 
    151 H151      -46.7200  -24.5043    7.4269 H         1 UNK         0.0808 
    152 H152      -50.4549  -25.6358    8.2932 H         1 UNK         0.3098 
    153 H153      -51.5554  -27.4131    7.4858 H         1 UNK         0.0720 
    154 H154      -53.7281  -27.1180    6.3332 H         1 UNK         0.0791 
    155 H155      -52.9753  -26.1141    5.0907 H         1 UNK         0.0791 
    156 H156      -53.0770  -25.5443    6.7499 H         1 UNK         0.0791 
    157 H157      -52.1471  -28.4593    4.9811 H         1 UNK         0.3028 
@<TRIPOS>BOND
     1    1    2 1    
     2    1   82 1    
     3    1   83 1    
     4    1   84 1    
     5    2    3 2    
     6    2    4 am   BACKBONE|DICT|INTERRES
     7    4    5 1    
     8    4   85 1    
     9    5    6 1    
    10    5   80 1    
    11    5   86 1    
    12    6    7 1    
    13    6   87 1    
    14    6   88 1    
    15    7    8 1    
    16    8    9 1    
    17    8   89 1    
    18    8   90 1    
    19    9   10 ar   
    20    9   14 ar   
    21   10   11 ar   
    22   10   91 1    
    23   11   12 ar   
    24   11   58 1    
    25   12   13 ar   
    26   12   92 1    
    27   13   14 ar   
    28   13   15 1    
    29   14   93 1    
    30   15   16 1    
    31   15   94 1    
    32   15   95 1    
    33   16   17 1    
    34   17   18 1    
    35   17   96 1    
    36   17   97 1    
    37   18   19 1    
    38   18   22 1    
    39   18   98 1    
    40   19   20 am   BACKBONE|DICT|INTERRES
    41   19   21 2    
    42   20   99 1    
    43   20  100 1    
    44   22   23 am   BACKBONE|DICT|INTERRES
    45   22  101 1    
    46   23   24 2    
    47   23   25 1    
    48   25   26 1    
    49   25   27 1    
    50   25  102 1    
    51   26  103 1    
    52   26  104 1    
    53   26  105 1    
    54   27   28 am   BACKBONE|DICT|INTERRES
    55   27  106 1    
    56   28   29 2    
    57   28   30 1    
    58   30   31 1    
    59   30   32 1    
    60   30  107 1    
    61   31  108 1    
    62   31  109 1    
    63   31  110 1    
    64   32   33 am   BACKBONE|DICT|INTERRES
    65   32  111 1    
    66   33   34 2    
    67   33   35 1    
    68   35   36 1    
    69   35   37 1    
    70   35  112 1    
    71   36  113 1    
    72   36  114 1    
    73   36  115 1    
    74   37   38 am   BACKBONE|DICT|INTERRES
    75   37  116 1    
    76   38   39 2    
    77   38   40 1    
    78   40   41 1    
    79   40   42 1    
    80   40  117 1    
    81   41  118 1    
    82   41  119 1    
    83   41  120 1    
    84   42   43 am   BACKBONE|DICT|INTERRES
    85   42  121 1    
    86   43   44 2    
    87   43   45 1    
    88   45   46 1    
    89   45   47 1    
    90   45  122 1    
    91   46  123 1    
    92   46  124 1    
    93   46  125 1    
    94   47   48 am   BACKBONE|DICT|INTERRES
    95   47  126 1    
    96   48   49 2    
    97   48   50 1    
    98   50   51 1    
    99   50   52 1    
   100   50  127 1    
   101   51  128 1    
   102   51  129 1    
   103   51  130 1    
   104   52   53 am   BACKBONE|DICT|INTERRES
   105   52  131 1    
   106   53   54 2    
   107   53   55 1    
   108   55   56 1    
   109   55   59 1    
   110   55  132 1    
   111   56   57 1    
   112   56  133 1    
   113   56  134 1    
   114   57   58 1    
   115   58  135 1    
   116   58  136 1    
   117   59   60 am   BACKBONE|DICT|INTERRES
   118   59  137 1    
   119   60   61 2    
   120   60   62 1    
   121   62   63 1    
   122   62   64 1    
   123   62  138 1    
   124   63  139 1    
   125   63  140 1    
   126   63  141 1    
   127   64   65 am   BACKBONE|DICT|INTERRES
   128   64  142 1    
   129   65   66 2    
   130   65   67 1    
   131   67   68 1    
   132   67   69 1    
   133   67  143 1    
   134   68  144 1    
   135   68  145 1    
   136   68  146 1    
   137   69   70 am   BACKBONE|DICT|INTERRES
   138   69  147 1    
   139   70   71 2    
   140   70   72 1    
   141   72   73 1    
   142   72   74 1    
   143   72  148 1    
   144   73  149 1    
   145   73  150 1    
   146   73  151 1    
   147   74   75 am   BACKBONE|DICT|INTERRES
   148   74  152 1    
   149   75   76 2    
   150   75   77 1    
   151   77   78 1    
   152   77   79 1    
   153   77  153 1    
   154   78  154 1    
   155   78  155 1    
   156   78  156 1    
   157   79   80 am   BACKBONE|DICT|INTERRES
   158   79  157 1    
   159   80   81 2    
@<TRIPOS>SUBSTRUCTURE
     1 UNK         1 GROUP             0       ****    0 ROOT    
