@<TRIPOS>MOLECULE
3R207
157   159    1
SMALL
USER_CHARGES


@<TRIPOS>ATOM
      1 CA        -47.2622  -25.5022   11.1415 C.3       0 UNK        -0.1975 
      2 C         -47.0694  -26.3702    9.9070 C.2       0 UNK         0.4852 
      3 O         -47.7094  -26.1322    8.8829 O.2       0 UNK        -0.5216 
      4 N         -46.1678  -27.3564    9.9993 N.am      1 UNK        -0.4461 
      5 CA        -45.8047  -28.3539    8.9760 C.3       1 UNK         0.0864 
      6 C6        -46.9934  -29.2371    8.5078 C.3       14 UNK        -0.0898 
      7 S7        -47.5754  -30.3148    9.8551 S.3       14 UNK        -0.2598 
      8 C8        -48.8854  -31.2600    9.0246 C.3       14 UNK         0.0286 
      9 C9        -50.2096  -30.5114    9.0183 C.ar      14 UNK        -0.0844 
     10 C10       -50.6347  -29.8276    7.8750 C.ar      14 UNK        -0.0881 
     11 C11       -51.8822  -29.1963    7.8495 C.ar      14 UNK        -0.0643 
     12 C12       -52.7024  -29.2489    8.9825 C.ar      14 UNK        -0.0930 
     13 C13       -52.2815  -29.9175   10.1359 C.ar      14 UNK        -0.0827 
     14 C14       -51.0328  -30.5445   10.1480 C.ar      14 UNK        -0.1249 
     15 C15       -53.1964  -30.0044   11.3485 C.3       14 UNK         0.0141 
     16 S16       -53.2342  -28.4408   12.2800 S.3       14 UNK        -0.2313 
     17 C17       -55.0339  -28.1732   12.4277 C.3       14 UNK        -0.0915 
     18 CA        -55.4137  -26.7372   12.8807 C.3       13 UNK         0.0968 
     19 C         -56.9572  -26.5231   12.8207 C.2       13 UNK         0.5732 
     20 N         -57.6431  -26.1983   13.9120 N.am      13 UNK        -0.7310 
     21 O         -57.5496  -26.6512   11.7519 O.2       13 UNK        -0.5035 
     22 N         -54.8031  -26.3967   14.1737 N.am      13 UNK        -0.4233 
     23 C         -54.6486  -25.1540   14.6483 C.2       13 UNK         0.4989 
     24 O         -54.9162  -24.1353   14.0097 O.2       13 UNK        -0.4996 
     25 CA        -54.1139  -25.0485   16.0891 C.3       12 UNK         0.0216 
     26 CB        -54.3382  -23.6564   16.7166 C.3       12 UNK        -0.1964 
     27 N         -54.6345  -26.1094   16.9637 N.am      12 UNK        -0.4276 
     28 C         -55.9209  -26.3628   17.2609 C.2       12 UNK         0.5020 
     29 O         -56.8586  -25.6997   16.8152 O.2       12 UNK        -0.5489 
     30 CA        -56.2415  -27.5851   18.1485 C.3       11 UNK         0.0294 
     31 CB        -57.2101  -28.5380   17.4246 C.3       11 UNK        -0.2019 
     32 N         -55.0590  -28.3484   18.5532 N.am      11 UNK        -0.4493 
     33 C         -54.2043  -28.0084   19.5277 C.2       11 UNK         0.4932 
     34 O         -54.3696  -27.0479   20.2791 O.2       11 UNK        -0.5029 
     35 CA        -52.9253  -28.8613   19.6562 C.3       10 UNK         0.0280 
     36 CB        -53.0864  -29.9019   20.7760 C.3       10 UNK        -0.1976 
     37 N         -52.5241  -29.5413   18.4146 N.am      10 UNK        -0.4242 
     38 C         -52.2195  -28.9278   17.2618 C.2       10 UNK         0.5072 
     39 O         -52.2620  -27.7054   17.1068 O.2       10 UNK        -0.5224 
     40 CA        -51.9119  -29.8393   16.0636 C.3       9 UNK         0.0343 
     41 CB        -53.2209  -30.3406   15.4301 C.3       9 UNK        -0.2003 
     42 N         -51.1249  -29.1436   15.0432 N.am      9 UNK        -0.4272 
     43 C         -49.8213  -28.8554   15.1619 C.2       9 UNK         0.4988 
     44 O         -49.1317  -29.1932   16.1254 O.2       9 UNK        -0.5108 
     45 CA        -49.1588  -28.0874   14.0057 C.3       8 UNK         0.0248 
     46 CB        -48.5145  -29.0704   13.0183 C.3       8 UNK        -0.2001 
     47 N         -50.0788  -27.2104   13.2766 N.am      8 UNK        -0.4140 
     48 C         -50.4716  -26.0024   13.7058 C.2       8 UNK         0.5028 
     49 O         -50.1118  -25.5096   14.7752 O.2       8 UNK        -0.5428 
     50 CA        -51.3841  -25.2006   12.7630 C.3       7 UNK         0.0264 
     51 CB        -51.3868  -23.6879   13.0584 C.3       7 UNK        -0.1988 
     52 N         -51.0226  -25.4349   11.3647 N.am      7 UNK        -0.4454 
     53 C         -51.8908  -25.4873   10.3477 C.2       7 UNK         0.5027 
     54 O         -53.1027  -25.3009   10.4675 O.2       7 UNK        -0.5083 
     55 CA        -51.2787  -25.7884    8.9646 C.3       6 UNK         0.0844 
     56 C56       -52.3469  -25.9729    7.8536 C.3       14 UNK        -0.0967 
     57 S57       -51.6408  -26.8247    6.4029 S.3       14 UNK        -0.2604 
     58 C58       -52.3570  -28.4905    6.5850 C.3       14 UNK         0.0134 
     59 N         -50.2504  -24.8112    8.5867 N.am      6 UNK        -0.4116 
     60 C         -50.4038  -23.4815    8.4804 C.2       5 UNK         0.5034 
     61 O         -51.4113  -22.8619    8.8229 O.2       5 UNK        -0.5045 
     62 CA        -49.2507  -22.7119    7.8167 C.3       5 UNK         0.0224 
     63 CB        -48.0810  -22.4907    8.7884 C.3       5 UNK        -0.1978 
     64 N         -48.7732  -23.3656    6.5944 N.am      5 UNK        -0.4737 
     65 C         -49.5068  -23.5051    5.4766 C.2       4 UNK         0.5027 
     66 O         -50.6528  -23.0678    5.3591 O.2       4 UNK        -0.5211 
     67 CA        -48.8485  -24.2414    4.2893 C.3       4 UNK         0.0297 
     68 CB        -49.5348  -23.9434    2.9391 C.3       4 UNK        -0.1993 
     69 N         -47.4021  -24.0108    4.2020 N.am      4 UNK        -0.4486 
     70 C         -46.7674  -22.8331    4.0879 C.2       3 UNK         0.4961 
     71 O         -47.3407  -21.7614    3.8864 O.2       3 UNK        -0.5105 
     72 CA        -45.2302  -22.8518    4.2431 C.3       3 UNK         0.0299 
     73 CB        -44.7121  -21.5890    4.9645 C.3       3 UNK        -0.1972 
     74 N         -44.6881  -24.0601    4.8884 N.am      3 UNK        -0.4305 
     75 C         -44.9765  -24.5307    6.1116 C.2       2 UNK         0.5006 
     76 O         -45.8035  -24.0265    6.8758 O.2       2 UNK        -0.5106 
     77 CA        -44.2178  -25.7886    6.5393 C.3       2 UNK         0.0296 
     78 CB        -42.8203  -25.4333    7.0782 C.3       2 UNK        -0.2002 
     79 N         -44.9832  -26.4775    7.5735 N.am      2 UNK        -0.4032 
     80 C         -44.9946  -27.7982    7.7818 C.2       1 UNK         0.5000 
     81 O         -44.3501  -28.5895    7.0895 O.2       1 UNK        -0.5238 
     82 H82       -47.4234  -26.1134   12.0291 H         1 UNK         0.0889 
     83 H83       -48.1184  -24.8398   11.0235 H         1 UNK         0.0889 
     84 H84       -46.3813  -24.8818   11.3056 H         1 UNK         0.0889 
     85 H85       -45.6625  -27.4591   10.8686 H         1 UNK         0.3028 
     86 H86       -45.0979  -29.0153    9.4804 H         1 UNK         0.0864 
     87 H87       -46.6948  -29.8848    7.6811 H         1 UNK         0.0720 
     88 H88       -47.8221  -28.6317    8.1384 H         1 UNK         0.0720 
     89 H89       -49.0125  -32.2096    9.5467 H         1 UNK         0.0814 
     90 H90       -48.5761  -31.5152    8.0099 H         1 UNK         0.0814 
     91 H91       -50.0033  -29.7990    6.9974 H         1 UNK         0.1469 
     92 H92       -53.6749  -28.7764    8.9686 H         1 UNK         0.1381 
     93 H93       -50.7073  -31.0794   11.0298 H         1 UNK         0.1206 
     94 H94       -52.8718  -30.8020   12.0181 H         1 UNK         0.0813 
     95 H95       -54.1979  -30.2828   11.0183 H         1 UNK         0.0813 
     96 H96       -55.4402  -28.9145   13.1180 H         1 UNK         0.0638 
     97 H97       -55.4796  -28.3815   11.4531 H         1 UNK         0.0638 
     98 H98       -55.0022  -26.0469   12.1434 H         1 UNK         0.0568 
     99 H99       -57.1878  -26.0504   14.8049 H         1 UNK         0.3450 
    100 H100      -58.6385  -26.0646   13.8361 H         1 UNK         0.3450 
    101 H101      -54.5629  -27.1734   14.7687 H         1 UNK         0.2987 
    102 H102      -53.0364  -25.2091   16.0224 H         1 UNK         0.0766 
    103 H103      -53.8398  -22.8803   16.1344 H         1 UNK         0.0798 
    104 H104      -53.9361  -23.6090   17.7286 H         1 UNK         0.0798 
    105 H105      -55.3967  -23.3986   16.7632 H         1 UNK         0.0798 
    106 H106      -53.9204  -26.7374   17.3252 H         1 UNK         0.3198 
    107 H107      -56.7378  -27.2081   19.0454 H         1 UNK         0.0843 
    108 H108      -56.7810  -28.9273   16.5004 H         1 UNK         0.0831 
    109 H109      -58.1388  -28.0294   17.1615 H         1 UNK         0.0831 
    110 H110      -57.4794  -29.3858   18.0548 H         1 UNK         0.0831 
    111 H111      -54.8429  -29.1676   18.0049 H         1 UNK         0.3133 
    112 H112      -52.1140  -28.1850   19.9332 H         1 UNK         0.0566 
    113 H113      -52.1587  -30.4478   20.9490 H         1 UNK         0.0814 
    114 H114      -53.8670  -30.6279   20.5448 H         1 UNK         0.0814 
    115 H115      -53.3568  -29.4228   21.7183 H         1 UNK         0.0814 
    116 H116      -52.4792  -30.5502   18.4504 H         1 UNK         0.3091 
    117 H117      -51.3392  -30.7003   16.4154 H         1 UNK         0.0702 
    118 H118      -53.0253  -30.9757   14.5661 H         1 UNK         0.0785 
    119 H119      -53.8552  -29.5163   15.1034 H         1 UNK         0.0785 
    120 H120      -53.7998  -30.9353   16.1378 H         1 UNK         0.0785 
    121 H121      -51.6245  -28.8065   14.2332 H         1 UNK         0.2998 
    122 H122      -48.3635  -27.4739   14.4350 H         1 UNK         0.0697 
    123 H123      -49.2576  -29.7053   12.5350 H         1 UNK         0.0825 
    124 H124      -47.8052  -29.7271   13.5238 H         1 UNK         0.0825 
    125 H125      -47.9649  -28.5449   12.2386 H         1 UNK         0.0825 
    126 H126      -50.4513  -27.5612   12.4053 H         1 UNK         0.3029 
    127 H127      -52.3913  -25.5813   12.9320 H         1 UNK         0.0897 
    128 H128      -50.3965  -23.2511   12.9257 H         1 UNK         0.0792 
    129 H129      -51.7024  -23.4872   14.0831 H         1 UNK         0.0792 
    130 H130      -52.0786  -23.1592   12.4023 H         1 UNK         0.0792 
    131 H131      -50.0426  -25.5814   11.1722 H         1 UNK         0.3086 
    132 H132      -50.7579  -26.7402    9.0857 H         1 UNK         0.0583 
    133 H133      -53.2046  -26.5426    8.2130 H         1 UNK         0.1020 
    134 H134      -52.7495  -25.0086    7.5389 H         1 UNK         0.1020 
    135 H135      -53.4458  -28.4192    6.5703 H         1 UNK         0.0694 
    136 H136      -52.0828  -29.0860    5.7130 H         1 UNK         0.0694 
    137 H137      -49.3496  -25.2107    8.3376 H         1 UNK         0.2989 
    138 H138      -49.6395  -21.7306    7.5347 H         1 UNK         0.1055 
    139 H139      -47.5730  -23.4230    9.0306 H         1 UNK         0.0806 
    140 H140      -48.4237  -22.0471    9.7242 H         1 UNK         0.0806 
    141 H141      -47.3390  -21.8159    8.3610 H         1 UNK         0.0806 
    142 H142      -47.8212  -23.7196    6.6104 H         1 UNK         0.3061 
    143 H143      -48.9763  -25.3056    4.4942 H         1 UNK         0.0734 
    144 H144      -49.5076  -22.8806    2.6970 H         1 UNK         0.0832 
    145 H145      -49.0592  -24.4866    2.1227 H         1 UNK         0.0832 
    146 H146      -50.5829  -24.2448    2.9592 H         1 UNK         0.0832 
    147 H147      -46.8241  -24.8238    4.3595 H         1 UNK         0.3156 
    148 H148      -44.8272  -22.8425    3.2294 H         1 UNK         0.0589 
    149 H149      -43.6260  -21.5998    5.0543 H         1 UNK         0.0808 
    150 H150      -44.9797  -20.6840    4.4176 H         1 UNK         0.0808 
    151 H151      -45.1309  -21.4978    5.9675 H         1 UNK         0.0808 
    152 H152      -44.0064  -24.5668    4.3392 H         1 UNK         0.3098 
    153 H153      -44.1180  -26.4375    5.6664 H         1 UNK         0.0720 
    154 H154      -42.2272  -24.9120    6.3258 H         1 UNK         0.0791 
    155 H155      -42.2659  -26.3280    7.3625 H         1 UNK         0.0791 
    156 H156      -42.8809  -24.7854    7.9538 H         1 UNK         0.0791 
    157 H157      -45.6234  -25.8913    8.0984 H         1 UNK         0.3028 
@<TRIPOS>BOND
     1    1    2 1    
     2    1   82 1    
     3    1   83 1    
     4    1   84 1    
     5    2    3 2    
     6    2    4 am   BACKBONE|DICT|INTERRES
     7    4    5 1    
     8    4   85 1    
     9    5    6 1    
    10    5   80 1    
    11    5   86 1    
    12    6    7 1    
    13    6   87 1    
    14    6   88 1    
    15    7    8 1    
    16    8    9 1    
    17    8   89 1    
    18    8   90 1    
    19    9   10 ar   
    20    9   14 ar   
    21   10   11 ar   
    22   10   91 1    
    23   11   12 ar   
    24   11   58 1    
    25   12   13 ar   
    26   12   92 1    
    27   13   14 ar   
    28   13   15 1    
    29   14   93 1    
    30   15   16 1    
    31   15   94 1    
    32   15   95 1    
    33   16   17 1    
    34   17   18 1    
    35   17   96 1    
    36   17   97 1    
    37   18   19 1    
    38   18   22 1    
    39   18   98 1    
    40   19   20 am   BACKBONE|DICT|INTERRES
    41   19   21 2    
    42   20   99 1    
    43   20  100 1    
    44   22   23 am   BACKBONE|DICT|INTERRES
    45   22  101 1    
    46   23   24 2    
    47   23   25 1    
    48   25   26 1    
    49   25   27 1    
    50   25  102 1    
    51   26  103 1    
    52   26  104 1    
    53   26  105 1    
    54   27   28 am   BACKBONE|DICT|INTERRES
    55   27  106 1    
    56   28   29 2    
    57   28   30 1    
    58   30   31 1    
    59   30   32 1    
    60   30  107 1    
    61   31  108 1    
    62   31  109 1    
    63   31  110 1    
    64   32   33 am   BACKBONE|DICT|INTERRES
    65   32  111 1    
    66   33   34 2    
    67   33   35 1    
    68   35   36 1    
    69   35   37 1    
    70   35  112 1    
    71   36  113 1    
    72   36  114 1    
    73   36  115 1    
    74   37   38 am   BACKBONE|DICT|INTERRES
    75   37  116 1    
    76   38   39 2    
    77   38   40 1    
    78   40   41 1    
    79   40   42 1    
    80   40  117 1    
    81   41  118 1    
    82   41  119 1    
    83   41  120 1    
    84   42   43 am   BACKBONE|DICT|INTERRES
    85   42  121 1    
    86   43   44 2    
    87   43   45 1    
    88   45   46 1    
    89   45   47 1    
    90   45  122 1    
    91   46  123 1    
    92   46  124 1    
    93   46  125 1    
    94   47   48 am   BACKBONE|DICT|INTERRES
    95   47  126 1    
    96   48   49 2    
    97   48   50 1    
    98   50   51 1    
    99   50   52 1    
   100   50  127 1    
   101   51  128 1    
   102   51  129 1    
   103   51  130 1    
   104   52   53 am   BACKBONE|DICT|INTERRES
   105   52  131 1    
   106   53   54 2    
   107   53   55 1    
   108   55   56 1    
   109   55   59 1    
   110   55  132 1    
   111   56   57 1    
   112   56  133 1    
   113   56  134 1    
   114   57   58 1    
   115   58  135 1    
   116   58  136 1    
   117   59   60 am   BACKBONE|DICT|INTERRES
   118   59  137 1    
   119   60   61 2    
   120   60   62 1    
   121   62   63 1    
   122   62   64 1    
   123   62  138 1    
   124   63  139 1    
   125   63  140 1    
   126   63  141 1    
   127   64   65 am   BACKBONE|DICT|INTERRES
   128   64  142 1    
   129   65   66 2    
   130   65   67 1    
   131   67   68 1    
   132   67   69 1    
   133   67  143 1    
   134   68  144 1    
   135   68  145 1    
   136   68  146 1    
   137   69   70 am   BACKBONE|DICT|INTERRES
   138   69  147 1    
   139   70   71 2    
   140   70   72 1    
   141   72   73 1    
   142   72   74 1    
   143   72  148 1    
   144   73  149 1    
   145   73  150 1    
   146   73  151 1    
   147   74   75 am   BACKBONE|DICT|INTERRES
   148   74  152 1    
   149   75   76 2    
   150   75   77 1    
   151   77   78 1    
   152   77   79 1    
   153   77  153 1    
   154   78  154 1    
   155   78  155 1    
   156   78  156 1    
   157   79   80 am   BACKBONE|DICT|INTERRES
   158   79  157 1    
   159   80   81 2    
@<TRIPOS>SUBSTRUCTURE
     1 UNK         1 GROUP             0       ****    0 ROOT    
