@<TRIPOS>MOLECULE
3R207
157   159    1
SMALL
USER_CHARGES


@<TRIPOS>ATOM
      1 CA        -53.7689  -24.4404    4.6000 C.3       0 UNK        -0.1975 
      2 C         -52.5285  -24.8653    5.3709 C.2       0 UNK         0.4852 
      3 O         -52.0528  -25.9863    5.1866 O.2       0 UNK        -0.5216 
      4 N         -52.0015  -23.9751    6.2250 N.am      1 UNK        -0.4461 
      5 CA        -50.8384  -24.1363    7.1154 C.3       1 UNK         0.0864 
      6 C6        -50.9987  -25.2687    8.1657 C.3       14 UNK        -0.0898 
      7 S7        -52.2764  -24.8771    9.4070 S.3       14 UNK        -0.2598 
      8 C8        -53.6908  -25.8866    8.8431 C.3       14 UNK         0.0286 
      9 C9        -53.5023  -27.4043    8.9015 C.ar      14 UNK        -0.0844 
     10 C10       -52.5045  -28.0177    9.6713 C.ar      14 UNK        -0.0881 
     11 C11       -52.3644  -29.4116    9.6914 C.ar      14 UNK        -0.0643 
     12 C12       -53.2401  -30.1901    8.9313 C.ar      14 UNK        -0.0930 
     13 C13       -54.2676  -29.5995    8.1922 C.ar      14 UNK        -0.0827 
     14 C14       -54.3842  -28.2082    8.1736 C.ar      14 UNK        -0.1249 
     15 C15       -55.2497  -30.4595    7.4093 C.3       14 UNK         0.0141 
     16 S16       -56.7131  -30.9002    8.4054 S.3       14 UNK        -0.2313 
     17 C17       -56.0296  -32.1613    9.5381 C.3       14 UNK        -0.0915 
     18 CA        -56.0484  -31.7623   11.0410 C.3       13 UNK         0.0968 
     19 C         -55.3347  -32.8533   11.8932 C.2       13 UNK         0.5732 
     20 N         -54.1959  -32.5735   12.5162 N.am      13 UNK        -0.7310 
     21 O         -55.8260  -33.9757   11.9875 O.2       13 UNK        -0.5035 
     22 N         -55.5881  -30.3807   11.2707 N.am      13 UNK        -0.4233 
     23 C         -55.7674  -29.6942   12.4068 C.2       13 UNK         0.4989 
     24 O         -56.2788  -30.1773   13.4195 O.2       13 UNK        -0.4996 
     25 CA        -55.2930  -28.2285   12.3825 C.3       12 UNK         0.0216 
     26 CB        -56.1290  -27.3849   11.3956 C.3       12 UNK        -0.1964 
     27 N         -55.2543  -27.5964   13.7095 N.am      12 UNK        -0.4276 
     28 C         -56.2708  -27.2465   14.5119 C.2       12 UNK         0.5020 
     29 O         -57.4622  -27.3862   14.2306 O.2       12 UNK        -0.5489 
     30 CA        -55.9093  -26.5857   15.8578 C.3       11 UNK         0.0294 
     31 CB        -55.6331  -27.6451   16.9434 C.3       11 UNK        -0.2019 
     32 N         -54.8330  -25.5823   15.7836 N.am      11 UNK        -0.4493 
     33 C         -53.5294  -25.7636   15.5280 C.2       11 UNK         0.4932 
     34 O         -53.0296  -26.8686   15.3040 O.2       11 UNK        -0.5029 
     35 CA        -52.6557  -24.4969   15.4331 C.3       10 UNK         0.0280 
     36 CB        -53.1780  -23.2965   16.2560 C.3       10 UNK        -0.1976 
     37 N         -51.2518  -24.7852   15.7327 N.am      10 UNK        -0.4242 
     38 C         -50.7137  -25.1314   16.9106 C.2       10 UNK         0.5072 
     39 O         -51.3373  -25.1872   17.9720 O.2       10 UNK        -0.5224 
     40 CA        -49.2120  -25.4745   16.9095 C.3       9 UNK         0.0343 
     41 CB        -49.0101  -26.9792   16.6698 C.3       9 UNK        -0.2003 
     42 N         -48.4357  -24.7134   15.9239 N.am      9 UNK        -0.4272 
     43 C         -48.2012  -23.3941   15.9963 C.2       9 UNK         0.4988 
     44 O         -48.5748  -22.6825   16.9297 O.2       9 UNK        -0.5108 
     45 CA        -47.4213  -22.7537   14.8338 C.3       8 UNK         0.0248 
     46 CB        -45.9107  -22.9910   14.9925 C.3       8 UNK        -0.2001 
     47 N         -47.8614  -23.2283   13.5201 N.am      8 UNK        -0.4140 
     48 C         -49.0655  -22.9794   12.9831 C.2       8 UNK         0.5028 
     49 O         -49.9140  -22.2543   13.5031 O.2       8 UNK        -0.5428 
     50 CA        -49.3940  -23.6878   11.6563 C.3       7 UNK         0.0264 
     51 CB        -48.7995  -22.9185   10.4660 C.3       7 UNK        -0.1988 
     52 N         -48.9407  -25.0823   11.6297 N.am      7 UNK        -0.4454 
     53 C         -49.3672  -26.0321   12.4768 C.2       7 UNK         0.5027 
     54 O         -50.2319  -25.8410   13.3291 O.2       7 UNK        -0.5083 
     55 CA        -48.6633  -27.4012   12.4131 C.3       6 UNK         0.0844 
     56 C56       -49.2893  -28.3345   11.3498 C.3       14 UNK        -0.0967 
     57 S57       -50.7343  -29.2368   11.9998 S.3       14 UNK        -0.2604 
     58 C58       -51.2794  -30.1214   10.5013 C.3       14 UNK         0.0134 
     59 N         -47.2216  -27.2409   12.2237 N.am      6 UNK        -0.4116 
     60 C         -46.3775  -26.7940   13.1636 C.2       5 UNK         0.5034 
     61 O         -46.7167  -26.5074   14.3110 O.2       5 UNK        -0.5045 
     62 CA        -44.9142  -26.5914   12.7356 C.3       5 UNK         0.0224 
     63 CB        -44.1253  -27.9040   12.8635 C.3       5 UNK        -0.1978 
     64 N         -44.7941  -26.0755   11.3688 N.am      5 UNK        -0.4737 
     65 C         -45.2132  -24.8608   10.9882 C.2       4 UNK         0.5027 
     66 O         -45.6857  -24.0311   11.7640 O.2       4 UNK        -0.5211 
     67 CA        -45.1423  -24.5375    9.4860 C.3       4 UNK         0.0297 
     68 CB        -43.7700  -23.9458    9.1289 C.3       4 UNK        -0.1993 
     69 N         -45.4296  -25.6799    8.6092 N.am      4 UNK        -0.4486 
     70 C         -46.5657  -26.3895    8.6154 C.2       3 UNK         0.4961 
     71 O         -47.4899  -26.2051    9.4098 O.2       3 UNK        -0.5105 
     72 CA        -46.7079  -27.4716    7.5367 C.3       3 UNK         0.0299 
     73 CB        -47.3533  -28.7516    8.0967 C.3       3 UNK        -0.1972 
     74 N         -47.5425  -26.9442    6.4628 N.am      3 UNK        -0.4305 
     75 C         -47.1122  -26.1295    5.4897 C.2       2 UNK         0.5006 
     76 O         -45.9258  -25.8683    5.2857 O.2       2 UNK        -0.5106 
     77 CA        -48.1957  -25.4689    4.6190 C.3       2 UNK         0.0296 
     78 CB        -48.5571  -26.3654    3.4240 C.3       2 UNK        -0.2002 
     79 N         -49.4106  -25.1496    5.3754 N.am      2 UNK        -0.4032 
     80 C         -49.4912  -24.2561    6.3707 C.2       1 UNK         0.5000 
     81 O         -48.5519  -23.5363    6.7132 O.2       1 UNK        -0.5238 
     82 H82       -53.5716  -24.4666    3.5287 H         1 UNK         0.0889 
     83 H83       -54.0883  -23.4320    4.8624 H         1 UNK         0.0889 
     84 H84       -54.5918  -25.1226    4.8120 H         1 UNK         0.0889 
     85 H85       -52.4423  -23.0679    6.2915 H         1 UNK         0.3028 
     86 H86       -50.7755  -23.1957    7.6657 H         1 UNK         0.0864 
     87 H87       -50.0689  -25.4202    8.7172 H         1 UNK         0.0720 
     88 H88       -51.2152  -26.2254    7.6892 H         1 UNK         0.0720 
     89 H89       -53.9408  -25.5904    7.8245 H         1 UNK         0.0814 
     90 H90       -54.5548  -25.6245    9.4533 H         1 UNK         0.0814 
     91 H91       -51.8358  -27.4071   10.2574 H         1 UNK         0.1469 
     92 H92       -53.1253  -31.2649    8.9271 H         1 UNK         0.1381 
     93 H93       -55.1728  -27.7483    7.5932 H         1 UNK         0.1206 
     94 H94       -55.5825  -29.9204    6.5211 H         1 UNK         0.0813 
     95 H95       -54.7623  -31.3650    7.0444 H         1 UNK         0.0813 
     96 H96       -55.0204  -32.4235    9.2217 H         1 UNK         0.0638 
     97 H97       -56.6175  -33.0699    9.3955 H         1 UNK         0.0638 
     98 H98       -57.0931  -31.7835   11.3571 H         1 UNK         0.0568 
     99 H99       -53.7950  -31.6521   12.4587 H         1 UNK         0.3450 
    100 H100      -53.7470  -33.2882   13.0663 H         1 UNK         0.3450 
    101 H101      -55.1582  -29.9262   10.4766 H         1 UNK         0.2987 
    102 H102      -54.2599  -28.2357   12.0315 H         1 UNK         0.0766 
    103 H103      -55.8034  -26.3451   11.3904 H         1 UNK         0.0798 
    104 H104      -57.1909  -27.4010   11.6416 H         1 UNK         0.0798 
    105 H105      -56.0390  -27.7592   10.3767 H         1 UNK         0.0798 
    106 H106      -54.3246  -27.4604   14.1025 H         1 UNK         0.3198 
    107 H107      -56.7950  -26.0309   16.1726 H         1 UNK         0.0843 
    108 H108      -54.7768  -28.2733   16.6968 H         1 UNK         0.0831 
    109 H109      -56.4916  -28.3073   17.0636 H         1 UNK         0.0831 
    110 H110      -55.4422  -27.1818   17.9113 H         1 UNK         0.0831 
    111 H111      -55.1409  -24.6280   15.9115 H         1 UNK         0.3133 
    112 H112      -52.6680  -24.2031   14.3826 H         1 UNK         0.0566 
    113 H113      -52.4729  -22.4654   16.2247 H         1 UNK         0.0814 
    114 H114      -54.1223  -22.9217   15.8604 H         1 UNK         0.0814 
    115 H115      -53.3370  -23.5559   17.3033 H         1 UNK         0.0814 
    116 H116      -50.6719  -24.9176   14.9071 H         1 UNK         0.3091 
    117 H117      -48.8191  -25.2342   17.8996 H         1 UNK         0.0702 
    118 H118      -47.9571  -27.2547   16.7309 H         1 UNK         0.0785 
    119 H119      -49.3815  -27.2825   15.6904 H         1 UNK         0.0785 
    120 H120      -49.5442  -27.5682   17.4167 H         1 UNK         0.0785 
    121 H121      -48.0290  -25.2425   15.1590 H         1 UNK         0.2998 
    122 H122      -47.5979  -21.6767   14.8714 H         1 UNK         0.0697 
    123 H123      -45.6592  -24.0507   14.9441 H         1 UNK         0.0825 
    124 H124      -45.5552  -22.6144   15.9525 H         1 UNK         0.0825 
    125 H125      -45.3455  -22.4790   14.2134 H         1 UNK         0.0825 
    126 H126      -47.1884  -23.7607   12.9749 H         1 UNK         0.3029 
    127 H127      -50.4804  -23.6982   11.5483 H         1 UNK         0.0897 
    128 H128      -48.9933  -23.4256    9.5222 H         1 UNK         0.0792 
    129 H129      -47.7214  -22.7940   10.5602 H         1 UNK         0.0792 
    130 H130      -49.2349  -21.9212   10.3946 H         1 UNK         0.0792 
    131 H131      -48.2636  -25.3392   10.9153 H         1 UNK         0.3086 
    132 H132      -48.7896  -27.8734   13.3900 H         1 UNK         0.0583 
    133 H133      -49.5524  -27.7921   10.4398 H         1 UNK         0.1020 
    134 H134      -48.5631  -29.0900   11.0455 H         1 UNK         0.1020 
    135 H135      -50.4243  -30.3206    9.8542 H         1 UNK         0.0694 
    136 H136      -51.6504  -31.0960   10.8227 H         1 UNK         0.0694 
    137 H137      -46.8755  -27.3614   11.2827 H         1 UNK         0.2989 
    138 H138      -44.4732  -25.8578   13.4145 H         1 UNK         0.1055 
    139 H139      -44.1874  -28.2977   13.8791 H         1 UNK         0.0806 
    140 H140      -43.0686  -27.7547   12.6408 H         1 UNK         0.0806 
    141 H141      -44.5051  -28.6747   12.1916 H         1 UNK         0.0806 
    142 H142      -44.4085  -26.6932   10.6689 H         1 UNK         0.3061 
    143 H143      -45.9009  -23.7796    9.2813 H         1 UNK         0.0734 
    144 H144      -43.7398  -23.6092    8.0924 H         1 UNK         0.0832 
    145 H145      -43.5443  -23.0806    9.7542 H         1 UNK         0.0832 
    146 H146      -42.9666  -24.6695    9.2722 H         1 UNK         0.0832 
    147 H147      -44.7464  -25.8816    7.8921 H         1 UNK         0.3156 
    148 H148      -45.7202  -27.7295    7.1485 H         1 UNK         0.0589 
    149 H149      -48.3750  -28.5794    8.4360 H         1 UNK         0.0808 
    150 H150      -47.3843  -29.5379    7.3424 H         1 UNK         0.0808 
    151 H151      -46.7854  -29.1386    8.9436 H         1 UNK         0.0808 
    152 H152      -48.5378  -27.0770    6.5627 H         1 UNK         0.3098 
    153 H153      -47.7854  -24.5328    4.2345 H         1 UNK         0.0720 
    154 H154      -49.2665  -25.8719    2.7593 H         1 UNK         0.0791 
    155 H155      -48.9999  -27.3091    3.7451 H         1 UNK         0.0791 
    156 H156      -47.6716  -26.6035    2.8328 H         1 UNK         0.0791 
    157 H157      -50.2600  -25.6663    5.1518 H         1 UNK         0.3028 
@<TRIPOS>BOND
     1    1    2 1    
     2    1   82 1    
     3    1   83 1    
     4    1   84 1    
     5    2    3 2    
     6    2    4 am   BACKBONE|DICT|INTERRES
     7    4    5 1    
     8    4   85 1    
     9    5    6 1    
    10    5   80 1    
    11    5   86 1    
    12    6    7 1    
    13    6   87 1    
    14    6   88 1    
    15    7    8 1    
    16    8    9 1    
    17    8   89 1    
    18    8   90 1    
    19    9   10 ar   
    20    9   14 ar   
    21   10   11 ar   
    22   10   91 1    
    23   11   12 ar   
    24   11   58 1    
    25   12   13 ar   
    26   12   92 1    
    27   13   14 ar   
    28   13   15 1    
    29   14   93 1    
    30   15   16 1    
    31   15   94 1    
    32   15   95 1    
    33   16   17 1    
    34   17   18 1    
    35   17   96 1    
    36   17   97 1    
    37   18   19 1    
    38   18   22 1    
    39   18   98 1    
    40   19   20 am   BACKBONE|DICT|INTERRES
    41   19   21 2    
    42   20   99 1    
    43   20  100 1    
    44   22   23 am   BACKBONE|DICT|INTERRES
    45   22  101 1    
    46   23   24 2    
    47   23   25 1    
    48   25   26 1    
    49   25   27 1    
    50   25  102 1    
    51   26  103 1    
    52   26  104 1    
    53   26  105 1    
    54   27   28 am   BACKBONE|DICT|INTERRES
    55   27  106 1    
    56   28   29 2    
    57   28   30 1    
    58   30   31 1    
    59   30   32 1    
    60   30  107 1    
    61   31  108 1    
    62   31  109 1    
    63   31  110 1    
    64   32   33 am   BACKBONE|DICT|INTERRES
    65   32  111 1    
    66   33   34 2    
    67   33   35 1    
    68   35   36 1    
    69   35   37 1    
    70   35  112 1    
    71   36  113 1    
    72   36  114 1    
    73   36  115 1    
    74   37   38 am   BACKBONE|DICT|INTERRES
    75   37  116 1    
    76   38   39 2    
    77   38   40 1    
    78   40   41 1    
    79   40   42 1    
    80   40  117 1    
    81   41  118 1    
    82   41  119 1    
    83   41  120 1    
    84   42   43 am   BACKBONE|DICT|INTERRES
    85   42  121 1    
    86   43   44 2    
    87   43   45 1    
    88   45   46 1    
    89   45   47 1    
    90   45  122 1    
    91   46  123 1    
    92   46  124 1    
    93   46  125 1    
    94   47   48 am   BACKBONE|DICT|INTERRES
    95   47  126 1    
    96   48   49 2    
    97   48   50 1    
    98   50   51 1    
    99   50   52 1    
   100   50  127 1    
   101   51  128 1    
   102   51  129 1    
   103   51  130 1    
   104   52   53 am   BACKBONE|DICT|INTERRES
   105   52  131 1    
   106   53   54 2    
   107   53   55 1    
   108   55   56 1    
   109   55   59 1    
   110   55  132 1    
   111   56   57 1    
   112   56  133 1    
   113   56  134 1    
   114   57   58 1    
   115   58  135 1    
   116   58  136 1    
   117   59   60 am   BACKBONE|DICT|INTERRES
   118   59  137 1    
   119   60   61 2    
   120   60   62 1    
   121   62   63 1    
   122   62   64 1    
   123   62  138 1    
   124   63  139 1    
   125   63  140 1    
   126   63  141 1    
   127   64   65 am   BACKBONE|DICT|INTERRES
   128   64  142 1    
   129   65   66 2    
   130   65   67 1    
   131   67   68 1    
   132   67   69 1    
   133   67  143 1    
   134   68  144 1    
   135   68  145 1    
   136   68  146 1    
   137   69   70 am   BACKBONE|DICT|INTERRES
   138   69  147 1    
   139   70   71 2    
   140   70   72 1    
   141   72   73 1    
   142   72   74 1    
   143   72  148 1    
   144   73  149 1    
   145   73  150 1    
   146   73  151 1    
   147   74   75 am   BACKBONE|DICT|INTERRES
   148   74  152 1    
   149   75   76 2    
   150   75   77 1    
   151   77   78 1    
   152   77   79 1    
   153   77  153 1    
   154   78  154 1    
   155   78  155 1    
   156   78  156 1    
   157   79   80 am   BACKBONE|DICT|INTERRES
   158   79  157 1    
   159   80   81 2    
@<TRIPOS>SUBSTRUCTURE
     1 UNK         1 GROUP             0       ****    0 ROOT    
