@<TRIPOS>MOLECULE
3R207
157   159    1
SMALL
USER_CHARGES


@<TRIPOS>ATOM
      1 CA        -47.3700  -31.5652    3.9457 C.3       0 UNK        -0.1975 
      2 C         -47.8359  -30.4042    4.8114 C.2       0 UNK         0.4852 
      3 O         -47.1600  -30.0613    5.7827 O.2       0 UNK        -0.5216 
      4 N         -48.9764  -29.7939    4.4558 N.am      1 UNK        -0.4461 
      5 CA        -49.6573  -28.6710    5.1231 C.3       1 UNK         0.0864 
      6 C6        -50.0718  -28.9605    6.5903 C.3       14 UNK        -0.0898 
      7 S7        -51.3023  -30.3038    6.7301 S.3       14 UNK        -0.2598 
      8 C8        -52.8855  -29.4414    6.4376 C.3       14 UNK         0.0286 
      9 C9        -53.1246  -28.3135    7.4309 C.ar      14 UNK        -0.0844 
     10 C10       -52.9018  -26.9884    7.0498 C.ar      14 UNK        -0.0881 
     11 C11       -53.0531  -25.9505    7.9711 C.ar      14 UNK        -0.0643 
     12 C12       -53.4577  -26.2414    9.2763 C.ar      14 UNK        -0.0930 
     13 C13       -53.6814  -27.5632    9.6761 C.ar      14 UNK        -0.0827 
     14 C14       -53.5337  -28.5935    8.7375 C.ar      14 UNK        -0.1249 
     15 C15       -54.0609  -27.8459   11.1281 C.3       14 UNK         0.0141 
     16 S16       -53.2995  -29.3664   11.7948 S.3       14 UNK        -0.2313 
     17 C17       -54.7132  -30.5214   11.8654 C.3       14 UNK        -0.0915 
     18 CA        -54.9594  -31.1151   13.2799 C.3       13 UNK         0.0968 
     19 C         -53.9052  -32.1974   13.6563 C.2       13 UNK         0.5732 
     20 N         -53.9899  -33.3759   13.0530 N.am      13 UNK        -0.7310 
     21 O         -53.0063  -31.9807   14.4675 O.2       13 UNK        -0.5035 
     22 N         -55.1083  -30.0635   14.2979 N.am      13 UNK        -0.4233 
     23 C         -55.5984  -30.2643   15.5291 C.2       13 UNK         0.4989 
     24 O         -56.0906  -31.3287   15.9067 O.2       13 UNK        -0.4996 
     25 CA        -55.5447  -29.0825   16.5077 C.3       12 UNK         0.0216 
     26 CB        -54.2038  -29.0715   17.2603 C.3       12 UNK        -0.1964 
     27 N         -55.7334  -27.8015   15.8239 N.am      12 UNK        -0.4276 
     28 C         -56.9119  -27.1776   15.6899 C.2       12 UNK         0.5020 
     29 O         -57.9672  -27.6283   16.1402 O.2       12 UNK        -0.5489 
     30 CA        -56.9445  -25.8424   14.9124 C.3       11 UNK         0.0294 
     31 CB        -57.8763  -24.8056   15.5762 C.3       11 UNK        -0.2019 
     32 N         -55.6253  -25.2579   14.6332 N.am      11 UNK        -0.4493 
     33 C         -54.7214  -24.8001   15.5120 C.2       11 UNK         0.4932 
     34 O         -54.8827  -24.7670   16.7330 O.2       11 UNK        -0.5029 
     35 CA        -53.3800  -24.3497   14.9070 C.3       10 UNK         0.0280 
     36 CB        -52.9631  -22.9746   15.4571 C.3       10 UNK        -0.1976 
     37 N         -52.2938  -25.3093   15.1366 N.am      10 UNK        -0.4242 
     38 C         -52.3215  -26.6303   14.8988 C.2       10 UNK         0.5072 
     39 O         -53.3062  -27.2278   14.4576 O.2       10 UNK        -0.5224 
     40 CA        -51.0438  -27.4197   15.2295 C.3       9 UNK         0.0343 
     41 CB        -50.9406  -28.7405   14.4463 C.3       9 UNK        -0.2003 
     42 N         -49.8418  -26.6253   14.9709 N.am      9 UNK        -0.4272 
     43 C         -48.9776  -26.2201   15.9092 C.2       9 UNK         0.4988 
     44 O         -49.1244  -26.4266   17.1145 O.2       9 UNK        -0.5108 
     45 CA        -47.7286  -25.4626   15.4320 C.3       8 UNK         0.0248 
     46 CB        -46.6373  -26.4561   15.0024 C.3       8 UNK        -0.2001 
     47 N         -47.9801  -24.5026   14.3524 N.am      8 UNK        -0.4140 
     48 C         -48.7216  -23.3925   14.4849 C.2       8 UNK         0.5028 
     49 O         -49.3383  -23.0995   15.5100 O.2       8 UNK        -0.5428 
     50 CA        -48.7742  -22.4377   13.2805 C.3       7 UNK         0.0264 
     51 CB        -47.4425  -21.6879   13.1114 C.3       7 UNK        -0.1988 
     52 N         -49.1102  -23.1254   12.0356 N.am      7 UNK        -0.4454 
     53 C         -50.3247  -23.6141   11.7458 C.2       7 UNK         0.5027 
     54 O         -51.3126  -23.4631   12.4621 O.2       7 UNK        -0.5083 
     55 CA        -50.4625  -24.4119   10.4335 C.3       6 UNK         0.0844 
     56 C56       -50.7513  -23.4333    9.2666 C.3       14 UNK        -0.0967 
     57 S57       -50.9449  -24.2175    7.6327 S.3       14 UNK        -0.2604 
     58 C58       -52.7376  -24.5251    7.5520 C.3       14 UNK         0.0134 
     59 N         -49.3169  -25.3017   10.2043 N.am      6 UNK        -0.4116 
     60 C         -48.9243  -26.2670   11.0532 C.2       5 UNK         0.5034 
     61 O         -49.5128  -26.5547   12.0957 O.2       5 UNK        -0.5045 
     62 CA        -47.6091  -26.9879   10.7284 C.3       5 UNK         0.0224 
     63 CB        -47.8376  -28.1361    9.7328 C.3       5 UNK        -0.1978 
     64 N         -46.5999  -26.0593   10.2149 N.am      5 UNK        -0.4737 
     65 C         -45.9746  -25.1422   10.9677 C.2       4 UNK         0.5027 
     66 O         -46.1502  -25.0209   12.1788 O.2       4 UNK        -0.5211 
     67 CA        -45.0334  -24.1636   10.2451 C.3       4 UNK         0.0297 
     68 CB        -43.6452  -24.7931   10.0504 C.3       4 UNK        -0.1993 
     69 N         -45.5603  -23.7226    8.9524 N.am      4 UNK        -0.4486 
     70 C         -46.6854  -23.0111    8.7945 C.2       3 UNK         0.4961 
     71 O         -47.3584  -22.5808    9.7313 O.2       3 UNK        -0.5105 
     72 CA        -47.1678  -22.7813    7.3498 C.3       3 UNK         0.0299 
     73 CB        -46.6086  -21.4584    6.8038 C.3       3 UNK        -0.1972 
     74 N         -46.8460  -23.8723    6.4186 N.am      3 UNK        -0.4305 
     75 C         -47.2100  -25.1535    6.5747 C.2       2 UNK         0.5006 
     76 O         -47.8052  -25.5789    7.5664 O.2       2 UNK        -0.5106 
     77 CA        -46.7626  -26.1312    5.4753 C.3       2 UNK         0.0296 
     78 CB        -45.3163  -26.5880    5.7289 C.3       2 UNK        -0.2002 
     79 N         -47.6217  -27.3144    5.4140 N.am      2 UNK        -0.4032 
     80 C         -48.8970  -27.3316    5.0086 C.2       1 UNK         0.5000 
     81 O         -49.4748  -26.3513    4.5347 O.2       1 UNK        -0.5238 
     82 H82       -48.0555  -31.7622    3.1217 H         1 UNK         0.0889 
     83 H83       -47.2927  -32.4713    4.5460 H         1 UNK         0.0889 
     84 H84       -46.3878  -31.3492    3.5262 H         1 UNK         0.0889 
     85 H85       -49.4518  -30.1280    3.6288 H         1 UNK         0.3028 
     86 H86       -50.5780  -28.5248    4.5561 H         1 UNK         0.0864 
     87 H87       -50.4532  -28.0637    7.0781 H         1 UNK         0.0720 
     88 H88       -49.2039  -29.2512    7.1819 H         1 UNK         0.0720 
     89 H89       -53.6989  -30.1649    6.5093 H         1 UNK         0.0814 
     90 H90       -52.9066  -29.0645    5.4140 H         1 UNK         0.0814 
     91 H91       -52.5692  -26.7640    6.0452 H         1 UNK         0.1469 
     92 H92       -53.5729  -25.4369    9.9895 H         1 UNK         0.1381 
     93 H93       -53.7008  -29.6212    9.0283 H         1 UNK         0.1206 
     94 H94       -53.7251  -27.0216   11.7592 H         1 UNK         0.0813 
     95 H95       -55.1464  -27.8708   11.2207 H         1 UNK         0.0813 
     96 H96       -54.5442  -31.3131   11.1335 H         1 UNK         0.0638 
     97 H97       -55.6195  -30.0162   11.5316 H         1 UNK         0.0638 
     98 H98       -55.9184  -31.6354   13.2394 H         1 UNK         0.0568 
     99 H99       -53.3124  -34.0877   13.2765 H         1 UNK         0.3450 
    100 H100      -54.7167  -33.5693   12.3818 H         1 UNK         0.3450 
    101 H101      -54.6596  -29.1827   14.0854 H         1 UNK         0.2987 
    102 H102      -56.3370  -29.2234   17.2462 H         1 UNK         0.0766 
    103 H103      -54.1395  -28.2268   17.9466 H         1 UNK         0.0798 
    104 H104      -53.3554  -29.0171   16.5786 H         1 UNK         0.0798 
    105 H105      -54.0841  -29.9807   17.8510 H         1 UNK         0.0798 
    106 H106      -54.9105  -27.3947   15.3826 H         1 UNK         0.3198 
    107 H107      -57.3713  -26.0852   13.9380 H         1 UNK         0.0843 
    108 H108      -57.5584  -24.5660   16.5913 H         1 UNK         0.0831 
    109 H109      -58.8988  -25.1800   15.6387 H         1 UNK         0.0831 
    110 H110      -57.9089  -23.8773   15.0060 H         1 UNK         0.0831 
    111 H111      -55.3518  -25.2734   13.6600 H         1 UNK         0.3133 
    112 H112      -53.5020  -24.2544   13.8266 H         1 UNK         0.0566 
    113 H113      -52.0714  -22.5996   14.9545 H         1 UNK         0.0814 
    114 H114      -53.7523  -22.2372   15.3057 H         1 UNK         0.0814 
    115 H115      -52.7519  -23.0136   16.5265 H         1 UNK         0.0814 
    116 H116      -51.4326  -24.9211   15.4951 H         1 UNK         0.3091 
    117 H117      -51.1162  -27.6737   16.2886 H         1 UNK         0.0702 
    118 H118      -51.8036  -29.3821   14.6287 H         1 UNK         0.0785 
    119 H119      -50.0544  -29.3044   14.7366 H         1 UNK         0.0785 
    120 H120      -50.8856  -28.5630   13.3720 H         1 UNK         0.0785 
    121 H121      -49.6524  -26.4194   13.9915 H         1 UNK         0.2998 
    122 H122      -47.3470  -24.8974   16.2850 H         1 UNK         0.0697 
    123 H123      -46.9365  -27.0261   14.1222 H         1 UNK         0.0825 
    124 H124      -46.4220  -27.1710   15.7978 H         1 UNK         0.0825 
    125 H125      -45.7043  -25.9434   14.7678 H         1 UNK         0.0825 
    126 H126      -47.4720  -24.6572   13.4839 H         1 UNK         0.3029 
    127 H127      -49.5530  -21.6979   13.4794 H         1 UNK         0.0897 
    128 H128      -47.5037  -20.9507   12.3105 H         1 UNK         0.0792 
    129 H129      -47.1760  -21.1542   14.0247 H         1 UNK         0.0792 
    130 H130      -46.6206  -22.3650   12.8760 H         1 UNK         0.0792 
    131 H131      -48.3707  -23.2175   11.3451 H         1 UNK         0.3086 
    132 H132      -51.3292  -25.0613   10.5534 H         1 UNK         0.0583 
    133 H133      -51.6449  -22.8438    9.4804 H         1 UNK         0.1020 
    134 H134      -49.9441  -22.7051    9.1775 H         1 UNK         0.1020 
    135 H135      -53.2858  -23.8072    8.1633 H         1 UNK         0.0694 
    136 H136      -53.0727  -24.3657    6.5260 H         1 UNK         0.0694 
    137 H137      -48.7997  -25.1720    9.3407 H         1 UNK         0.2989 
    138 H138      -47.2308  -27.4201   11.6574 H         1 UNK         0.1055 
    139 H139      -48.5429  -28.8639   10.1364 H         1 UNK         0.0806 
    140 H140      -46.9108  -28.6671    9.5158 H         1 UNK         0.0806 
    141 H141      -48.2489  -27.7800    8.7894 H         1 UNK         0.0806 
    142 H142      -46.4925  -26.0235    9.2089 H         1 UNK         0.3061 
    143 H143      -44.9235  -23.2815   10.8798 H         1 UNK         0.0734 
    144 H144      -42.9436  -24.0816    9.6146 H         1 UNK         0.0832 
    145 H145      -43.2270  -25.1136   11.0057 H         1 UNK         0.0832 
    146 H146      -43.6836  -25.6693    9.4018 H         1 UNK         0.0832 
    147 H147      -45.0694  -24.0288    8.1255 H         1 UNK         0.3156 
    148 H148      -48.2554  -22.6994    7.3818 H         1 UNK         0.0589 
    149 H149      -45.5225  -21.4869    6.7071 H         1 UNK         0.0808 
    150 H150      -47.0284  -21.2225    5.8257 H         1 UNK         0.0808 
    151 H151      -46.8548  -20.6280    7.4673 H         1 UNK         0.0808 
    152 H152      -46.3402  -23.6139    5.5832 H         1 UNK         0.3098 
    153 H153      -46.8133  -25.6221    4.5107 H         1 UNK         0.0720 
    154 H154      -44.9732  -27.2666    4.9475 H         1 UNK         0.0791 
    155 H155      -45.2192  -27.1046    6.6851 H         1 UNK         0.0791 
    156 H156      -44.6295  -25.7407    5.7430 H         1 UNK         0.0791 
    157 H157      -47.2409  -28.1890    5.7671 H         1 UNK         0.3028 
@<TRIPOS>BOND
     1    1    2 1    
     2    1   82 1    
     3    1   83 1    
     4    1   84 1    
     5    2    3 2    
     6    2    4 am   BACKBONE|DICT|INTERRES
     7    4    5 1    
     8    4   85 1    
     9    5    6 1    
    10    5   80 1    
    11    5   86 1    
    12    6    7 1    
    13    6   87 1    
    14    6   88 1    
    15    7    8 1    
    16    8    9 1    
    17    8   89 1    
    18    8   90 1    
    19    9   10 ar   
    20    9   14 ar   
    21   10   11 ar   
    22   10   91 1    
    23   11   12 ar   
    24   11   58 1    
    25   12   13 ar   
    26   12   92 1    
    27   13   14 ar   
    28   13   15 1    
    29   14   93 1    
    30   15   16 1    
    31   15   94 1    
    32   15   95 1    
    33   16   17 1    
    34   17   18 1    
    35   17   96 1    
    36   17   97 1    
    37   18   19 1    
    38   18   22 1    
    39   18   98 1    
    40   19   20 am   BACKBONE|DICT|INTERRES
    41   19   21 2    
    42   20   99 1    
    43   20  100 1    
    44   22   23 am   BACKBONE|DICT|INTERRES
    45   22  101 1    
    46   23   24 2    
    47   23   25 1    
    48   25   26 1    
    49   25   27 1    
    50   25  102 1    
    51   26  103 1    
    52   26  104 1    
    53   26  105 1    
    54   27   28 am   BACKBONE|DICT|INTERRES
    55   27  106 1    
    56   28   29 2    
    57   28   30 1    
    58   30   31 1    
    59   30   32 1    
    60   30  107 1    
    61   31  108 1    
    62   31  109 1    
    63   31  110 1    
    64   32   33 am   BACKBONE|DICT|INTERRES
    65   32  111 1    
    66   33   34 2    
    67   33   35 1    
    68   35   36 1    
    69   35   37 1    
    70   35  112 1    
    71   36  113 1    
    72   36  114 1    
    73   36  115 1    
    74   37   38 am   BACKBONE|DICT|INTERRES
    75   37  116 1    
    76   38   39 2    
    77   38   40 1    
    78   40   41 1    
    79   40   42 1    
    80   40  117 1    
    81   41  118 1    
    82   41  119 1    
    83   41  120 1    
    84   42   43 am   BACKBONE|DICT|INTERRES
    85   42  121 1    
    86   43   44 2    
    87   43   45 1    
    88   45   46 1    
    89   45   47 1    
    90   45  122 1    
    91   46  123 1    
    92   46  124 1    
    93   46  125 1    
    94   47   48 am   BACKBONE|DICT|INTERRES
    95   47  126 1    
    96   48   49 2    
    97   48   50 1    
    98   50   51 1    
    99   50   52 1    
   100   50  127 1    
   101   51  128 1    
   102   51  129 1    
   103   51  130 1    
   104   52   53 am   BACKBONE|DICT|INTERRES
   105   52  131 1    
   106   53   54 2    
   107   53   55 1    
   108   55   56 1    
   109   55   59 1    
   110   55  132 1    
   111   56   57 1    
   112   56  133 1    
   113   56  134 1    
   114   57   58 1    
   115   58  135 1    
   116   58  136 1    
   117   59   60 am   BACKBONE|DICT|INTERRES
   118   59  137 1    
   119   60   61 2    
   120   60   62 1    
   121   62   63 1    
   122   62   64 1    
   123   62  138 1    
   124   63  139 1    
   125   63  140 1    
   126   63  141 1    
   127   64   65 am   BACKBONE|DICT|INTERRES
   128   64  142 1    
   129   65   66 2    
   130   65   67 1    
   131   67   68 1    
   132   67   69 1    
   133   67  143 1    
   134   68  144 1    
   135   68  145 1    
   136   68  146 1    
   137   69   70 am   BACKBONE|DICT|INTERRES
   138   69  147 1    
   139   70   71 2    
   140   70   72 1    
   141   72   73 1    
   142   72   74 1    
   143   72  148 1    
   144   73  149 1    
   145   73  150 1    
   146   73  151 1    
   147   74   75 am   BACKBONE|DICT|INTERRES
   148   74  152 1    
   149   75   76 2    
   150   75   77 1    
   151   77   78 1    
   152   77   79 1    
   153   77  153 1    
   154   78  154 1    
   155   78  155 1    
   156   78  156 1    
   157   79   80 am   BACKBONE|DICT|INTERRES
   158   79  157 1    
   159   80   81 2    
@<TRIPOS>SUBSTRUCTURE
     1 UNK         1 GROUP             0       ****    0 ROOT    
