@<TRIPOS>MOLECULE
3R207
157   159    1
SMALL
USER_CHARGES


@<TRIPOS>ATOM
      1 CA        -46.7191  -31.1692    8.9331 C.3       0 UNK        -0.1975 
      2 C         -47.3786  -30.9205    7.5847 C.2       0 UNK         0.4852 
      3 O         -46.6993  -30.9561    6.5583 O.2       0 UNK        -0.5216 
      4 N         -48.6975  -30.6799    7.5803 N.am      1 UNK        -0.4461 
      5 CA        -49.5004  -30.4214    6.3782 C.3       1 UNK         0.0864 
      6 C6        -51.0137  -30.5369    6.6875 C.3       14 UNK        -0.0898 
      7 S7        -52.0442  -30.8720    5.2152 S.3       14 UNK        -0.2598 
      8 C8        -52.6766  -29.2207    4.7579 C.3       14 UNK         0.0286 
      9 C9        -53.4490  -28.5638    5.8920 C.ar      14 UNK        -0.0844 
     10 C10       -52.8728  -27.5168    6.6185 C.ar      14 UNK        -0.0881 
     11 C11       -53.5489  -26.9563    7.7041 C.ar      14 UNK        -0.0643 
     12 C12       -54.8180  -27.4259    8.0444 C.ar      14 UNK        -0.0930 
     13 C13       -55.3982  -28.4804    7.3357 C.ar      14 UNK        -0.0827 
     14 C14       -54.7193  -29.0310    6.2441 C.ar      14 UNK        -0.1249 
     15 C15       -56.7340  -29.0503    7.7904 C.3       14 UNK         0.0141 
     16 S16       -56.6463  -30.8019    8.3068 S.3       14 UNK        -0.2313 
     17 C17       -55.0867  -30.9594    9.2513 C.3       14 UNK        -0.0915 
     18 CA        -55.2345  -30.6169   10.7565 C.3       13 UNK         0.0968 
     19 C         -54.0786  -31.2491   11.5795 C.2       13 UNK         0.5732 
     20 N         -54.2897  -32.4338   12.1374 N.am      13 UNK        -0.7310 
     21 O         -52.9833  -30.6992   11.6776 O.2       13 UNK        -0.5035 
     22 N         -55.3147  -29.1650   10.9633 N.am      13 UNK        -0.4233 
     23 C         -55.6977  -28.5823   12.1049 C.2       13 UNK         0.4989 
     24 O         -56.1279  -29.2002   13.0827 O.2       13 UNK        -0.4996 
     25 CA        -55.6437  -27.0455   12.1367 C.3       12 UNK         0.0216 
     26 CB        -56.9168  -26.4486   11.5118 C.3       12 UNK        -0.1964 
     27 N         -55.5228  -26.5545   13.5106 N.am      12 UNK        -0.4276 
     28 C         -54.3746  -26.4794   14.1921 C.2       12 UNK         0.5020 
     29 O         -53.2673  -26.7337   13.7156 O.2       12 UNK        -0.5489 
     30 CA        -54.4848  -26.0757   15.6655 C.3       11 UNK         0.0294 
     31 CB        -54.6940  -27.3204   16.5500 C.3       11 UNK        -0.2019 
     32 N         -53.2632  -25.3762   16.0537 N.am      11 UNK        -0.4493 
     33 C         -53.1104  -24.6172   17.1461 C.2       11 UNK         0.4932 
     34 O         -54.0139  -24.4009   17.9563 O.2       11 UNK        -0.5029 
     35 CA        -51.7173  -23.9935   17.3635 C.3       10 UNK         0.0280 
     36 CB        -51.4897  -23.4834   18.8024 C.3       10 UNK        -0.1976 
     37 N         -50.6353  -24.8842   16.9347 N.am      10 UNK        -0.4242 
     38 C         -50.2995  -26.0814   17.4372 C.2       10 UNK         0.5072 
     39 O         -50.8154  -26.5869   18.4350 O.2       10 UNK        -0.5224 
     40 CA        -49.2126  -26.8665   16.6801 C.3       9 UNK         0.0343 
     41 CB        -49.8665  -27.8629   15.7085 C.3       9 UNK        -0.2003 
     42 N         -48.2832  -26.0098   15.9367 N.am      9 UNK        -0.4272 
     43 C         -47.3639  -25.2118   16.4993 C.2       9 UNK         0.4988 
     44 O         -47.1530  -25.1575   17.7115 O.2       9 UNK        -0.5108 
     45 CA        -46.5540  -24.3072   15.5535 C.3       8 UNK         0.0248 
     46 CB        -45.4039  -25.0897   14.8995 C.3       8 UNK        -0.2001 
     47 N         -47.3805  -23.6767   14.5194 N.am      8 UNK        -0.4140 
     48 C         -48.3398  -22.7708   14.7639 C.2       8 UNK         0.5028 
     49 O         -48.5946  -22.3263   15.8833 O.2       8 UNK        -0.5428 
     50 CA        -49.1841  -22.3011   13.5671 C.3       7 UNK         0.0264 
     51 CB        -48.4504  -21.2074   12.7752 C.3       7 UNK        -0.1988 
     52 N         -49.5635  -23.3970   12.6718 N.am      7 UNK        -0.4454 
     53 C         -50.3520  -24.4242   13.0227 C.2       7 UNK         0.5027 
     54 O         -50.8909  -24.5173   14.1253 O.2       7 UNK        -0.5083 
     55 CA        -50.5378  -25.5595   11.9968 C.3       6 UNK         0.0844 
     56 C56       -51.6725  -25.2264   11.0025 C.3       14 UNK        -0.0967 
     57 S57       -52.1231  -26.6813   10.0084 S.3       14 UNK        -0.2604 
     58 C58       -52.8867  -25.8951    8.5615 C.3       14 UNK         0.0134 
     59 N         -49.2804  -25.9093   11.3278 N.am      6 UNK        -0.4116 
     60 C         -48.1993  -26.3952   11.9540 C.2       5 UNK         0.5034 
     61 O         -48.1570  -26.6522   13.1563 O.2       5 UNK        -0.5045 
     62 CA        -46.9269  -26.5615   11.1120 C.3       5 UNK         0.0224 
     63 CB        -46.9574  -27.8683   10.3041 C.3       5 UNK        -0.1978 
     64 N         -46.7178  -25.4183   10.2218 N.am      5 UNK        -0.4737 
     65 C         -46.3780  -24.1930   10.6475 C.2       4 UNK         0.5027 
     66 O         -46.1604  -23.9164   11.8267 O.2       4 UNK        -0.5211 
     67 CA        -46.3089  -23.0826    9.5859 C.3       4 UNK         0.0297 
     68 CB        -44.9331  -23.0761    8.9015 C.3       4 UNK        -0.1993 
     69 N         -47.3620  -23.1971    8.5735 N.am      4 UNK        -0.4486 
     70 C         -48.6724  -23.0665    8.8251 C.2       3 UNK         0.4961 
     71 O         -49.1350  -22.7972    9.9321 O.2       3 UNK        -0.5105 
     72 CA        -49.6346  -23.3323    7.6558 C.3       3 UNK         0.0299 
     73 CB        -49.8343  -22.0583    6.8204 C.3       3 UNK        -0.1972 
     74 N         -49.2134  -24.4355    6.7844 N.am      3 UNK        -0.4305 
     75 C         -49.0163  -25.6980    7.1874 C.2       2 UNK         0.5006 
     76 O         -49.1411  -26.0783    8.3540 O.2       2 UNK        -0.5106 
     77 CA        -48.5516  -26.6887    6.1184 C.3       2 UNK         0.0296 
     78 CB        -47.0275  -26.5967    5.9185 C.3       2 UNK        -0.2002 
     79 N         -48.9106  -28.0388    6.5402 N.am      2 UNK        -0.4032 
     80 C         -49.1466  -29.0697    5.7188 C.2       1 UNK         0.5000 
     81 O         -49.0762  -28.9920    4.4904 O.2       1 UNK        -0.5238 
     82 H82       -47.4141  -31.0278    9.7606 H         1 UNK         0.0889 
     83 H83       -45.8804  -30.4879    9.0727 H         1 UNK         0.0889 
     84 H84       -46.3387  -32.1892    8.9804 H         1 UNK         0.0889 
     85 H85       -49.2018  -30.6804    8.4556 H         1 UNK         0.3028 
     86 H86       -49.2444  -31.2032    5.6591 H         1 UNK         0.0864 
     87 H87       -51.1808  -31.3839    7.3550 H         1 UNK         0.0720 
     88 H88       -51.3745  -29.6703    7.2408 H         1 UNK         0.0720 
     89 H89       -53.3303  -29.3229    3.8905 H         1 UNK         0.0814 
     90 H90       -51.8472  -28.5896    4.4364 H         1 UNK         0.0814 
     91 H91       -51.8813  -27.1660    6.3677 H         1 UNK         0.1469 
     92 H92       -55.3327  -26.9886    8.8871 H         1 UNK         0.1381 
     93 H93       -55.1579  -29.8567    5.7001 H         1 UNK         0.1206 
     94 H94       -57.1414  -28.4698    8.6190 H         1 UNK         0.0813 
     95 H95       -57.4545  -28.9601    6.9766 H         1 UNK         0.0813 
     96 H96       -54.2848  -30.3804    8.7919 H         1 UNK         0.0638 
     97 H97       -54.7854  -32.0022    9.1334 H         1 UNK         0.0638 
     98 H98       -56.1700  -31.0521   11.1144 H         1 UNK         0.0568 
     99 H99       -55.1792  -32.9007   12.0519 H         1 UNK         0.3450 
    100 H100      -53.5453  -32.8667   12.6612 H         1 UNK         0.3450 
    101 H101      -54.9296  -28.6004   10.2220 H         1 UNK         0.2987 
    102 H102      -54.7779  -26.7117   11.5605 H         1 UNK         0.0766 
    103 H103      -56.8715  -25.3596   11.4860 H         1 UNK         0.0798 
    104 H104      -57.8109  -26.7338   12.0680 H         1 UNK         0.0798 
    105 H105      -57.0559  -26.7890   10.4860 H         1 UNK         0.0798 
    106 H106      -56.3893  -26.3858   14.0013 H         1 UNK         0.3198 
    107 H107      -55.3311  -25.3950   15.7817 H         1 UNK         0.0843 
    108 H108      -55.5791  -27.8781   16.2410 H         1 UNK         0.0831 
    109 H109      -54.8323  -27.0511   17.5971 H         1 UNK         0.0831 
    110 H110      -53.8427  -27.9999   16.4894 H         1 UNK         0.0831 
    111 H111      -52.4983  -25.4619   15.3892 H         1 UNK         0.3133 
    112 H112      -51.6678  -23.1294   16.6993 H         1 UNK         0.0566 
    113 H113      -50.4960  -23.0495   18.9149 H         1 UNK         0.0814 
    114 H114      -52.2124  -22.7083   19.0601 H         1 UNK         0.0814 
    115 H115      -51.5943  -24.2810   19.5383 H         1 UNK         0.0814 
    116 H116      -50.2002  -24.6183   16.0578 H         1 UNK         0.3091 
    117 H117      -48.6381  -27.4317   17.4169 H         1 UNK         0.0702 
    118 H118      -49.1187  -28.4772   15.2065 H         1 UNK         0.0785 
    119 H119      -50.4498  -27.3525   14.9404 H         1 UNK         0.0785 
    120 H120      -50.5423  -28.5381   16.2351 H         1 UNK         0.0785 
    121 H121      -48.3356  -26.0559   14.9211 H         1 UNK         0.2998 
    122 H122      -46.1162  -23.5088   16.1564 H         1 UNK         0.0697 
    123 H123      -45.7715  -25.8941   14.2622 H         1 UNK         0.0825 
    124 H124      -44.7592  -25.5405   15.6551 H         1 UNK         0.0825 
    125 H125      -44.7798  -24.4384   14.2872 H         1 UNK         0.0825 
    126 H126      -47.1877  -23.9381   13.5568 H         1 UNK         0.3029 
    127 H127      -50.1050  -21.8694   13.9652 H         1 UNK         0.0897 
    128 H128      -49.0741  -20.8137   11.9724 H         1 UNK         0.0792 
    129 H129      -48.1855  -20.3692   13.4210 H         1 UNK         0.0792 
    130 H130      -47.5282  -21.5801   12.3293 H         1 UNK         0.0792 
    131 H131      -49.2226  -23.3431   11.7139 H         1 UNK         0.3086 
    132 H132      -50.8434  -26.4405   12.5652 H         1 UNK         0.0583 
    133 H133      -52.5693  -24.9031   11.5355 H         1 UNK         0.1020 
    134 H134      -51.3835  -24.4034   10.3468 H         1 UNK         0.1020 
    135 H135      -53.6237  -25.1578    8.8841 H         1 UNK         0.0694 
    136 H136      -52.1280  -25.3598    7.9908 H         1 UNK         0.0694 
    137 H137      -49.2466  -25.7806   10.3211 H         1 UNK         0.2989 
    138 H138      -46.0801  -26.6115   11.8005 H         1 UNK         0.1055 
    139 H139      -47.0321  -28.7285   10.9706 H         1 UNK         0.0806 
    140 H140      -46.0480  -27.9917    9.7160 H         1 UNK         0.0806 
    141 H141      -47.8068  -27.9129    9.6237 H         1 UNK         0.0806 
    142 H142      -46.9498  -25.5477    9.2476 H         1 UNK         0.3061 
    143 H143      -46.4397  -22.1270   10.0981 H         1 UNK         0.0734 
    144 H144      -44.1340  -22.9728    9.6371 H         1 UNK         0.0832 
    145 H145      -44.7492  -23.9986    8.3492 H         1 UNK         0.0832 
    146 H146      -44.8392  -22.2422    8.2057 H         1 UNK         0.0832 
    147 H147      -47.0738  -23.4153    7.6310 H         1 UNK         0.3156 
    148 H148      -50.5986  -23.6037    8.0880 H         1 UNK         0.0589 
    149 H149      -48.9126  -21.7469    6.3273 H         1 UNK         0.0808 
    150 H150      -50.5950  -22.2017    6.0528 H         1 UNK         0.0808 
    151 H151      -50.1639  -21.2288    7.4480 H         1 UNK         0.0808 
    152 H152      -49.0747  -24.2107    5.8091 H         1 UNK         0.3098 
    153 H153      -49.0630  -26.4513    5.1829 H         1 UNK         0.0720 
    154 H154      -46.6878  -27.2887    5.1475 H         1 UNK         0.0791 
    155 H155      -46.4864  -26.8318    6.8362 H         1 UNK         0.0791 
    156 H156      -46.7277  -25.5957    5.6062 H         1 UNK         0.0791 
    157 H157      -49.0338  -28.1473    7.5387 H         1 UNK         0.3028 
@<TRIPOS>BOND
     1    1    2 1    
     2    1   82 1    
     3    1   83 1    
     4    1   84 1    
     5    2    3 2    
     6    2    4 am   BACKBONE|DICT|INTERRES
     7    4    5 1    
     8    4   85 1    
     9    5    6 1    
    10    5   80 1    
    11    5   86 1    
    12    6    7 1    
    13    6   87 1    
    14    6   88 1    
    15    7    8 1    
    16    8    9 1    
    17    8   89 1    
    18    8   90 1    
    19    9   10 ar   
    20    9   14 ar   
    21   10   11 ar   
    22   10   91 1    
    23   11   12 ar   
    24   11   58 1    
    25   12   13 ar   
    26   12   92 1    
    27   13   14 ar   
    28   13   15 1    
    29   14   93 1    
    30   15   16 1    
    31   15   94 1    
    32   15   95 1    
    33   16   17 1    
    34   17   18 1    
    35   17   96 1    
    36   17   97 1    
    37   18   19 1    
    38   18   22 1    
    39   18   98 1    
    40   19   20 am   BACKBONE|DICT|INTERRES
    41   19   21 2    
    42   20   99 1    
    43   20  100 1    
    44   22   23 am   BACKBONE|DICT|INTERRES
    45   22  101 1    
    46   23   24 2    
    47   23   25 1    
    48   25   26 1    
    49   25   27 1    
    50   25  102 1    
    51   26  103 1    
    52   26  104 1    
    53   26  105 1    
    54   27   28 am   BACKBONE|DICT|INTERRES
    55   27  106 1    
    56   28   29 2    
    57   28   30 1    
    58   30   31 1    
    59   30   32 1    
    60   30  107 1    
    61   31  108 1    
    62   31  109 1    
    63   31  110 1    
    64   32   33 am   BACKBONE|DICT|INTERRES
    65   32  111 1    
    66   33   34 2    
    67   33   35 1    
    68   35   36 1    
    69   35   37 1    
    70   35  112 1    
    71   36  113 1    
    72   36  114 1    
    73   36  115 1    
    74   37   38 am   BACKBONE|DICT|INTERRES
    75   37  116 1    
    76   38   39 2    
    77   38   40 1    
    78   40   41 1    
    79   40   42 1    
    80   40  117 1    
    81   41  118 1    
    82   41  119 1    
    83   41  120 1    
    84   42   43 am   BACKBONE|DICT|INTERRES
    85   42  121 1    
    86   43   44 2    
    87   43   45 1    
    88   45   46 1    
    89   45   47 1    
    90   45  122 1    
    91   46  123 1    
    92   46  124 1    
    93   46  125 1    
    94   47   48 am   BACKBONE|DICT|INTERRES
    95   47  126 1    
    96   48   49 2    
    97   48   50 1    
    98   50   51 1    
    99   50   52 1    
   100   50  127 1    
   101   51  128 1    
   102   51  129 1    
   103   51  130 1    
   104   52   53 am   BACKBONE|DICT|INTERRES
   105   52  131 1    
   106   53   54 2    
   107   53   55 1    
   108   55   56 1    
   109   55   59 1    
   110   55  132 1    
   111   56   57 1    
   112   56  133 1    
   113   56  134 1    
   114   57   58 1    
   115   58  135 1    
   116   58  136 1    
   117   59   60 am   BACKBONE|DICT|INTERRES
   118   59  137 1    
   119   60   61 2    
   120   60   62 1    
   121   62   63 1    
   122   62   64 1    
   123   62  138 1    
   124   63  139 1    
   125   63  140 1    
   126   63  141 1    
   127   64   65 am   BACKBONE|DICT|INTERRES
   128   64  142 1    
   129   65   66 2    
   130   65   67 1    
   131   67   68 1    
   132   67   69 1    
   133   67  143 1    
   134   68  144 1    
   135   68  145 1    
   136   68  146 1    
   137   69   70 am   BACKBONE|DICT|INTERRES
   138   69  147 1    
   139   70   71 2    
   140   70   72 1    
   141   72   73 1    
   142   72   74 1    
   143   72  148 1    
   144   73  149 1    
   145   73  150 1    
   146   73  151 1    
   147   74   75 am   BACKBONE|DICT|INTERRES
   148   74  152 1    
   149   75   76 2    
   150   75   77 1    
   151   77   78 1    
   152   77   79 1    
   153   77  153 1    
   154   78  154 1    
   155   78  155 1    
   156   78  156 1    
   157   79   80 am   BACKBONE|DICT|INTERRES
   158   79  157 1    
   159   80   81 2    
@<TRIPOS>SUBSTRUCTURE
     1 UNK         1 GROUP             0       ****    0 ROOT    
