@<TRIPOS>MOLECULE
3R207
157   159    1
SMALL
USER_CHARGES


@<TRIPOS>ATOM
      1 CA        -47.9623  -29.9736    6.5560 C.3       0 UNK        -0.1975 
      2 C         -48.3247  -28.9727    5.4681 C.2       0 UNK         0.4852 
      3 O         -48.4138  -29.3471    4.2982 O.2       0 UNK        -0.5216 
      4 N         -48.5286  -27.7070    5.8466 N.am      1 UNK        -0.4461 
      5 CA        -48.8015  -26.5922    4.9412 C.3       1 UNK         0.0864 
      6 C6        -50.3005  -26.4568    4.5462 C.3       14 UNK        -0.0898 
      7 S7        -51.4397  -26.2157    5.9542 S.3       14 UNK        -0.2598 
      8 C8        -52.2154  -27.8556    6.1151 C.3       14 UNK         0.0286 
      9 C9        -52.2460  -28.3106    7.5661 C.ar      14 UNK        -0.0844 
     10 C10       -51.3689  -29.3027    8.0124 C.ar      14 UNK        -0.0881 
     11 C11       -51.4007  -29.7402    9.3396 C.ar      14 UNK        -0.0643 
     12 C12       -52.3274  -29.1776   10.2234 C.ar      14 UNK        -0.0930 
     13 C13       -53.1995  -28.1715    9.7938 C.ar      14 UNK        -0.0827 
     14 C14       -53.1585  -27.7479    8.4623 C.ar      14 UNK        -0.1249 
     15 C15       -54.1625  -27.5109   10.7695 C.3       14 UNK         0.0141 
     16 S16       -55.7897  -28.3259   10.7776 S.3       14 UNK        -0.2313 
     17 C17       -55.5160  -29.6924   11.9573 C.3       14 UNK        -0.0915 
     18 CA        -56.7258  -29.9164   12.9060 C.3       13 UNK         0.0968 
     19 C         -56.5128  -31.1721   13.8028 C.2       13 UNK         0.5732 
     20 N         -56.5299  -31.0722   15.1279 N.am      13 UNK        -0.7310 
     21 O         -56.3414  -32.2718   13.2816 O.2       13 UNK        -0.5035 
     22 N         -57.0783  -28.7012   13.6581 N.am      13 UNK        -0.4233 
     23 C         -58.3019  -28.4370   14.1388 C.2       13 UNK         0.4989 
     24 O         -59.2856  -29.1431   13.9074 O.2       13 UNK        -0.4996 
     25 CA        -58.4631  -27.1808   15.0268 C.3       12 UNK         0.0216 
     26 CB        -59.6710  -27.2830   15.9832 C.3       12 UNK        -0.1964 
     27 N         -57.2512  -26.8141   15.7730 N.am      12 UNK        -0.4276 
     28 C         -56.5539  -27.5852   16.6221 C.2       12 UNK         0.5020 
     29 O         -56.8940  -28.7258   16.9443 O.2       12 UNK        -0.5489 
     30 CA        -55.2236  -26.9999   17.1486 C.3       11 UNK         0.0294 
     31 CB        -54.2592  -28.1011   17.6373 C.3       11 UNK        -0.2019 
     32 N         -54.5243  -26.1207   16.1948 N.am      11 UNK        -0.4493 
     33 C         -54.2045  -26.4029   14.9207 C.2       11 UNK         0.4932 
     34 O         -54.5525  -27.4260   14.3324 O.2       11 UNK        -0.5029 
     35 CA        -53.3860  -25.3471   14.1612 C.3       10 UNK         0.0280 
     36 CB        -54.3057  -24.2331   13.6361 C.3       10 UNK        -0.1976 
     37 N         -52.2669  -24.7537   14.9029 N.am      10 UNK        -0.4242 
     38 C         -51.2956  -25.4106   15.5572 C.2       10 UNK         0.5072 
     39 O         -51.2837  -26.6240   15.7686 O.2       10 UNK        -0.5224 
     40 CA        -50.1005  -24.5505   15.9962 C.3       9 UNK         0.0343 
     41 CB        -49.1639  -25.2816   16.9763 C.3       9 UNK        -0.2003 
     42 N         -49.3467  -24.1776   14.8000 N.am      9 UNK        -0.4272 
     43 C         -49.5133  -23.0358   14.1194 C.2       9 UNK         0.4988 
     44 O         -50.2462  -22.1189   14.4929 O.2       9 UNK        -0.5108 
     45 CA        -48.7788  -22.9162   12.7740 C.3       8 UNK         0.0248 
     46 CB        -47.2599  -22.7841   12.9745 C.3       8 UNK        -0.2001 
     47 N         -49.0603  -24.0466   11.8888 N.am      8 UNK        -0.4140 
     48 C         -50.2605  -24.3524   11.3727 C.2       8 UNK         0.5028 
     49 O         -51.2748  -23.6734   11.5344 O.2       8 UNK        -0.5428 
     50 CA        -50.3474  -25.6500   10.5566 C.3       7 UNK         0.0264 
     51 CB        -49.8824  -25.4353    9.1086 C.3       7 UNK        -0.1988 
     52 N         -49.5485  -26.7085   11.1705 N.am      7 UNK        -0.4454 
     53 C         -49.9810  -27.4938   12.1666 C.2       7 UNK         0.5027 
     54 O         -51.1188  -27.4452   12.6262 O.2       7 UNK        -0.5083 
     55 CA        -48.9904  -28.5178   12.7566 C.3       6 UNK         0.0844 
     56 C56       -49.2516  -29.9459   12.2170 C.3       14 UNK        -0.0967 
     57 S57       -48.8758  -30.1719   10.4397 S.3       14 UNK        -0.2604 
     58 C58       -50.4489  -30.8371    9.7985 C.3       14 UNK         0.0134 
     59 N         -47.5882  -28.1166   12.6151 N.am      6 UNK        -0.4116 
     60 C         -47.0223  -27.0982   13.2769 C.2       5 UNK         0.5034 
     61 O         -47.6151  -26.3866   14.0874 O.2       5 UNK        -0.5045 
     62 CA        -45.5569  -26.7828   12.9339 C.3       5 UNK         0.0224 
     63 CB        -44.6078  -27.7126   13.7067 C.3       5 UNK        -0.1978 
     64 N         -45.2440  -26.8378   11.4995 N.am      5 UNK        -0.4737 
     65 C         -45.8780  -26.1352   10.5515 C.2       4 UNK         0.5027 
     66 O         -46.8856  -25.4595   10.7624 O.2       4 UNK        -0.5211 
     67 CA        -45.3224  -26.2382    9.1213 C.3       4 UNK         0.0297 
     68 CB        -46.0714  -27.3398    8.3569 C.3       4 UNK        -0.1993 
     69 N         -45.4367  -24.9711    8.3875 N.am      4 UNK        -0.4486 
     70 C         -44.8748  -23.8128    8.7712 C.2       3 UNK         0.4961 
     71 O         -44.1275  -23.7113    9.7459 O.2       3 UNK        -0.5105 
     72 CA        -45.1507  -22.5492    7.9334 C.3       3 UNK         0.0299 
     73 CB        -43.8603  -22.0609    7.2524 C.3       3 UNK        -0.1972 
     74 N         -46.1833  -22.7125    6.9099 N.am      3 UNK        -0.4305 
     75 C         -47.5063  -22.7185    7.1214 C.2       2 UNK         0.5006 
     76 O         -48.0278  -22.6072    8.2302 O.2       2 UNK        -0.5106 
     77 CA        -48.4022  -22.8408    5.8715 C.3       2 UNK         0.0296 
     78 CB        -47.7641  -22.2228    4.6069 C.3       2 UNK        -0.2002 
     79 N         -48.8520  -24.2076    5.5786 N.am      2 UNK        -0.4032 
     80 C         -48.1155  -25.3256    5.4920 C.2       1 UNK         0.5000 
     81 O         -46.9221  -25.3883    5.7979 O.2       1 UNK        -0.5238 
     82 H82       -48.5917  -30.8598    6.4810 H         1 UNK         0.0889 
     83 H83       -48.0877  -29.5537    7.5534 H         1 UNK         0.0889 
     84 H84       -46.9237  -30.2845    6.4469 H         1 UNK         0.0889 
     85 H85       -48.4207  -27.4459    6.8152 H         1 UNK         0.3028 
     86 H86       -48.2592  -26.7855    4.0128 H         1 UNK         0.0864 
     87 H87       -50.6039  -27.3394    3.9820 H         1 UNK         0.0720 
     88 H88       -50.4367  -25.6289    3.8482 H         1 UNK         0.0720 
     89 H89       -51.6881  -28.5921    5.5075 H         1 UNK         0.0814 
     90 H90       -53.2319  -27.8094    5.7218 H         1 UNK         0.0814 
     91 H91       -50.6661  -29.7445    7.3223 H         1 UNK         0.1469 
     92 H92       -52.3578  -29.5055   11.2529 H         1 UNK         0.1381 
     93 H93       -53.8314  -26.9719    8.1235 H         1 UNK         0.1206 
     94 H94       -54.2976  -26.4632   10.4971 H         1 UNK         0.0813 
     95 H95       -53.7387  -27.5032   11.7735 H         1 UNK         0.0813 
     96 H96       -54.6150  -29.5018   12.5423 H         1 UNK         0.0638 
     97 H97       -55.3129  -30.5907   11.3716 H         1 UNK         0.0638 
     98 H98       -57.5766  -30.1638   12.2685 H         1 UNK         0.0568 
     99 H99       -56.3959  -31.9031   15.6808 H         1 UNK         0.3450 
    100 H100      -56.6812  -30.1821   15.5915 H         1 UNK         0.3450 
    101 H101      -56.2939  -28.1074   13.9133 H         1 UNK         0.2987 
    102 H102      -58.6568  -26.3563   14.3391 H         1 UNK         0.0766 
    103 H103      -59.7804  -26.3794   16.5828 H         1 UNK         0.0798 
    104 H104      -59.5745  -28.1284   16.6653 H         1 UNK         0.0798 
    105 H105      -60.6018  -27.4157   15.4301 H         1 UNK         0.0798 
    106 H106      -56.8678  -25.9032   15.5620 H         1 UNK         0.3198 
    107 H107      -55.4858  -26.3813   18.0082 H         1 UNK         0.0843 
    108 H108      -53.9957  -28.7876   16.8315 H         1 UNK         0.0831 
    109 H109      -54.7059  -28.6919   18.4379 H         1 UNK         0.0831 
    110 H110      -53.3345  -27.6752   18.0268 H         1 UNK         0.0831 
    111 H111      -54.2065  -25.2361   16.5666 H         1 UNK         0.3133 
    112 H112      -52.9521  -25.8400   13.2925 H         1 UNK         0.0566 
    113 H113      -53.7665  -23.5567   12.9722 H         1 UNK         0.0814 
    114 H114      -55.1354  -24.6492   13.0624 H         1 UNK         0.0814 
    115 H115      -54.7313  -23.6403   14.4466 H         1 UNK         0.0814 
    116 H116      -52.1360  -23.7592   14.7740 H         1 UNK         0.3091 
    117 H117      -50.4858  -23.6632   16.5031 H         1 UNK         0.0702 
    118 H118      -48.3329  -24.6441   17.2781 H         1 UNK         0.0785 
    119 H119      -48.7457  -26.1895   16.5399 H         1 UNK         0.0785 
    120 H120      -49.6984  -25.5712   17.8819 H         1 UNK         0.0785 
    121 H121      -48.7450  -24.9031   14.4152 H         1 UNK         0.2998 
    122 H122      -49.1355  -22.0120   12.2767 H         1 UNK         0.0697 
    123 H123      -46.8334  -23.6708   13.4443 H         1 UNK         0.0825 
    124 H124      -47.0223  -21.9298   13.6096 H         1 UNK         0.0825 
    125 H125      -46.7478  -22.6354   12.0231 H         1 UNK         0.0825 
    126 H126      -48.2668  -24.6273   11.6228 H         1 UNK         0.3029 
    127 H127      -51.3939  -25.9616   10.5294 H         1 UNK         0.0897 
    128 H128      -48.8480  -25.0966    9.0537 H         1 UNK         0.0792 
    129 H129      -50.4962  -24.6836    8.6109 H         1 UNK         0.0792 
    130 H130      -49.9653  -26.3573    8.5341 H         1 UNK         0.0792 
    131 H131      -48.5773  -26.7596   10.8917 H         1 UNK         0.3086 
    132 H132      -49.1984  -28.5461   13.8290 H         1 UNK         0.0583 
    133 H133      -48.6432  -30.6584   12.7761 H         1 UNK         0.1020 
    134 H134      -50.2839  -30.2342   12.4225 H         1 UNK         0.1020 
    135 H135      -50.2222  -31.4952    8.9582 H         1 UNK         0.0694 
    136 H136      -50.9273  -31.4708   10.5467 H         1 UNK         0.0694 
    137 H137      -47.0364  -28.6343   11.9468 H         1 UNK         0.2989 
    138 H138      -45.3677  -25.7585   13.2624 H         1 UNK         0.1055 
    139 H139      -44.8137  -27.6780   14.7777 H         1 UNK         0.0806 
    140 H140      -43.5666  -27.4191   13.5713 H         1 UNK         0.0806 
    141 H141      -44.7084  -28.7512   13.3890 H         1 UNK         0.0806 
    142 H142      -44.4358  -27.3841   11.2359 H         1 UNK         0.3061 
    143 H143      -44.2629  -26.4973    9.1696 H         1 UNK         0.0734 
    144 H144      -47.1400  -27.1303    8.3123 H         1 UNK         0.0832 
    145 H145      -45.7014  -27.4408    7.3362 H         1 UNK         0.0832 
    146 H146      -45.9496  -28.3088    8.8432 H         1 UNK         0.0832 
    147 H147      -46.0166  -24.9750    7.5539 H         1 UNK         0.3156 
    148 H148      -45.4808  -21.7735    8.6275 H         1 UNK         0.0589 
    149 H149      -43.4754  -22.7954    6.5437 H         1 UNK         0.0808 
    150 H150      -44.0231  -21.1266    6.7148 H         1 UNK         0.0808 
    151 H151      -43.0751  -21.8751    7.9867 H         1 UNK         0.0808 
    152 H152      -45.8602  -22.8613    5.9647 H         1 UNK         0.3098 
    153 H153      -49.3027  -22.2655    6.0927 H         1 UNK         0.0720 
    154 H154      -46.9248  -22.8115    4.2348 H         1 UNK         0.0791 
    155 H155      -47.4031  -21.2113    4.7993 H         1 UNK         0.0791 
    156 H156      -48.4933  -22.1510    3.7997 H         1 UNK         0.0791 
    157 H157      -49.8412  -24.3032    5.3893 H         1 UNK         0.3028 
@<TRIPOS>BOND
     1    1    2 1    
     2    1   82 1    
     3    1   83 1    
     4    1   84 1    
     5    2    3 2    
     6    2    4 am   BACKBONE|DICT|INTERRES
     7    4    5 1    
     8    4   85 1    
     9    5    6 1    
    10    5   80 1    
    11    5   86 1    
    12    6    7 1    
    13    6   87 1    
    14    6   88 1    
    15    7    8 1    
    16    8    9 1    
    17    8   89 1    
    18    8   90 1    
    19    9   10 ar   
    20    9   14 ar   
    21   10   11 ar   
    22   10   91 1    
    23   11   12 ar   
    24   11   58 1    
    25   12   13 ar   
    26   12   92 1    
    27   13   14 ar   
    28   13   15 1    
    29   14   93 1    
    30   15   16 1    
    31   15   94 1    
    32   15   95 1    
    33   16   17 1    
    34   17   18 1    
    35   17   96 1    
    36   17   97 1    
    37   18   19 1    
    38   18   22 1    
    39   18   98 1    
    40   19   20 am   BACKBONE|DICT|INTERRES
    41   19   21 2    
    42   20   99 1    
    43   20  100 1    
    44   22   23 am   BACKBONE|DICT|INTERRES
    45   22  101 1    
    46   23   24 2    
    47   23   25 1    
    48   25   26 1    
    49   25   27 1    
    50   25  102 1    
    51   26  103 1    
    52   26  104 1    
    53   26  105 1    
    54   27   28 am   BACKBONE|DICT|INTERRES
    55   27  106 1    
    56   28   29 2    
    57   28   30 1    
    58   30   31 1    
    59   30   32 1    
    60   30  107 1    
    61   31  108 1    
    62   31  109 1    
    63   31  110 1    
    64   32   33 am   BACKBONE|DICT|INTERRES
    65   32  111 1    
    66   33   34 2    
    67   33   35 1    
    68   35   36 1    
    69   35   37 1    
    70   35  112 1    
    71   36  113 1    
    72   36  114 1    
    73   36  115 1    
    74   37   38 am   BACKBONE|DICT|INTERRES
    75   37  116 1    
    76   38   39 2    
    77   38   40 1    
    78   40   41 1    
    79   40   42 1    
    80   40  117 1    
    81   41  118 1    
    82   41  119 1    
    83   41  120 1    
    84   42   43 am   BACKBONE|DICT|INTERRES
    85   42  121 1    
    86   43   44 2    
    87   43   45 1    
    88   45   46 1    
    89   45   47 1    
    90   45  122 1    
    91   46  123 1    
    92   46  124 1    
    93   46  125 1    
    94   47   48 am   BACKBONE|DICT|INTERRES
    95   47  126 1    
    96   48   49 2    
    97   48   50 1    
    98   50   51 1    
    99   50   52 1    
   100   50  127 1    
   101   51  128 1    
   102   51  129 1    
   103   51  130 1    
   104   52   53 am   BACKBONE|DICT|INTERRES
   105   52  131 1    
   106   53   54 2    
   107   53   55 1    
   108   55   56 1    
   109   55   59 1    
   110   55  132 1    
   111   56   57 1    
   112   56  133 1    
   113   56  134 1    
   114   57   58 1    
   115   58  135 1    
   116   58  136 1    
   117   59   60 am   BACKBONE|DICT|INTERRES
   118   59  137 1    
   119   60   61 2    
   120   60   62 1    
   121   62   63 1    
   122   62   64 1    
   123   62  138 1    
   124   63  139 1    
   125   63  140 1    
   126   63  141 1    
   127   64   65 am   BACKBONE|DICT|INTERRES
   128   64  142 1    
   129   65   66 2    
   130   65   67 1    
   131   67   68 1    
   132   67   69 1    
   133   67  143 1    
   134   68  144 1    
   135   68  145 1    
   136   68  146 1    
   137   69   70 am   BACKBONE|DICT|INTERRES
   138   69  147 1    
   139   70   71 2    
   140   70   72 1    
   141   72   73 1    
   142   72   74 1    
   143   72  148 1    
   144   73  149 1    
   145   73  150 1    
   146   73  151 1    
   147   74   75 am   BACKBONE|DICT|INTERRES
   148   74  152 1    
   149   75   76 2    
   150   75   77 1    
   151   77   78 1    
   152   77   79 1    
   153   77  153 1    
   154   78  154 1    
   155   78  155 1    
   156   78  156 1    
   157   79   80 am   BACKBONE|DICT|INTERRES
   158   79  157 1    
   159   80   81 2    
@<TRIPOS>SUBSTRUCTURE
     1 UNK         1 GROUP             0       ****    0 ROOT    
