@<TRIPOS>MOLECULE
3R207
157   159    1
SMALL
USER_CHARGES


@<TRIPOS>ATOM
      1 CA        -49.7948  -27.7878    9.3206 C.3       0 UNK        -0.1975 
      2 C         -50.0255  -27.6285    7.8286 C.2       0 UNK         0.4852 
      3 O         -50.5161  -28.5493    7.1742 O.2       0 UNK        -0.5216 
      4 N         -49.6569  -26.4653    7.2775 N.am      1 UNK        -0.4461 
      5 CA        -49.8301  -26.0820    5.8687 C.3       1 UNK         0.0864 
      6 C6        -49.8188  -24.5369    5.6694 C.3       14 UNK        -0.0898 
      7 S7        -50.7518  -23.5096    6.8562 S.3       14 UNK        -0.2598 
      8 C8        -52.3784  -24.3150    7.0327 C.3       14 UNK         0.0286 
      9 C9        -52.6537  -24.6676    8.4883 C.ar      14 UNK        -0.0844 
     10 C10       -52.6682  -23.6613    9.4578 C.ar      14 UNK        -0.0881 
     11 C11       -52.8751  -23.9697   10.8037 C.ar      14 UNK        -0.0643 
     12 C12       -53.0986  -25.2973   11.1751 C.ar      14 UNK        -0.0930 
     13 C13       -53.1212  -26.3142   10.2140 C.ar      14 UNK        -0.0827 
     14 C14       -52.8980  -25.9894    8.8714 C.ar      14 UNK        -0.1249 
     15 C15       -53.4388  -27.7559   10.5972 C.3       14 UNK         0.0141 
     16 S16       -52.5965  -28.3254   12.1110 S.3       14 UNK        -0.2313 
     17 C17       -53.3460  -29.9851   12.2391 C.3       14 UNK        -0.0915 
     18 CA        -53.0894  -30.7357   13.5729 C.3       13 UNK         0.0968 
     19 C         -51.5872  -31.0855   13.7917 C.2       13 UNK         0.5732 
     20 N         -50.9548  -30.6590   14.8790 N.am      13 UNK        -0.7310 
     21 O         -50.9907  -31.7731   12.9666 O.2       13 UNK        -0.5035 
     22 N         -53.7639  -30.0964   14.7168 N.am      13 UNK        -0.4233 
     23 C         -54.0952  -30.7453   15.8438 C.2       13 UNK         0.4989 
     24 O         -53.9088  -31.9501   16.0186 O.2       13 UNK        -0.4996 
     25 CA        -54.7433  -29.9301   16.9710 C.3       12 UNK         0.0216 
     26 CB        -53.6770  -29.1710   17.7795 C.3       12 UNK        -0.1964 
     27 N         -55.7370  -28.9859   16.4602 N.am      12 UNK        -0.4276 
     28 C         -57.0566  -29.2176   16.4125 C.2       12 UNK         0.5020 
     29 O         -57.5772  -30.2726   16.7783 O.2       12 UNK        -0.5489 
     30 CA        -57.9668  -28.0820   15.9045 C.3       11 UNK         0.0294 
     31 CB        -58.6918  -27.4126   17.0841 C.3       11 UNK        -0.2019 
     32 N         -57.2462  -27.0552   15.1494 N.am      11 UNK        -0.4493 
     33 C         -56.8751  -27.1777   13.8685 C.2       11 UNK         0.4932 
     34 O         -57.1684  -28.1387   13.1576 O.2       11 UNK        -0.5029 
     35 CA        -55.9973  -26.0521   13.2922 C.3       10 UNK         0.0280 
     36 CB        -56.8570  -24.9932   12.5849 C.3       10 UNK        -0.1976 
     37 N         -55.1179  -25.3969   14.2722 N.am      10 UNK        -0.4242 
     38 C         -54.1667  -26.0259   14.9744 C.2       10 UNK         0.5072 
     39 O         -53.9880  -27.2467   14.9457 O.2       10 UNK        -0.5224 
     40 CA        -53.2840  -25.1714   15.8864 C.3       9 UNK         0.0343 
     41 CB        -53.9612  -24.9645   17.2543 C.3       9 UNK        -0.2003 
     42 N         -52.0247  -25.8907   16.0412 N.am      9 UNK        -0.4272 
     43 C         -50.8746  -25.4119   16.5256 C.2       9 UNK         0.4988 
     44 O         -50.7148  -24.2584   16.9235 O.2       9 UNK        -0.5108 
     45 CA        -49.6919  -26.3845   16.5091 C.3       8 UNK         0.0248 
     46 CB        -49.9480  -27.6204   17.3962 C.3       8 UNK        -0.2001 
     47 N         -49.4234  -26.7647   15.1244 N.am      8 UNK        -0.4140 
     48 C         -48.2945  -27.3159   14.6630 C.2       8 UNK         0.5028 
     49 O         -47.3510  -27.6600   15.3759 O.2       8 UNK        -0.5428 
     50 CA        -48.1901  -27.4856   13.1361 C.3       7 UNK         0.0264 
     51 CB        -48.6884  -28.8722   12.7029 C.3       7 UNK        -0.1988 
     52 N         -48.9211  -26.4452   12.4018 N.am      7 UNK        -0.4454 
     53 C         -48.4844  -25.1835   12.2827 C.2       7 UNK         0.5027 
     54 O         -47.4124  -24.7854   12.7451 O.2       7 UNK        -0.5083 
     55 CA        -49.4140  -24.1794   11.5712 C.3       6 UNK         0.0844 
     56 C56       -50.1775  -23.3444   12.6341 C.3       14 UNK        -0.0967 
     57 S57       -51.2345  -22.0365   11.9273 S.3       14 UNK        -0.2604 
     58 C58       -52.8550  -22.8644   11.8487 C.3       14 UNK         0.0134 
     59 N         -48.6436  -23.3462   10.6421 N.am      6 UNK        -0.4116 
     60 C         -48.0239  -23.8047    9.5472 C.2       5 UNK         0.5034 
     61 O         -48.1201  -24.9672    9.1383 O.2       5 UNK        -0.5045 
     62 CA        -47.1330  -22.8104    8.7880 C.3       5 UNK         0.0224 
     63 CB        -45.9566  -22.3333    9.6650 C.3       5 UNK        -0.1978 
     64 N         -46.6279  -23.4868    7.5971 N.am      5 UNK        -0.4737 
     65 C         -46.0318  -22.9386    6.5341 C.2       4 UNK         0.5027 
     66 O         -45.8301  -21.7291    6.4175 O.2       4 UNK        -0.5211 
     67 CA        -45.6173  -23.8974    5.3961 C.3       4 UNK         0.0297 
     68 CB        -44.3041  -23.4687    4.7073 C.3       4 UNK        -0.1993 
     69 N         -45.5831  -25.3156    5.7911 N.am      4 UNK        -0.4486 
     70 C         -44.7426  -25.9091    6.6571 C.2       3 UNK         0.4961 
     71 O         -43.8043  -25.3270    7.2011 O.2       3 UNK        -0.5105 
     72 CA        -45.0028  -27.3861    7.0263 C.3       3 UNK         0.0299 
     73 CB        -45.2330  -27.5260    8.5426 C.3       3 UNK        -0.1972 
     74 N         -46.1544  -27.9685    6.3354 N.am      3 UNK        -0.4305 
     75 C         -46.1542  -28.4827    5.0969 C.2       2 UNK         0.5006 
     76 O         -45.1440  -28.6108    4.4056 O.2       2 UNK        -0.5106 
     77 CA        -47.5293  -28.8810    4.5193 C.3       2 UNK         0.0296 
     78 CB        -47.7978  -30.3770    4.7470 C.3       2 UNK        -0.2002 
     79 N         -48.6372  -28.0974    5.0828 N.am      2 UNK        -0.4032 
     80 C         -48.7694  -26.7679    4.9728 C.2       1 UNK         0.5000 
     81 O         -48.0211  -26.0870    4.2683 O.2       1 UNK        -0.5238 
     82 H82       -50.2490  -26.9572    9.8576 H         1 UNK         0.0889 
     83 H83       -48.7278  -27.8028    9.5412 H         1 UNK         0.0889 
     84 H84       -50.2397  -28.7127    9.6877 H         1 UNK         0.0889 
     85 H85       -49.2302  -25.7623    7.8781 H         1 UNK         0.3028 
     86 H86       -50.7966  -26.4589    5.5304 H         1 UNK         0.0864 
     87 H87       -48.7975  -24.1571    5.7198 H         1 UNK         0.0720 
     88 H88       -50.1746  -24.2928    4.6669 H         1 UNK         0.0720 
     89 H89       -52.4529  -25.1944    6.3947 H         1 UNK         0.0814 
     90 H90       -53.1489  -23.6256    6.6854 H         1 UNK         0.0814 
     91 H91       -52.4871  -22.6352    9.1678 H         1 UNK         0.1469 
     92 H92       -53.2617  -25.5393   12.2136 H         1 UNK         0.1381 
     93 H93       -52.9140  -26.7682    8.1212 H         1 UNK         0.1206 
     94 H94       -53.1680  -28.4313    9.7840 H         1 UNK         0.0813 
     95 H95       -54.5176  -27.8470   10.7281 H         1 UNK         0.0813 
     96 H96       -54.4227  -29.8860   12.0917 H         1 UNK         0.0638 
     97 H97       -52.9881  -30.5825   11.3987 H         1 UNK         0.0638 
     98 H98       -53.5705  -31.7078   13.4490 H         1 UNK         0.0568 
     99 H99       -49.9894  -30.9100   15.0158 H         1 UNK         0.3450 
    100 H100      -51.4435  -30.1191   15.5714 H         1 UNK         0.3450 
    101 H101      -53.9007  -29.0908   14.6547 H         1 UNK         0.2987 
    102 H102      -55.2250  -30.6364   17.6510 H         1 UNK         0.0766 
    103 H103      -54.1217  -28.6583   18.6325 H         1 UNK         0.0798 
    104 H104      -53.1603  -28.4247   17.1780 H         1 UNK         0.0798 
    105 H105      -52.9230  -29.8548   18.1719 H         1 UNK         0.0798 
    106 H106      -55.3743  -28.1325   16.0508 H         1 UNK         0.3198 
    107 H107      -58.7199  -28.5335   15.2545 H         1 UNK         0.0843 
    108 H108      -57.9918  -26.9438   17.7770 H         1 UNK         0.0831 
    109 H109      -59.2702  -28.1432   17.6516 H         1 UNK         0.0831 
    110 H110      -59.3892  -26.6484   16.7404 H         1 UNK         0.0831 
    111 H111      -56.9761  -26.2212   15.6503 H         1 UNK         0.3133 
    112 H112      -55.3577  -26.5176   12.5423 H         1 UNK         0.0566 
    113 H113      -56.2370  -24.2635   12.0633 H         1 UNK         0.0814 
    114 H114      -57.4960  -24.4555   13.2863 H         1 UNK         0.0814 
    115 H115      -57.5063  -25.4532   11.8385 H         1 UNK         0.0814 
    116 H116      -55.2257  -24.3983   14.3799 H         1 UNK         0.3091 
    117 H117      -53.0931  -24.2089   15.4075 H         1 UNK         0.0702 
    118 H118      -53.3449  -24.3564   17.9165 H         1 UNK         0.0785 
    119 H119      -54.1522  -25.9136   17.7571 H         1 UNK         0.0785 
    120 H120      -54.9175  -24.4512   17.1475 H         1 UNK         0.0785 
    121 H121      -52.0786  -26.8479   15.7144 H         1 UNK         0.2998 
    122 H122      -48.8214  -25.8512   16.8976 H         1 UNK         0.0697 
    123 H123      -50.7200  -28.2683   16.9828 H         1 UNK         0.0825 
    124 H124      -50.2657  -27.3258   18.3973 H         1 UNK         0.0825 
    125 H125      -49.0440  -28.2186   17.5104 H         1 UNK         0.0825 
    126 H126      -50.1245  -26.4926   14.4513 H         1 UNK         0.3029 
    127 H127      -47.1313  -27.4157   12.8755 H         1 UNK         0.0897 
    128 H128      -49.7641  -28.9729   12.8372 H         1 UNK         0.0792 
    129 H129      -48.2116  -29.6615   13.2858 H         1 UNK         0.0792 
    130 H130      -48.4606  -29.0681   11.6559 H         1 UNK         0.0792 
    131 H131      -49.8091  -26.7070   11.9982 H         1 UNK         0.3086 
    132 H132      -50.1416  -24.7370   10.9788 H         1 UNK         0.0583 
    133 H133      -50.7909  -23.9923   13.2631 H         1 UNK         0.1020 
    134 H134      -49.4736  -22.8564   13.3120 H         1 UNK         0.1020 
    135 H135      -53.1169  -23.2472   12.8361 H         1 UNK         0.0694 
    136 H136      -53.6157  -22.1252   11.5942 H         1 UNK         0.0694 
    137 H137      -48.5192  -22.3829   10.9145 H         1 UNK         0.2989 
    138 H138      -47.7463  -21.9605    8.4811 H         1 UNK         0.1055 
    139 H139      -45.3139  -21.6348    9.1292 H         1 UNK         0.0806 
    140 H140      -45.3377  -23.1702    9.9920 H         1 UNK         0.0806 
    141 H141      -46.3071  -21.8172   10.5593 H         1 UNK         0.0806 
    142 H142      -46.7928  -24.4854    7.6073 H         1 UNK         0.3061 
    143 H143      -46.4094  -23.8220    4.6497 H         1 UNK         0.0734 
    144 H144      -43.4718  -23.4222    5.4099 H         1 UNK         0.0832 
    145 H145      -44.0320  -24.1567    3.9070 H         1 UNK         0.0832 
    146 H146      -44.4031  -22.4784    4.2612 H         1 UNK         0.0832 
    147 H147      -46.3131  -25.8786    5.3672 H         1 UNK         0.3156 
    148 H148      -44.1069  -27.9515    6.7616 H         1 UNK         0.0589 
    149 H149      -45.3839  -28.5673    8.8280 H         1 UNK         0.0808 
    150 H150      -44.3724  -27.1623    9.1060 H         1 UNK         0.0808 
    151 H151      -46.1018  -26.9564    8.8759 H         1 UNK         0.0808 
    152 H152      -47.0351  -27.9266    6.8254 H         1 UNK         0.3098 
    153 H153      -47.5007  -28.6945    3.4437 H         1 UNK         0.0720 
    154 H154      -46.9997  -30.9865    4.3205 H         1 UNK         0.0791 
    155 H155      -48.7294  -30.6888    4.2743 H         1 UNK         0.0791 
    156 H156      -47.8626  -30.6194    5.8086 H         1 UNK         0.0791 
    157 H157      -49.2882  -28.5778    5.7000 H         1 UNK         0.3028 
@<TRIPOS>BOND
     1    1    2 1    
     2    1   82 1    
     3    1   83 1    
     4    1   84 1    
     5    2    3 2    
     6    2    4 am   BACKBONE|DICT|INTERRES
     7    4    5 1    
     8    4   85 1    
     9    5    6 1    
    10    5   80 1    
    11    5   86 1    
    12    6    7 1    
    13    6   87 1    
    14    6   88 1    
    15    7    8 1    
    16    8    9 1    
    17    8   89 1    
    18    8   90 1    
    19    9   10 ar   
    20    9   14 ar   
    21   10   11 ar   
    22   10   91 1    
    23   11   12 ar   
    24   11   58 1    
    25   12   13 ar   
    26   12   92 1    
    27   13   14 ar   
    28   13   15 1    
    29   14   93 1    
    30   15   16 1    
    31   15   94 1    
    32   15   95 1    
    33   16   17 1    
    34   17   18 1    
    35   17   96 1    
    36   17   97 1    
    37   18   19 1    
    38   18   22 1    
    39   18   98 1    
    40   19   20 am   BACKBONE|DICT|INTERRES
    41   19   21 2    
    42   20   99 1    
    43   20  100 1    
    44   22   23 am   BACKBONE|DICT|INTERRES
    45   22  101 1    
    46   23   24 2    
    47   23   25 1    
    48   25   26 1    
    49   25   27 1    
    50   25  102 1    
    51   26  103 1    
    52   26  104 1    
    53   26  105 1    
    54   27   28 am   BACKBONE|DICT|INTERRES
    55   27  106 1    
    56   28   29 2    
    57   28   30 1    
    58   30   31 1    
    59   30   32 1    
    60   30  107 1    
    61   31  108 1    
    62   31  109 1    
    63   31  110 1    
    64   32   33 am   BACKBONE|DICT|INTERRES
    65   32  111 1    
    66   33   34 2    
    67   33   35 1    
    68   35   36 1    
    69   35   37 1    
    70   35  112 1    
    71   36  113 1    
    72   36  114 1    
    73   36  115 1    
    74   37   38 am   BACKBONE|DICT|INTERRES
    75   37  116 1    
    76   38   39 2    
    77   38   40 1    
    78   40   41 1    
    79   40   42 1    
    80   40  117 1    
    81   41  118 1    
    82   41  119 1    
    83   41  120 1    
    84   42   43 am   BACKBONE|DICT|INTERRES
    85   42  121 1    
    86   43   44 2    
    87   43   45 1    
    88   45   46 1    
    89   45   47 1    
    90   45  122 1    
    91   46  123 1    
    92   46  124 1    
    93   46  125 1    
    94   47   48 am   BACKBONE|DICT|INTERRES
    95   47  126 1    
    96   48   49 2    
    97   48   50 1    
    98   50   51 1    
    99   50   52 1    
   100   50  127 1    
   101   51  128 1    
   102   51  129 1    
   103   51  130 1    
   104   52   53 am   BACKBONE|DICT|INTERRES
   105   52  131 1    
   106   53   54 2    
   107   53   55 1    
   108   55   56 1    
   109   55   59 1    
   110   55  132 1    
   111   56   57 1    
   112   56  133 1    
   113   56  134 1    
   114   57   58 1    
   115   58  135 1    
   116   58  136 1    
   117   59   60 am   BACKBONE|DICT|INTERRES
   118   59  137 1    
   119   60   61 2    
   120   60   62 1    
   121   62   63 1    
   122   62   64 1    
   123   62  138 1    
   124   63  139 1    
   125   63  140 1    
   126   63  141 1    
   127   64   65 am   BACKBONE|DICT|INTERRES
   128   64  142 1    
   129   65   66 2    
   130   65   67 1    
   131   67   68 1    
   132   67   69 1    
   133   67  143 1    
   134   68  144 1    
   135   68  145 1    
   136   68  146 1    
   137   69   70 am   BACKBONE|DICT|INTERRES
   138   69  147 1    
   139   70   71 2    
   140   70   72 1    
   141   72   73 1    
   142   72   74 1    
   143   72  148 1    
   144   73  149 1    
   145   73  150 1    
   146   73  151 1    
   147   74   75 am   BACKBONE|DICT|INTERRES
   148   74  152 1    
   149   75   76 2    
   150   75   77 1    
   151   77   78 1    
   152   77   79 1    
   153   77  153 1    
   154   78  154 1    
   155   78  155 1    
   156   78  156 1    
   157   79   80 am   BACKBONE|DICT|INTERRES
   158   79  157 1    
   159   80   81 2    
@<TRIPOS>SUBSTRUCTURE
     1 UNK         1 GROUP             0       ****    0 ROOT    
