@<TRIPOS>MOLECULE
3R207
157   159    1
SMALL
USER_CHARGES


@<TRIPOS>ATOM
      1 CA        -45.1661  -28.9433    6.5560 C.3       0 UNK        -0.1975 
      2 C         -46.5560  -28.5022    6.1242 C.2       0 UNK         0.4852 
      3 O         -46.6905  -27.7531    5.1549 O.2       0 UNK        -0.5216 
      4 N         -47.5980  -28.9523    6.8355 N.am      1 UNK        -0.4461 
      5 CA        -48.9843  -28.5243    6.6344 C.3       1 UNK         0.0864 
      6 C6        -50.0033  -29.3953    7.4153 C.3       14 UNK        -0.0898 
      7 S7        -49.5930  -29.6897    9.1723 S.3       14 UNK        -0.2598 
      8 C8        -51.0964  -30.5555    9.7409 C.3       14 UNK         0.0286 
      9 C9        -52.3166  -29.6464    9.7090 C.ar      14 UNK        -0.0844 
     10 C10       -52.3419  -28.4966   10.4988 C.ar      14 UNK        -0.0881 
     11 C11       -53.4102  -27.6008   10.4201 C.ar      14 UNK        -0.0643 
     12 C12       -54.4854  -27.8887    9.5776 C.ar      14 UNK        -0.0930 
     13 C13       -54.5117  -29.0768    8.8420 C.ar      14 UNK        -0.0827 
     14 C14       -53.4125  -29.9414    8.8927 C.ar      14 UNK        -0.1249 
     15 C15       -55.7258  -29.4381    7.9997 C.3       14 UNK         0.0141 
     16 S16       -56.7136  -30.7360    8.8122 S.3       14 UNK        -0.2313 
     17 C17       -58.0445  -29.8018    9.6497 C.3       14 UNK        -0.0915 
     18 CA        -57.6165  -28.9149   10.8602 C.3       13 UNK         0.0968 
     19 C         -58.8331  -28.2328   11.5565 C.2       13 UNK         0.5732 
     20 N         -58.8084  -28.0111   12.8655 N.am      13 UNK        -0.7310 
     21 O         -59.8039  -27.8656   10.8982 O.2       13 UNK        -0.5035 
     22 N         -56.6655  -29.5610   11.7817 N.am      13 UNK        -0.4233 
     23 C         -56.8752  -30.6732   12.4929 C.2       13 UNK         0.4989 
     24 O         -57.9237  -31.3191   12.4811 O.2       13 UNK        -0.4996 
     25 CA        -55.7193  -31.1384   13.3925 C.3       12 UNK         0.0216 
     26 CB        -54.4486  -31.4658   12.5774 C.3       12 UNK        -0.1964 
     27 N         -55.4453  -30.2176   14.5061 N.am      12 UNK        -0.4276 
     28 C         -54.9175  -28.9858   14.4615 C.2       12 UNK         0.5020 
     29 O         -54.5811  -28.4175   13.4204 O.2       12 UNK        -0.5489 
     30 CA        -54.7377  -28.2667   15.8082 C.3       11 UNK         0.0294 
     31 CB        -54.0540  -29.1614   16.8649 C.3       11 UNK        -0.2019 
     32 N         -53.9374  -27.0614   15.6033 N.am      11 UNK        -0.4493 
     33 C         -53.9219  -25.9829   16.3955 C.2       11 UNK         0.4932 
     34 O         -54.6706  -25.8374   17.3640 O.2       11 UNK        -0.5029 
     35 CA        -52.8601  -24.9109   16.0635 C.3       10 UNK         0.0280 
     36 CB        -52.7523  -23.8102   17.1392 C.3       10 UNK        -0.1976 
     37 N         -51.5376  -25.4918   15.7914 N.am      10 UNK        -0.4242 
     38 C         -50.8360  -26.3175   16.5864 C.2       10 UNK         0.5072 
     39 O         -51.1735  -26.6441   17.7253 O.2       10 UNK        -0.5224 
     40 CA        -49.5483  -26.9106   15.9963 C.3       9 UNK         0.0343 
     41 CB        -49.8843  -27.9670   14.9286 C.3       9 UNK        -0.2003 
     42 N         -48.6489  -25.9020   15.4340 N.am      9 UNK        -0.4272 
     43 C         -47.9582  -25.0062   16.1543 C.2       9 UNK         0.4988 
     44 O         -48.0141  -24.9209   17.3817 O.2       9 UNK        -0.5108 
     45 CA        -47.0324  -24.0513   15.3791 C.3       8 UNK         0.0248 
     46 CB        -45.7287  -24.7580   14.9727 C.3       8 UNK        -0.2001 
     47 N         -47.6736  -23.4853   14.1926 N.am      8 UNK        -0.4140 
     48 C         -48.6784  -22.5988   14.2240 C.2       8 UNK         0.5028 
     49 O         -49.1177  -22.0908   15.2565 O.2       8 UNK        -0.5428 
     50 CA        -49.3211  -22.2336   12.8750 C.3       7 UNK         0.0264 
     51 CB        -48.5510  -21.0950   12.1863 C.3       7 UNK        -0.1988 
     52 N         -49.4295  -23.3806   11.9688 N.am      7 UNK        -0.4454 
     53 C         -50.2050  -24.4496   12.2019 C.2       7 UNK         0.5027 
     54 O         -50.9058  -24.5809   13.2064 O.2       7 UNK        -0.5083 
     55 CA        -50.1651  -25.5904   11.1657 C.3       6 UNK         0.0844 
     56 C56       -51.0820  -25.3300    9.9411 C.3       14 UNK        -0.0967 
     57 S57       -52.8212  -24.8911   10.3038 S.3       14 UNK        -0.2604 
     58 C58       -53.4113  -26.3292   11.2526 C.3       14 UNK         0.0134 
     59 N         -48.8016  -25.9237   10.7478 N.am      6 UNK        -0.4116 
     60 C         -47.8258  -26.3452   11.5633 C.2       5 UNK         0.5034 
     61 O         -47.9772  -26.5472   12.7664 O.2       5 UNK        -0.5045 
     62 CA        -46.4224  -26.4928   10.9544 C.3       5 UNK         0.0224 
     63 CB        -46.2820  -27.8131   10.1828 C.3       5 UNK        -0.1978 
     64 N         -46.0433  -25.3647   10.0966 N.am      5 UNK        -0.4737 
     65 C         -45.9798  -24.0872   10.4930 C.2       4 UNK         0.5027 
     66 O         -46.2712  -23.7212   11.6318 O.2       4 UNK        -0.5211 
     67 CA        -45.5378  -23.0218    9.4733 C.3       4 UNK         0.0297 
     68 CB        -44.0399  -22.7023    9.6401 C.3       4 UNK        -0.1993 
     69 N         -45.8704  -23.2942    8.0664 N.am      4 UNK        -0.4486 
     70 C         -45.3972  -24.2410    7.2457 C.2       3 UNK         0.4961 
     71 O         -44.6433  -25.1491    7.5983 O.2       3 UNK        -0.5105 
     72 CA        -45.8922  -24.1666    5.7908 C.3       3 UNK         0.0299 
     73 CB        -44.9519  -24.8933    4.8121 C.3       3 UNK        -0.1972 
     74 N         -47.2452  -24.7141    5.6780 N.am      3 UNK        -0.4305 
     75 C         -48.3596  -24.0640    6.0519 C.2       2 UNK         0.5006 
     76 O         -48.3524  -22.9089    6.4818 O.2       2 UNK        -0.5106 
     77 CA        -49.7101  -24.8020    5.9438 C.3       2 UNK         0.0296 
     78 CB        -50.4826  -24.3262    4.7028 C.3       2 UNK        -0.2002 
     79 N         -49.6036  -26.2632    5.9120 N.am      2 UNK        -0.4032 
     80 C         -49.1308  -27.0130    6.9164 C.2       1 UNK         0.5000 
     81 O         -48.7658  -26.5452    7.9973 O.2       1 UNK        -0.5238 
     82 H82       -45.2014  -29.6340    7.3983 H         1 UNK         0.0889 
     83 H83       -44.5772  -28.0754    6.8530 H         1 UNK         0.0889 
     84 H84       -44.6551  -29.4378    5.7305 H         1 UNK         0.0889 
     85 H85       -47.4474  -29.5479    7.6374 H         1 UNK         0.3028 
     86 H86       -49.2000  -28.6780    5.5746 H         1 UNK         0.0864 
     87 H87       -50.0771  -30.3720    6.9347 H         1 UNK         0.0720 
     88 H88       -51.0019  -28.9600    7.3460 H         1 UNK         0.0720 
     89 H89       -50.9405  -30.9066   10.7619 H         1 UNK         0.0814 
     90 H90       -51.2535  -31.4448    9.1286 H         1 UNK         0.0814 
     91 H91       -51.5083  -28.2972   11.1533 H         1 UNK         0.1469 
     92 H92       -55.3049  -27.1882    9.5094 H         1 UNK         0.1381 
     93 H93       -53.4175  -30.8472    8.3020 H         1 UNK         0.1206 
     94 H94       -55.3918  -29.8060    7.0285 H         1 UNK         0.0813 
     95 H95       -56.3442  -28.5621    7.7986 H         1 UNK         0.0813 
     96 H96       -58.7853  -30.5338    9.9754 H         1 UNK         0.0638 
     97 H97       -58.5459  -29.1916    8.8964 H         1 UNK         0.0638 
     98 H98       -57.0723  -28.0706   10.4480 H         1 UNK         0.0568 
     99 H99       -58.0141  -28.2943   13.4148 H         1 UNK         0.3450 
    100 H100      -59.5951  -27.5593   13.3042 H         1 UNK         0.3450 
    101 H101      -55.7861  -29.0759   11.9327 H         1 UNK         0.2987 
    102 H102      -56.0450  -32.0708   13.8569 H         1 UNK         0.0766 
    103 H103      -53.6658  -31.8781   13.2137 H         1 UNK         0.0798 
    104 H104      -54.0392  -30.5910   12.0716 H         1 UNK         0.0798 
    105 H105      -54.6640  -32.2060   11.8057 H         1 UNK         0.0798 
    106 H106      -55.7131  -30.5701   15.4149 H         1 UNK         0.3198 
    107 H107      -55.7305  -27.9790   16.1605 H         1 UNK         0.0843 
    108 H108      -53.8746  -28.6161   17.7919 H         1 UNK         0.0831 
    109 H109      -54.6674  -30.0244   17.1241 H         1 UNK         0.0831 
    110 H110      -53.0913  -29.5334   16.5116 H         1 UNK         0.0831 
    111 H111      -53.3698  -27.0789   14.7656 H         1 UNK         0.3133 
    112 H112      -53.1817  -24.4363   15.1352 H         1 UNK         0.0566 
    113 H113      -52.0152  -23.0568   16.8601 H         1 UNK         0.0814 
    114 H114      -53.7058  -23.2979   17.2723 H         1 UNK         0.0814 
    115 H115      -52.4631  -24.2189   18.1080 H         1 UNK         0.0814 
    116 H116      -51.1589  -25.2676   14.8715 H         1 UNK         0.3091 
    117 H117      -49.0159  -27.4144   16.8060 H         1 UNK         0.0702 
    118 H118      -48.9857  -28.4792   14.5842 H         1 UNK         0.0785 
    119 H119      -50.3683  -27.5244   14.0572 H         1 UNK         0.0785 
    120 H120      -50.5580  -28.7270   15.3268 H         1 UNK         0.0785 
    121 H121      -48.4901  -25.9485   14.4295 H         1 UNK         0.2998 
    122 H122      -46.7732  -23.2257   16.0453 H         1 UNK         0.0697 
    123 H123      -45.9123  -25.5882   14.2902 H         1 UNK         0.0825 
    124 H124      -45.2146  -25.1608   15.8463 H         1 UNK         0.0825 
    125 H125      -45.0422  -24.0690   14.4801 H         1 UNK         0.0825 
    126 H126      -47.3271  -23.7924   13.2874 H         1 UNK         0.3029 
    127 H127      -50.3340  -21.8805   13.0820 H         1 UNK         0.0897 
    128 H128      -49.0364  -20.7901   11.2591 H         1 UNK         0.0792 
    129 H129      -48.5033  -20.2156   12.8300 H         1 UNK         0.0792 
    130 H130      -47.5251  -21.3797   11.9518 H         1 UNK         0.0792 
    131 H131      -48.8387  -23.3760   11.1505 H         1 UNK         0.3086 
    132 H132      -50.5328  -26.4714   11.6871 H         1 UNK         0.0583 
    133 H133      -51.0895  -26.2097    9.2959 H         1 UNK         0.1020 
    134 H134      -50.6640  -24.5270    9.3318 H         1 UNK         0.1020 
    135 H135      -52.8128  -26.4571   12.1551 H         1 UNK         0.0694 
    136 H136      -54.4252  -26.1257   11.6003 H         1 UNK         0.0694 
    137 H137      -48.6123  -25.8957    9.7481 H         1 UNK         0.2989 
    138 H138      -45.7153  -26.5142   11.7864 H         1 UNK         0.1055 
    139 H139      -46.5446  -28.6640   10.8131 H         1 UNK         0.0806 
    140 H140      -45.2590  -27.9658    9.8385 H         1 UNK         0.0806 
    141 H141      -46.9357  -27.8403    9.3133 H         1 UNK         0.0806 
    142 H142      -45.7325  -25.5732    9.1525 H         1 UNK         0.3061 
    143 H143      -46.0915  -22.1167    9.7278 H         1 UNK         0.0734 
    144 H144      -43.8189  -22.4010   10.6651 H         1 UNK         0.0832 
    145 H145      -43.4116  -23.5647    9.4154 H         1 UNK         0.0832 
    146 H146      -43.7330  -21.8836    8.9892 H         1 UNK         0.0832 
    147 H147      -46.5806  -22.6865    7.6703 H         1 UNK         0.3156 
    148 H148      -45.9122  -23.1153    5.4949 H         1 UNK         0.0589 
    149 H149      -44.8333  -25.9475    5.0610 H         1 UNK         0.0808 
    150 H150      -45.3175  -24.8301    3.7872 H         1 UNK         0.0808 
    151 H151      -43.9571  -24.4466    4.8301 H         1 UNK         0.0808 
    152 H152      -47.3115  -25.6824    5.3840 H         1 UNK         0.3098 
    153 H153      -50.2920  -24.5341    6.8279 H         1 UNK         0.0720 
    154 H154      -51.4799  -24.7649    4.6627 H         1 UNK         0.0791 
    155 H155      -49.9624  -24.5845    3.7795 H         1 UNK         0.0791 
    156 H156      -50.6090  -23.2425    4.7131 H         1 UNK         0.0791 
    157 H157      -49.8579  -26.7135    5.0444 H         1 UNK         0.3028 
@<TRIPOS>BOND
     1    1    2 1    
     2    1   82 1    
     3    1   83 1    
     4    1   84 1    
     5    2    3 2    
     6    2    4 am   BACKBONE|DICT|INTERRES
     7    4    5 1    
     8    4   85 1    
     9    5    6 1    
    10    5   80 1    
    11    5   86 1    
    12    6    7 1    
    13    6   87 1    
    14    6   88 1    
    15    7    8 1    
    16    8    9 1    
    17    8   89 1    
    18    8   90 1    
    19    9   10 ar   
    20    9   14 ar   
    21   10   11 ar   
    22   10   91 1    
    23   11   12 ar   
    24   11   58 1    
    25   12   13 ar   
    26   12   92 1    
    27   13   14 ar   
    28   13   15 1    
    29   14   93 1    
    30   15   16 1    
    31   15   94 1    
    32   15   95 1    
    33   16   17 1    
    34   17   18 1    
    35   17   96 1    
    36   17   97 1    
    37   18   19 1    
    38   18   22 1    
    39   18   98 1    
    40   19   20 am   BACKBONE|DICT|INTERRES
    41   19   21 2    
    42   20   99 1    
    43   20  100 1    
    44   22   23 am   BACKBONE|DICT|INTERRES
    45   22  101 1    
    46   23   24 2    
    47   23   25 1    
    48   25   26 1    
    49   25   27 1    
    50   25  102 1    
    51   26  103 1    
    52   26  104 1    
    53   26  105 1    
    54   27   28 am   BACKBONE|DICT|INTERRES
    55   27  106 1    
    56   28   29 2    
    57   28   30 1    
    58   30   31 1    
    59   30   32 1    
    60   30  107 1    
    61   31  108 1    
    62   31  109 1    
    63   31  110 1    
    64   32   33 am   BACKBONE|DICT|INTERRES
    65   32  111 1    
    66   33   34 2    
    67   33   35 1    
    68   35   36 1    
    69   35   37 1    
    70   35  112 1    
    71   36  113 1    
    72   36  114 1    
    73   36  115 1    
    74   37   38 am   BACKBONE|DICT|INTERRES
    75   37  116 1    
    76   38   39 2    
    77   38   40 1    
    78   40   41 1    
    79   40   42 1    
    80   40  117 1    
    81   41  118 1    
    82   41  119 1    
    83   41  120 1    
    84   42   43 am   BACKBONE|DICT|INTERRES
    85   42  121 1    
    86   43   44 2    
    87   43   45 1    
    88   45   46 1    
    89   45   47 1    
    90   45  122 1    
    91   46  123 1    
    92   46  124 1    
    93   46  125 1    
    94   47   48 am   BACKBONE|DICT|INTERRES
    95   47  126 1    
    96   48   49 2    
    97   48   50 1    
    98   50   51 1    
    99   50   52 1    
   100   50  127 1    
   101   51  128 1    
   102   51  129 1    
   103   51  130 1    
   104   52   53 am   BACKBONE|DICT|INTERRES
   105   52  131 1    
   106   53   54 2    
   107   53   55 1    
   108   55   56 1    
   109   55   59 1    
   110   55  132 1    
   111   56   57 1    
   112   56  133 1    
   113   56  134 1    
   114   57   58 1    
   115   58  135 1    
   116   58  136 1    
   117   59   60 am   BACKBONE|DICT|INTERRES
   118   59  137 1    
   119   60   61 2    
   120   60   62 1    
   121   62   63 1    
   122   62   64 1    
   123   62  138 1    
   124   63  139 1    
   125   63  140 1    
   126   63  141 1    
   127   64   65 am   BACKBONE|DICT|INTERRES
   128   64  142 1    
   129   65   66 2    
   130   65   67 1    
   131   67   68 1    
   132   67   69 1    
   133   67  143 1    
   134   68  144 1    
   135   68  145 1    
   136   68  146 1    
   137   69   70 am   BACKBONE|DICT|INTERRES
   138   69  147 1    
   139   70   71 2    
   140   70   72 1    
   141   72   73 1    
   142   72   74 1    
   143   72  148 1    
   144   73  149 1    
   145   73  150 1    
   146   73  151 1    
   147   74   75 am   BACKBONE|DICT|INTERRES
   148   74  152 1    
   149   75   76 2    
   150   75   77 1    
   151   77   78 1    
   152   77   79 1    
   153   77  153 1    
   154   78  154 1    
   155   78  155 1    
   156   78  156 1    
   157   79   80 am   BACKBONE|DICT|INTERRES
   158   79  157 1    
   159   80   81 2    
@<TRIPOS>SUBSTRUCTURE
     1 UNK         1 GROUP             0       ****    0 ROOT    
