@<TRIPOS>MOLECULE
3R207
157   159    1
SMALL
USER_CHARGES


@<TRIPOS>ATOM
      1 CA        -48.3201  -29.9533   11.7247 C.3       0 UNK        -0.1975 
      2 C         -48.0649  -29.0885   10.4999 C.2       0 UNK         0.4852 
      3 O         -48.0888  -27.8640   10.6023 O.2       0 UNK        -0.5216 
      4 N         -47.7819  -29.7266    9.3563 N.am      1 UNK        -0.4461 
      5 CA        -47.5083  -29.1781    8.0136 C.3       1 UNK         0.0864 
      6 C6        -48.7699  -28.7393    7.2185 C.3       14 UNK        -0.0898 
      7 S7        -49.7230  -27.3337    7.8847 S.3       14 UNK        -0.2598 
      8 C8        -51.1992  -27.4475    6.8268 C.3       14 UNK         0.0286 
      9 C9        -52.3986  -26.7857    7.4819 C.ar      14 UNK        -0.0844 
     10 C10       -52.6098  -25.4130    7.3390 C.ar      14 UNK        -0.0881 
     11 C11       -53.6960  -24.7914    7.9655 C.ar      14 UNK        -0.0643 
     12 C12       -54.6013  -25.5685    8.6968 C.ar      14 UNK        -0.0930 
     13 C13       -54.4182  -26.9495    8.8188 C.ar      14 UNK        -0.0827 
     14 C14       -53.3062  -27.5495    8.2211 C.ar      14 UNK        -0.1249 
     15 C15       -55.4479  -27.8023    9.5464 C.3       14 UNK         0.0141 
     16 S16       -55.4082  -27.5718   11.3511 S.3       14 UNK        -0.2313 
     17 C17       -56.6806  -28.7847   11.8546 C.3       14 UNK        -0.0915 
     18 CA        -56.1933  -29.8714   12.8576 C.3       13 UNK         0.0968 
     19 C         -55.0355  -30.7749   12.3513 C.2       13 UNK         0.5732 
     20 N         -55.1201  -31.2736   11.1248 N.am      13 UNK        -0.7310 
     21 O         -54.0777  -31.0654   13.0645 O.2       13 UNK        -0.5035 
     22 N         -55.9282  -29.3113   14.1886 N.am      13 UNK        -0.4233 
     23 C         -56.8636  -29.1284   15.1294 C.2       13 UNK         0.4989 
     24 O         -58.0538  -29.4037   14.9614 O.2       13 UNK        -0.4996 
     25 CA        -56.4203  -28.5153   16.4731 C.3       12 UNK         0.0216 
     26 CB        -57.3682  -28.8689   17.6398 C.3       12 UNK        -0.1964 
     27 N         -55.0265  -28.7978   16.8275 N.am      12 UNK        -0.4276 
     28 C         -54.4561  -29.9880   17.0756 C.2       12 UNK         0.5020 
     29 O         -55.0718  -31.0548   17.0809 O.2       12 UNK        -0.5489 
     30 CA        -52.9393  -29.9979   17.3585 C.3       11 UNK         0.0294 
     31 CB        -52.2086  -30.9660   16.4108 C.3       11 UNK        -0.2019 
     32 N         -52.3477  -28.6653   17.2132 N.am      11 UNK        -0.4493 
     33 C         -52.1324  -27.7983   18.2128 C.2       11 UNK         0.4932 
     34 O         -52.3069  -28.0669   19.4012 O.2       11 UNK        -0.5029 
     35 CA        -51.6780  -26.3780   17.8232 C.3       10 UNK         0.0280 
     36 CB        -50.1525  -26.2478   17.9541 C.3       10 UNK        -0.1976 
     37 N         -52.0952  -25.9919   16.4693 N.am      10 UNK        -0.4242 
     38 C         -53.3710  -25.7641   16.1125 C.2       10 UNK         0.5072 
     39 O         -54.3081  -25.7929   16.9097 O.2       10 UNK        -0.5224 
     40 CA        -53.6826  -25.5408   14.6195 C.3       9 UNK         0.0343 
     41 CB        -53.7748  -24.0403   14.3066 C.3       9 UNK        -0.2003 
     42 N         -52.7206  -26.1757   13.7159 N.am      9 UNK        -0.4272 
     43 C         -52.4824  -27.4966   13.6691 C.2       9 UNK         0.4988 
     44 O         -53.1178  -28.3136   14.3352 O.2       9 UNK        -0.5108 
     45 CA        -51.3131  -27.9954   12.7960 C.3       8 UNK         0.0248 
     46 CB        -51.8449  -28.4540   11.4294 C.3       8 UNK        -0.2001 
     47 N         -50.2527  -27.0095   12.5703 N.am      8 UNK        -0.4140 
     48 C         -49.6172  -26.2669   13.4890 C.2       8 UNK         0.5028 
     49 O         -49.7533  -26.4117   14.7037 O.2       8 UNK        -0.5428 
     50 CA        -48.7782  -25.0883   12.9572 C.3       7 UNK         0.0264 
     51 CB        -47.2801  -25.4276   12.9357 C.3       7 UNK        -0.1988 
     52 N         -49.2139  -24.6230   11.6310 N.am      7 UNK        -0.4454 
     53 C         -50.4278  -24.1017   11.3783 C.2       7 UNK         0.5027 
     54 O         -51.2762  -23.9354   12.2560 O.2       7 UNK        -0.5083 
     55 CA        -50.7798  -23.7681    9.9134 C.3       6 UNK         0.0844 
     56 C56       -51.9422  -22.7349    9.8075 C.3       14 UNK        -0.0967 
     57 S57       -52.3940  -22.3092    8.0889 S.3       14 UNK        -0.2604 
     58 C58       -53.9141  -23.2873    7.8385 C.3       14 UNK         0.0134 
     59 N         -49.5982  -23.4379    9.1092 N.am      6 UNK        -0.4116 
     60 C         -48.8500  -22.3312    9.2051 C.2       5 UNK         0.5034 
     61 O         -49.0381  -21.4496   10.0448 O.2       5 UNK        -0.5045 
     62 CA        -47.6876  -22.1741    8.2067 C.3       5 UNK         0.0224 
     63 CB        -46.3867  -21.7818    8.9297 C.3       5 UNK        -0.1978 
     64 N         -47.4343  -23.3671    7.3885 N.am      5 UNK        -0.4737 
     65 C         -48.0831  -23.6789    6.2552 C.2       4 UNK         0.5027 
     66 O         -49.0491  -23.0392    5.8395 O.2       4 UNK        -0.5211 
     67 CA        -47.5766  -24.9034    5.4569 C.3       4 UNK         0.0297 
     68 CB        -47.9135  -24.8164    3.9540 C.3       4 UNK        -0.1993 
     69 N         -46.1488  -25.1834    5.6558 N.am      4 UNK        -0.4486 
     70 C         -45.1162  -24.3498    5.4432 C.2       3 UNK         0.4961 
     71 O         -45.2204  -23.2664    4.8660 O.2       3 UNK        -0.5105 
     72 CA        -43.7395  -24.7778    6.0027 C.3       3 UNK         0.0299 
     73 CB        -42.9106  -23.5675    6.4831 C.3       3 UNK        -0.1972 
     74 N         -43.8056  -25.7965    7.0624 N.am      3 UNK        -0.4305 
     75 C         -44.4754  -25.7265    8.2240 C.2       2 UNK         0.5006 
     76 O         -45.1395  -24.7552    8.5875 O.2       2 UNK        -0.5106 
     77 CA        -44.4652  -26.9979    9.0864 C.3       2 UNK         0.0296 
     78 CB        -44.1998  -26.6631   10.5642 C.3       2 UNK        -0.2002 
     79 N         -45.7147  -27.7597    8.9855 N.am      2 UNK        -0.4032 
     80 C         -46.3150  -28.2018    7.8705 C.2       1 UNK         0.5000 
     81 O         -45.9204  -27.9256    6.7350 O.2       1 UNK        -0.5238 
     82 H82       -48.1778  -29.3741   12.6370 H         1 UNK         0.0889 
     83 H83       -47.6377  -30.8023   11.7561 H         1 UNK         0.0889 
     84 H84       -49.3414  -30.3318   11.7178 H         1 UNK         0.0889 
     85 H85       -47.7547  -30.7365    9.3896 H         1 UNK         0.3028 
     86 H86       -47.1426  -30.0571    7.4800 H         1 UNK         0.0864 
     87 H87       -49.4434  -29.5953    7.1568 H         1 UNK         0.0720 
     88 H88       -48.5053  -28.5078    6.1849 H         1 UNK         0.0720 
     89 H89       -51.4317  -28.4926    6.6175 H         1 UNK         0.0814 
     90 H90       -50.9881  -26.9826    5.8625 H         1 UNK         0.0814 
     91 H91       -51.9117  -24.8225    6.7610 H         1 UNK         0.1469 
     92 H92       -55.4585  -25.1034    9.1644 H         1 UNK         0.1381 
     93 H93       -53.1521  -28.6155    8.3202 H         1 UNK         0.1206 
     94 H94       -56.4438  -27.5547    9.1758 H         1 UNK         0.0813 
     95 H95       -55.2894  -28.8576    9.3199 H         1 UNK         0.0813 
     96 H96       -57.5105  -28.2278   12.2918 H         1 UNK         0.0638 
     97 H97       -57.1019  -29.2633   10.9698 H         1 UNK         0.0638 
     98 H98       -57.0151  -30.5802   12.9739 H         1 UNK         0.0568 
     99 H99       -54.3826  -31.8751   10.7945 H         1 UNK         0.3450 
    100 H100      -55.9111  -31.0789   10.5331 H         1 UNK         0.3450 
    101 H101      -54.9528  -29.0955   14.3785 H         1 UNK         0.2987 
    102 H102      -56.4748  -27.4353   16.3298 H         1 UNK         0.0766 
    103 H103      -58.3808  -28.5139   17.4447 H         1 UNK         0.0798 
    104 H104      -57.0401  -28.4069   18.5710 H         1 UNK         0.0798 
    105 H105      -57.4277  -29.9456   17.8014 H         1 UNK         0.0798 
    106 H106      -54.4299  -27.9808   16.8641 H         1 UNK         0.3198 
    107 H107      -52.8035  -30.3563   18.3811 H         1 UNK         0.0843 
    108 H108      -52.3555  -30.6957   15.3642 H         1 UNK         0.0831 
    109 H109      -52.5749  -31.9859   16.5348 H         1 UNK         0.0831 
    110 H110      -51.1366  -30.9820   16.6072 H         1 UNK         0.0831 
    111 H111      -52.2156  -28.3525   16.2579 H         1 UNK         0.3133 
    112 H112      -52.1371  -25.6798   18.5264 H         1 UNK         0.0566 
    113 H113      -49.8135  -25.2454   17.6920 H         1 UNK         0.0814 
    114 H114      -49.6298  -26.9576   17.3119 H         1 UNK         0.0814 
    115 H115      -49.8323  -26.4415   18.9787 H         1 UNK         0.0814 
    116 H116      -51.3692  -25.9930   15.7562 H         1 UNK         0.3091 
    117 H117      -54.6579  -25.9898   14.4191 H         1 UNK         0.0702 
    118 H118      -54.0516  -23.8685   13.2661 H         1 UNK         0.0785 
    119 H119      -52.8271  -23.5321   14.4895 H         1 UNK         0.0785 
    120 H120      -54.5302  -23.5572   14.9278 H         1 UNK         0.0785 
    121 H121      -52.1566  -25.5500   13.1496 H         1 UNK         0.2998 
    122 H122      -50.8638  -28.8494   13.3055 H         1 UNK         0.0697 
    123 H123      -51.0572  -28.8601   10.7966 H         1 UNK         0.0825 
    124 H124      -52.3075  -27.6275   10.8891 H         1 UNK         0.0825 
    125 H125      -52.6007  -29.2309   11.5430 H         1 UNK         0.0825 
    126 H126      -49.9911  -26.8539   11.6056 H         1 UNK         0.3029 
    127 H127      -48.9220  -24.2598   13.6543 H         1 UNK         0.0897 
    128 H128      -47.0582  -26.2533   12.2623 H         1 UNK         0.0792 
    129 H129      -46.9352  -25.7195   13.9285 H         1 UNK         0.0792 
    130 H130      -46.6825  -24.5704   12.6248 H         1 UNK         0.0792 
    131 H131      -48.5725  -24.7614   10.8630 H         1 UNK         0.3086 
    132 H132      -51.1456  -24.7100    9.5065 H         1 UNK         0.0583 
    133 H133      -52.8306  -23.1101   10.3195 H         1 UNK         0.1020 
    134 H134      -51.6762  -21.8101   10.3222 H         1 UNK         0.1020 
    135 H135      -54.6692  -22.9439    8.5474 H         1 UNK         0.0694 
    136 H136      -54.3057  -23.0756    6.8429 H         1 UNK         0.0694 
    137 H137      -49.3631  -24.0948    8.3799 H         1 UNK         0.2989 
    138 H138      -47.9593  -21.3518    7.5410 H         1 UNK         0.1055 
    139 H139      -46.1057  -22.5202    9.6815 H         1 UNK         0.0806 
    140 H140      -46.4935  -20.8238    9.4401 H         1 UNK         0.0806 
    141 H141      -45.5566  -21.6830    8.2299 H         1 UNK         0.0806 
    142 H142      -46.6492  -23.9450    7.6821 H         1 UNK         0.3061 
    143 H143      -48.1080  -25.7652    5.8615 H         1 UNK         0.0734 
    144 H144      -48.9910  -24.7529    3.7974 H         1 UNK         0.0832 
    145 H145      -47.4656  -23.9374    3.4898 H         1 UNK         0.0832 
    146 H146      -47.5615  -25.6970    3.4169 H         1 UNK         0.0832 
    147 H147      -45.9446  -26.0751    6.1015 H         1 UNK         0.3156 
    148 H148      -43.2060  -25.2379    5.1699 H         1 UNK         0.0589 
    149 H149      -43.4191  -23.0215    7.2785 H         1 UNK         0.0808 
    150 H150      -41.9359  -23.8777    6.8595 H         1 UNK         0.0808 
    151 H151      -42.7310  -22.8639    5.6692 H         1 UNK         0.0808 
    152 H152      -43.3506  -26.6719    6.8406 H         1 UNK         0.3098 
    153 H153      -43.6588  -27.6476    8.7409 H         1 UNK         0.0720 
    154 H154      -44.9895  -26.0390   10.9835 H         1 UNK         0.0791 
    155 H155      -43.2615  -26.1186   10.6781 H         1 UNK         0.0791 
    156 H156      -44.1268  -27.5655   11.1715 H         1 UNK         0.0791 
    157 H157      -46.2081  -27.9382    9.8522 H         1 UNK         0.3028 
@<TRIPOS>BOND
     1    1    2 1    
     2    1   82 1    
     3    1   83 1    
     4    1   84 1    
     5    2    3 2    
     6    2    4 am   BACKBONE|DICT|INTERRES
     7    4    5 1    
     8    4   85 1    
     9    5    6 1    
    10    5   80 1    
    11    5   86 1    
    12    6    7 1    
    13    6   87 1    
    14    6   88 1    
    15    7    8 1    
    16    8    9 1    
    17    8   89 1    
    18    8   90 1    
    19    9   10 ar   
    20    9   14 ar   
    21   10   11 ar   
    22   10   91 1    
    23   11   12 ar   
    24   11   58 1    
    25   12   13 ar   
    26   12   92 1    
    27   13   14 ar   
    28   13   15 1    
    29   14   93 1    
    30   15   16 1    
    31   15   94 1    
    32   15   95 1    
    33   16   17 1    
    34   17   18 1    
    35   17   96 1    
    36   17   97 1    
    37   18   19 1    
    38   18   22 1    
    39   18   98 1    
    40   19   20 am   BACKBONE|DICT|INTERRES
    41   19   21 2    
    42   20   99 1    
    43   20  100 1    
    44   22   23 am   BACKBONE|DICT|INTERRES
    45   22  101 1    
    46   23   24 2    
    47   23   25 1    
    48   25   26 1    
    49   25   27 1    
    50   25  102 1    
    51   26  103 1    
    52   26  104 1    
    53   26  105 1    
    54   27   28 am   BACKBONE|DICT|INTERRES
    55   27  106 1    
    56   28   29 2    
    57   28   30 1    
    58   30   31 1    
    59   30   32 1    
    60   30  107 1    
    61   31  108 1    
    62   31  109 1    
    63   31  110 1    
    64   32   33 am   BACKBONE|DICT|INTERRES
    65   32  111 1    
    66   33   34 2    
    67   33   35 1    
    68   35   36 1    
    69   35   37 1    
    70   35  112 1    
    71   36  113 1    
    72   36  114 1    
    73   36  115 1    
    74   37   38 am   BACKBONE|DICT|INTERRES
    75   37  116 1    
    76   38   39 2    
    77   38   40 1    
    78   40   41 1    
    79   40   42 1    
    80   40  117 1    
    81   41  118 1    
    82   41  119 1    
    83   41  120 1    
    84   42   43 am   BACKBONE|DICT|INTERRES
    85   42  121 1    
    86   43   44 2    
    87   43   45 1    
    88   45   46 1    
    89   45   47 1    
    90   45  122 1    
    91   46  123 1    
    92   46  124 1    
    93   46  125 1    
    94   47   48 am   BACKBONE|DICT|INTERRES
    95   47  126 1    
    96   48   49 2    
    97   48   50 1    
    98   50   51 1    
    99   50   52 1    
   100   50  127 1    
   101   51  128 1    
   102   51  129 1    
   103   51  130 1    
   104   52   53 am   BACKBONE|DICT|INTERRES
   105   52  131 1    
   106   53   54 2    
   107   53   55 1    
   108   55   56 1    
   109   55   59 1    
   110   55  132 1    
   111   56   57 1    
   112   56  133 1    
   113   56  134 1    
   114   57   58 1    
   115   58  135 1    
   116   58  136 1    
   117   59   60 am   BACKBONE|DICT|INTERRES
   118   59  137 1    
   119   60   61 2    
   120   60   62 1    
   121   62   63 1    
   122   62   64 1    
   123   62  138 1    
   124   63  139 1    
   125   63  140 1    
   126   63  141 1    
   127   64   65 am   BACKBONE|DICT|INTERRES
   128   64  142 1    
   129   65   66 2    
   130   65   67 1    
   131   67   68 1    
   132   67   69 1    
   133   67  143 1    
   134   68  144 1    
   135   68  145 1    
   136   68  146 1    
   137   69   70 am   BACKBONE|DICT|INTERRES
   138   69  147 1    
   139   70   71 2    
   140   70   72 1    
   141   72   73 1    
   142   72   74 1    
   143   72  148 1    
   144   73  149 1    
   145   73  150 1    
   146   73  151 1    
   147   74   75 am   BACKBONE|DICT|INTERRES
   148   74  152 1    
   149   75   76 2    
   150   75   77 1    
   151   77   78 1    
   152   77   79 1    
   153   77  153 1    
   154   78  154 1    
   155   78  155 1    
   156   78  156 1    
   157   79   80 am   BACKBONE|DICT|INTERRES
   158   79  157 1    
   159   80   81 2    
@<TRIPOS>SUBSTRUCTURE
     1 UNK         1 GROUP             0       ****    0 ROOT    
