@<TRIPOS>MOLECULE
3R207
157   159    1
SMALL
USER_CHARGES


@<TRIPOS>ATOM
      1 CA        -46.5181  -31.8582    8.3460 C.3       0 UNK        -0.1975 
      2 C         -46.4474  -31.0048    7.0881 C.2       0 UNK         0.4852 
      3 O         -45.4249  -31.0103    6.4006 O.2       0 UNK        -0.5216 
      4 N         -47.5295  -30.2797    6.7798 N.am      1 UNK        -0.4461 
      5 CA        -47.6130  -29.3210    5.6742 C.3       1 UNK         0.0864 
      6 C6        -49.0897  -29.0479    5.2838 C.3       14 UNK        -0.0898 
      7 S7        -50.0989  -28.2887    6.6052 S.3       14 UNK        -0.2598 
      8 C8        -51.6361  -27.9850    5.6826 C.3       14 UNK         0.0286 
      9 C9        -52.6612  -27.2781    6.5525 C.ar      14 UNK        -0.0844 
     10 C10       -52.6327  -25.8862    6.6759 C.ar      14 UNK        -0.0881 
     11 C11       -53.5520  -25.2271    7.4955 C.ar      14 UNK        -0.0643 
     12 C12       -54.5318  -25.9689    8.1587 C.ar      14 UNK        -0.0930 
     13 C13       -54.5582  -27.3627    8.0625 C.ar      14 UNK        -0.0827 
     14 C14       -53.6268  -28.0130    7.2474 C.ar      14 UNK        -0.1249 
     15 C15       -55.5775  -28.1596    8.8621 C.3       14 UNK         0.0141 
     16 S16       -55.4063  -27.8350   10.6458 S.3       14 UNK        -0.2313 
     17 C17       -56.5783  -29.0481   11.3414 C.3       14 UNK        -0.0915 
     18 CA        -55.8820  -30.1695   12.1568 C.3       13 UNK         0.0968 
     19 C         -55.1737  -31.2211   11.2514 C.2       13 UNK         0.5732 
     20 N         -53.8892  -31.5042   11.4330 N.am      13 UNK        -0.7310 
     21 O         -55.8088  -31.8031   10.3753 O.2       13 UNK        -0.5035 
     22 N         -55.0458  -29.5949   13.2202 N.am      13 UNK        -0.4233 
     23 C         -54.7262  -30.1905   14.3738 C.2       13 UNK         0.4989 
     24 O         -55.1056  -31.3180   14.6917 O.2       13 UNK        -0.4996 
     25 CA        -53.8272  -29.3991   15.3398 C.3       12 UNK         0.0216 
     26 CB        -52.3857  -29.9232   15.2862 C.3       12 UNK        -0.1964 
     27 N         -53.8260  -27.9544   15.0835 N.am      12 UNK        -0.4276 
     28 C         -54.8185  -27.1265   15.4338 C.2       12 UNK         0.5020 
     29 O         -55.8341  -27.4914   16.0305 O.2       12 UNK        -0.5489 
     30 CA        -54.6328  -25.6475   15.0445 C.3       11 UNK         0.0294 
     31 CB        -55.8188  -24.7563   15.4697 C.3       11 UNK        -0.2019 
     32 N         -53.3644  -25.0837   15.5275 N.am      11 UNK        -0.4493 
     33 C         -52.9384  -25.0090   16.7970 C.2       11 UNK         0.4932 
     34 O         -53.5740  -25.4203   17.7697 O.2       11 UNK        -0.5029 
     35 CA        -51.5609  -24.3487   16.9974 C.3       10 UNK         0.0280 
     36 CB        -51.2459  -24.0490   18.4786 C.3       10 UNK        -0.1976 
     37 N         -50.4684  -25.1136   16.3844 N.am      10 UNK        -0.4242 
     38 C         -50.1072  -26.3821   16.6458 C.2       10 UNK         0.5072 
     39 O         -50.6880  -27.1095   17.4520 O.2       10 UNK        -0.5224 
     40 CA        -48.8820  -26.9538   15.9041 C.3       9 UNK         0.0343 
     41 CB        -49.2683  -28.1645   15.0409 C.3       9 UNK        -0.2003 
     42 N         -48.2043  -25.9754   15.0552 N.am      9 UNK        -0.4272 
     43 C         -47.2863  -25.0997   15.4786 C.2       9 UNK         0.4988 
     44 O         -46.8936  -25.0227   16.6433 O.2       9 UNK        -0.5108 
     45 CA        -46.7198  -24.1339   14.4244 C.3       8 UNK         0.0248 
     46 CB        -45.5795  -24.8033   13.6398 C.3       8 UNK        -0.2001 
     47 N         -47.7160  -23.6038   13.4848 N.am      8 UNK        -0.4140 
     48 C         -48.8086  -22.9051   13.8227 C.2       8 UNK         0.5028 
     49 O         -49.1805  -22.7329   14.9837 O.2       8 UNK        -0.5428 
     50 CA        -49.5992  -22.2590   12.6742 C.3       7 UNK         0.0264 
     51 CB        -48.6860  -21.5636   11.6460 C.3       7 UNK        -0.1988 
     52 N         -50.4862  -23.2051   11.9958 N.am      7 UNK        -0.4454 
     53 C         -51.6532  -23.6290   12.5030 C.2       7 UNK         0.5027 
     54 O         -52.0400  -23.3691   13.6429 O.2       7 UNK        -0.5083 
     55 CA        -52.5626  -24.4769   11.5973 C.3       6 UNK         0.0844 
     56 C56       -53.2905  -23.6355   10.5152 C.3       14 UNK        -0.0967 
     57 S57       -52.3232  -23.2565    9.0117 S.3       14 UNK        -0.2604 
     58 C58       -53.4749  -23.7187    7.6750 C.3       14 UNK         0.0134 
     59 N         -51.8546  -25.6500   11.0910 N.am      6 UNK        -0.4116 
     60 C         -51.7055  -26.7860   11.7879 C.2       5 UNK         0.5034 
     61 O         -52.2278  -27.0007   12.8847 O.2       5 UNK        -0.5045 
     62 CA        -50.8026  -27.8662   11.1707 C.3       5 UNK         0.0224 
     63 CB        -51.5890  -28.7226   10.1703 C.3       5 UNK        -0.1978 
     64 N         -49.6062  -27.3267   10.5185 N.am      5 UNK        -0.4737 
     65 C         -48.6310  -26.6650   11.1571 C.2       4 UNK         0.5027 
     66 O         -48.6446  -26.4196   12.3606 O.2       4 UNK        -0.5211 
     67 CA        -47.4441  -26.1742   10.3163 C.3       4 UNK         0.0297 
     68 CB        -46.3422  -27.2436   10.2788 C.3       4 UNK        -0.1993 
     69 N         -47.8174  -25.7818    8.9544 N.am      4 UNK        -0.4486 
     70 C         -48.6159  -24.7391    8.6744 C.2       3 UNK         0.4961 
     71 O         -49.1425  -24.0538    9.5518 O.2       3 UNK        -0.5105 
     72 CA        -48.9159  -24.4149    7.1961 C.3       3 UNK         0.0299 
     73 CB        -49.0036  -22.8965    6.9332 C.3       3 UNK        -0.1972 
     74 N         -48.0282  -25.0734    6.2302 N.am      3 UNK        -0.4305 
     75 C         -46.7093  -24.8867    6.0586 C.2       2 UNK         0.5006 
     76 O         -46.0508  -24.0359    6.6588 O.2       2 UNK        -0.5106 
     77 CA        -46.0077  -25.8425    5.0641 C.3       2 UNK         0.0296 
     78 CB        -44.4949  -25.9746    5.3433 C.3       2 UNK        -0.2002 
     79 N         -46.6281  -27.1770    4.9797 N.am      2 UNK        -0.4032 
     80 C         -46.8542  -28.0166    6.0037 C.2       1 UNK         0.5000 
     81 O         -46.5563  -27.7551    7.1718 O.2       1 UNK        -0.5238 
     82 H82       -46.3583  -32.9072    8.0982 H         1 UNK         0.0889 
     83 H83       -47.4834  -31.7704    8.8446 H         1 UNK         0.0889 
     84 H84       -45.7446  -31.5515    9.0497 H         1 UNK         0.0889 
     85 H85       -48.3295  -30.2884    7.3960 H         1 UNK         0.3028 
     86 H86       -47.1181  -29.7681    4.8091 H         1 UNK         0.0864 
     87 H87       -49.1369  -28.4122    4.3979 H         1 UNK         0.0720 
     88 H88       -49.5658  -29.9858    4.9928 H         1 UNK         0.0720 
     89 H89       -52.0355  -28.9337    5.3204 H         1 UNK         0.0814 
     90 H90       -51.4214  -27.3820    4.7990 H         1 UNK         0.0814 
     91 H91       -51.8877  -25.3152    6.1414 H         1 UNK         0.1469 
     92 H92       -55.2603  -25.4695    8.7812 H         1 UNK         0.1381 
     93 H93       -53.6375  -29.0917    7.1698 H         1 UNK         0.1206 
     94 H94       -56.5838  -27.8923    8.5370 H         1 UNK         0.0813 
     95 H95       -55.4592  -29.2291    8.6803 H         1 UNK         0.0813 
     96 H96       -57.2615  -28.5016   11.9932 H         1 UNK         0.0638 
     97 H97       -57.2052  -29.4661   10.5515 H         1 UNK         0.0638 
     98 H98       -56.6793  -30.7284   12.6500 H         1 UNK         0.0568 
     99 H99       -53.3642  -31.0521   12.1621 H         1 UNK         0.3450 
    100 H100      -53.4504  -32.1934   10.8438 H         1 UNK         0.3450 
    101 H101      -54.6696  -28.6783   13.0269 H         1 UNK         0.2987 
    102 H102      -54.2098  -29.5709   16.3483 H         1 UNK         0.0766 
    103 H103      -51.7866  -29.4694   16.0749 H         1 UNK         0.0798 
    104 H104      -51.9105  -29.7109   14.3277 H         1 UNK         0.0798 
    105 H105      -52.3513  -31.0028   15.4394 H         1 UNK         0.0798 
    106 H106      -53.0577  -27.5786   14.5318 H         1 UNK         0.3198 
    107 H107      -54.5914  -25.6305   13.9560 H         1 UNK         0.0843 
    108 H108      -55.9479  -24.7418   16.5524 H         1 UNK         0.0831 
    109 H109      -56.7525  -25.1174   15.0366 H         1 UNK         0.0831 
    110 H110      -55.6825  -23.7284   15.1338 H         1 UNK         0.0831 
    111 H111      -52.7720  -24.6608   14.8159 H         1 UNK         0.3133 
    112 H112      -51.5940  -23.3919   16.4737 H         1 UNK         0.0566 
    113 H113      -50.2956  -23.5252   18.5820 H         1 UNK         0.0814 
    114 H114      -52.0159  -23.4145   18.9192 H         1 UNK         0.0814 
    115 H115      -51.1939  -24.9593   19.0769 H         1 UNK         0.0814 
    116 H116      -49.9118  -24.5896   15.7173 H         1 UNK         0.3091 
    117 H117      -48.1779  -27.2998   16.6638 H         1 UNK         0.0702 
    118 H118      -49.5823  -28.9995   15.6661 H         1 UNK         0.0785 
    119 H119      -50.0867  -27.9254   14.3621 H         1 UNK         0.0785 
    120 H120      -48.4273  -28.5139   14.4414 H         1 UNK         0.0785 
    121 H121      -48.4324  -26.0046   14.0600 H         1 UNK         0.2998 
    122 H122      -46.3036  -23.2787   14.9608 H         1 UNK         0.0697 
    123 H123      -45.9321  -25.6661   13.0741 H         1 UNK         0.0825 
    124 H124      -44.7984  -25.1562   14.3145 H         1 UNK         0.0825 
    125 H125      -45.1122  -24.1089   12.9414 H         1 UNK         0.0825 
    126 H126      -47.5210  -23.7257   12.5027 H         1 UNK         0.3029 
    127 H127      -50.2212  -21.4798   13.1213 H         1 UNK         0.0897 
    128 H128      -48.0477  -22.2652   11.1094 H         1 UNK         0.0792 
    129 H129      -48.0346  -20.8363   12.1325 H         1 UNK         0.0792 
    130 H130      -49.2738  -21.0234   10.9034 H         1 UNK         0.0792 
    131 H131      -50.2082  -23.4980   11.0609 H         1 UNK         0.3086 
    132 H132      -53.3621  -24.8388   12.2442 H         1 UNK         0.0583 
    133 H133      -54.1995  -24.1607   10.2300 H         1 UNK         0.1020 
    134 H134      -53.6448  -22.6927   10.9369 H         1 UNK         0.1020 
    135 H135      -54.4628  -23.3019    7.8773 H         1 UNK         0.0694 
    136 H136      -53.1352  -23.2566    6.7469 H         1 UNK         0.0694 
    137 H137      -51.3804  -25.5436   10.2057 H         1 UNK         0.2989 
    138 H138      -50.4719  -28.5136   11.9855 H         1 UNK         0.1055 
    139 H139      -52.5058  -29.1099   10.6158 H         1 UNK         0.0806 
    140 H140      -51.0056  -29.5773    9.8281 H         1 UNK         0.0806 
    141 H141      -51.8741  -28.1399    9.2961 H         1 UNK         0.0806 
    142 H142      -49.5144  -27.4742    9.5233 H         1 UNK         0.3061 
    143 H143      -47.0364  -25.2895   10.8088 H         1 UNK         0.0734 
    144 H144      -45.4701  -26.8969    9.7241 H         1 UNK         0.0832 
    145 H145      -46.0080  -27.4963   11.2858 H         1 UNK         0.0832 
    146 H146      -46.6908  -28.1659    9.8125 H         1 UNK         0.0832 
    147 H147      -47.4172  -26.3319    8.1982 H         1 UNK         0.3156 
    148 H148      -49.9043  -24.8315    7.0140 H         1 UNK         0.0589 
    149 H149      -48.0680  -22.3888    7.1685 H         1 UNK         0.0808 
    150 H150      -49.2497  -22.6865    5.8926 H         1 UNK         0.0808 
    151 H151      -49.7795  -22.4363    7.5458 H         1 UNK         0.0808 
    152 H152      -48.4598  -25.8092    5.6893 H         1 UNK         0.3098 
    153 H153      -46.1231  -25.3869    4.0796 H         1 UNK         0.0720 
    154 H154      -44.0138  -26.6336    4.6207 H         1 UNK         0.0791 
    155 H155      -44.3026  -26.3730    6.3403 H         1 UNK         0.0791 
    156 H156      -43.9961  -25.0068    5.2777 H         1 UNK         0.0791 
    157 H157      -46.9214  -27.4602    4.0544 H         1 UNK         0.3028 
@<TRIPOS>BOND
     1    1    2 1    
     2    1   82 1    
     3    1   83 1    
     4    1   84 1    
     5    2    3 2    
     6    2    4 am   BACKBONE|DICT|INTERRES
     7    4    5 1    
     8    4   85 1    
     9    5    6 1    
    10    5   80 1    
    11    5   86 1    
    12    6    7 1    
    13    6   87 1    
    14    6   88 1    
    15    7    8 1    
    16    8    9 1    
    17    8   89 1    
    18    8   90 1    
    19    9   10 ar   
    20    9   14 ar   
    21   10   11 ar   
    22   10   91 1    
    23   11   12 ar   
    24   11   58 1    
    25   12   13 ar   
    26   12   92 1    
    27   13   14 ar   
    28   13   15 1    
    29   14   93 1    
    30   15   16 1    
    31   15   94 1    
    32   15   95 1    
    33   16   17 1    
    34   17   18 1    
    35   17   96 1    
    36   17   97 1    
    37   18   19 1    
    38   18   22 1    
    39   18   98 1    
    40   19   20 am   BACKBONE|DICT|INTERRES
    41   19   21 2    
    42   20   99 1    
    43   20  100 1    
    44   22   23 am   BACKBONE|DICT|INTERRES
    45   22  101 1    
    46   23   24 2    
    47   23   25 1    
    48   25   26 1    
    49   25   27 1    
    50   25  102 1    
    51   26  103 1    
    52   26  104 1    
    53   26  105 1    
    54   27   28 am   BACKBONE|DICT|INTERRES
    55   27  106 1    
    56   28   29 2    
    57   28   30 1    
    58   30   31 1    
    59   30   32 1    
    60   30  107 1    
    61   31  108 1    
    62   31  109 1    
    63   31  110 1    
    64   32   33 am   BACKBONE|DICT|INTERRES
    65   32  111 1    
    66   33   34 2    
    67   33   35 1    
    68   35   36 1    
    69   35   37 1    
    70   35  112 1    
    71   36  113 1    
    72   36  114 1    
    73   36  115 1    
    74   37   38 am   BACKBONE|DICT|INTERRES
    75   37  116 1    
    76   38   39 2    
    77   38   40 1    
    78   40   41 1    
    79   40   42 1    
    80   40  117 1    
    81   41  118 1    
    82   41  119 1    
    83   41  120 1    
    84   42   43 am   BACKBONE|DICT|INTERRES
    85   42  121 1    
    86   43   44 2    
    87   43   45 1    
    88   45   46 1    
    89   45   47 1    
    90   45  122 1    
    91   46  123 1    
    92   46  124 1    
    93   46  125 1    
    94   47   48 am   BACKBONE|DICT|INTERRES
    95   47  126 1    
    96   48   49 2    
    97   48   50 1    
    98   50   51 1    
    99   50   52 1    
   100   50  127 1    
   101   51  128 1    
   102   51  129 1    
   103   51  130 1    
   104   52   53 am   BACKBONE|DICT|INTERRES
   105   52  131 1    
   106   53   54 2    
   107   53   55 1    
   108   55   56 1    
   109   55   59 1    
   110   55  132 1    
   111   56   57 1    
   112   56  133 1    
   113   56  134 1    
   114   57   58 1    
   115   58  135 1    
   116   58  136 1    
   117   59   60 am   BACKBONE|DICT|INTERRES
   118   59  137 1    
   119   60   61 2    
   120   60   62 1    
   121   62   63 1    
   122   62   64 1    
   123   62  138 1    
   124   63  139 1    
   125   63  140 1    
   126   63  141 1    
   127   64   65 am   BACKBONE|DICT|INTERRES
   128   64  142 1    
   129   65   66 2    
   130   65   67 1    
   131   67   68 1    
   132   67   69 1    
   133   67  143 1    
   134   68  144 1    
   135   68  145 1    
   136   68  146 1    
   137   69   70 am   BACKBONE|DICT|INTERRES
   138   69  147 1    
   139   70   71 2    
   140   70   72 1    
   141   72   73 1    
   142   72   74 1    
   143   72  148 1    
   144   73  149 1    
   145   73  150 1    
   146   73  151 1    
   147   74   75 am   BACKBONE|DICT|INTERRES
   148   74  152 1    
   149   75   76 2    
   150   75   77 1    
   151   77   78 1    
   152   77   79 1    
   153   77  153 1    
   154   78  154 1    
   155   78  155 1    
   156   78  156 1    
   157   79   80 am   BACKBONE|DICT|INTERRES
   158   79  157 1    
   159   80   81 2    
@<TRIPOS>SUBSTRUCTURE
     1 UNK         1 GROUP             0       ****    0 ROOT    
