@<TRIPOS>MOLECULE
3R207
157   159    1
SMALL
USER_CHARGES


@<TRIPOS>ATOM
      1 CA        -49.7847  -25.7228    1.1458 C.3       0 UNK        -0.1975 
      2 C         -49.5052  -26.0445    2.6057 C.2       0 UNK         0.4852 
      3 O         -48.3734  -26.3893    2.9498 O.2       0 UNK        -0.5216 
      4 N         -50.5198  -25.9055    3.4747 N.am      1 UNK        -0.4461 
      5 CA        -50.5005  -26.2482    4.9097 C.3       1 UNK         0.0864 
      6 C6        -50.3583  -27.7824    5.1386 C.3       14 UNK        -0.0898 
      7 S7        -51.8768  -28.6633    4.6352 S.3       14 UNK        -0.2598 
      8 C8        -52.2009  -29.7612    6.0646 C.3       14 UNK         0.0286 
      9 C9        -52.2238  -29.0748    7.4321 C.ar      14 UNK        -0.0844 
     10 C10       -52.6597  -27.7539    7.5929 C.ar      14 UNK        -0.0881 
     11 C11       -52.6181  -27.1263    8.8410 C.ar      14 UNK        -0.0643 
     12 C12       -52.1873  -27.8622    9.9511 C.ar      14 UNK        -0.0930 
     13 C13       -51.7659  -29.1880    9.8164 C.ar      14 UNK        -0.0827 
     14 C14       -51.7844  -29.7847    8.5534 C.ar      14 UNK        -0.1249 
     15 C15       -51.2487  -29.9692   11.0201 C.3       14 UNK         0.0141 
     16 S16       -52.3209  -29.8340   12.4862 S.3       14 UNK        -0.2313 
     17 C17       -53.8679  -30.5837   11.8732 C.3       14 UNK        -0.0915 
     18 CA        -54.8588  -30.9574   13.0070 C.3       13 UNK         0.0968 
     19 C         -54.4073  -32.2252   13.7916 C.2       13 UNK         0.5732 
     20 N         -54.1320  -32.1453   15.0884 N.am      13 UNK        -0.7310 
     21 O         -54.3213  -33.3062   13.2131 O.2       13 UNK        -0.5035 
     22 N         -55.1788  -29.7862   13.8377 N.am      13 UNK        -0.4233 
     23 C         -56.2673  -29.6512   14.6045 C.2       13 UNK         0.4989 
     24 O         -57.1592  -30.4971   14.6821 O.2       13 UNK        -0.4996 
     25 CA        -56.3859  -28.3599   15.4348 C.3       12 UNK         0.0216 
     26 CB        -56.0204  -28.6341   16.9026 C.3       12 UNK        -0.1964 
     27 N         -55.5671  -27.2520   14.9252 N.am      12 UNK        -0.4276 
     28 C         -55.8681  -26.5413   13.8254 C.2       12 UNK         0.5020 
     29 O         -56.8577  -26.7770   13.1292 O.2       12 UNK        -0.5489 
     30 CA        -54.9176  -25.3943   13.4126 C.3       11 UNK         0.0294 
     31 CB        -55.6581  -24.2389   12.7073 C.3       11 UNK        -0.2019 
     32 N         -54.0705  -24.8758   14.4923 N.am      11 UNK        -0.4493 
     33 C         -54.4571  -24.3484   15.6640 C.2       11 UNK         0.4932 
     34 O         -55.6321  -24.1400   15.9703 O.2       11 UNK        -0.5029 
     35 CA        -53.3318  -24.0441   16.6770 C.3       10 UNK         0.0280 
     36 CB        -53.8441  -23.9803   18.1309 C.3       10 UNK        -0.1976 
     37 N         -52.1929  -24.9689   16.5815 N.am      10 UNK        -0.4242 
     38 C         -52.2186  -26.3105   16.6592 C.2       10 UNK         0.5072 
     39 O         -53.2506  -26.9592   16.8348 O.2       10 UNK        -0.5224 
     40 CA        -50.8969  -27.0766   16.4504 C.3       9 UNK         0.0343 
     41 CB        -50.9960  -27.9833   15.2136 C.3       9 UNK        -0.2003 
     42 N         -49.7277  -26.2102   16.2970 N.am      9 UNK        -0.4272 
     43 C         -49.1070  -25.5686   17.2957 C.2       9 UNK         0.4988 
     44 O         -49.4068  -25.6891   18.4837 O.2       9 UNK        -0.5108 
     45 CA        -47.9898  -24.5940   16.8899 C.3       8 UNK         0.0248 
     46 CB        -46.6550  -25.3378   16.7292 C.3       8 UNK        -0.2001 
     47 N         -48.3062  -23.8666   15.6557 N.am      8 UNK        -0.4140 
     48 C         -49.2725  -22.9422   15.5499 C.2       8 UNK         0.5028 
     49 O         -49.9898  -22.5908   16.4868 O.2       8 UNK        -0.5428 
     50 CA        -49.5066  -22.3361   14.1563 C.3       7 UNK         0.0264 
     51 CB        -48.4738  -21.2373   13.8576 C.3       7 UNK        -0.1988 
     52 N         -49.4870  -23.3366   13.0860 N.am      7 UNK        -0.4454 
     53 C         -50.3938  -24.3161   12.9495 C.2       7 UNK         0.5027 
     54 O         -51.3434  -24.4823   13.7161 O.2       7 UNK        -0.5083 
     55 CA        -50.1817  -25.3069   11.7865 C.3       6 UNK         0.0844 
     56 C56       -50.7851  -24.7827   10.4558 C.3       14 UNK        -0.0967 
     57 S57       -52.6135  -24.7731   10.4678 S.3       14 UNK        -0.2604 
     58 C58       -53.0452  -25.6591    8.9278 C.3       14 UNK         0.0134 
     59 N         -48.7817  -25.7084   11.6211 N.am      6 UNK        -0.4116 
     60 C         -48.0050  -26.2882   12.5470 C.2       5 UNK         0.5034 
     61 O         -48.3580  -26.4730   13.7135 O.2       5 UNK        -0.5045 
     62 CA        -46.6031  -26.7418   12.0825 C.3       5 UNK         0.0224 
     63 CB        -45.8549  -27.5498   13.1596 C.3       5 UNK        -0.1978 
     64 N         -46.6479  -27.5368   10.8484 N.am      5 UNK        -0.4737 
     65 C         -46.8202  -27.0421    9.6172 C.2       4 UNK         0.5027 
     66 O         -46.9769  -25.8395    9.3920 O.2       4 UNK        -0.5211 
     67 CA        -46.8906  -28.0649    8.4751 C.3       4 UNK         0.0297 
     68 CB        -48.2801  -28.7254    8.4393 C.3       4 UNK        -0.1993 
     69 N         -46.6441  -27.3983    7.1968 N.am      4 UNK        -0.4486 
     70 C         -45.4532  -27.3439    6.5823 C.2       3 UNK         0.4961 
     71 O         -44.4500  -27.9290    6.9932 O.2       3 UNK        -0.5105 
     72 CA        -45.3413  -26.5148    5.2858 C.3       3 UNK         0.0299 
     73 CB        -45.3390  -27.4417    4.0593 C.3       3 UNK        -0.1972 
     74 N         -46.4071  -25.5237    5.1310 N.am      3 UNK        -0.4305 
     75 C         -46.5113  -24.3949    5.8513 C.2       2 UNK         0.5006 
     76 O         -45.6359  -23.9953    6.6196 O.2       2 UNK        -0.5106 
     77 CA        -47.8121  -23.5750    5.7107 C.3       2 UNK         0.0296 
     78 CB        -47.5773  -22.3384    4.8273 C.3       2 UNK        -0.2002 
     79 N         -48.9411  -24.3411    5.1719 N.am      2 UNK        -0.4032 
     80 C         -49.4754  -25.4347    5.7375 C.2       1 UNK         0.5000 
     81 O         -49.1537  -25.8236    6.8597 O.2       1 UNK        -0.5238 
     82 H82       -50.8179  -25.4156    0.9857 H         1 UNK         0.0889 
     83 H83       -49.5917  -26.5994    0.5277 H         1 UNK         0.0889 
     84 H84       -49.1335  -24.9171    0.8076 H         1 UNK         0.0889 
     85 H85       -51.4182  -25.6005    3.1254 H         1 UNK         0.3028 
     86 H86       -51.4678  -25.9370    5.3062 H         1 UNK         0.0864 
     87 H87       -49.5117  -28.1902    4.5848 H         1 UNK         0.0720 
     88 H88       -50.1534  -28.0138    6.1830 H         1 UNK         0.0720 
     89 H89       -51.4419  -30.5453    6.0577 H         1 UNK         0.0814 
     90 H90       -53.1585  -30.2599    5.9106 H         1 UNK         0.0814 
     91 H91       -53.0132  -27.1983    6.7361 H         1 UNK         0.1469 
     92 H92       -52.1775  -27.4127   10.9307 H         1 UNK         0.1381 
     93 H93       -51.4447  -30.8053    8.4403 H         1 UNK         0.1206 
     94 H94       -51.1242  -31.0251   10.7750 H         1 UNK         0.0813 
     95 H95       -50.2582  -29.5928   11.2785 H         1 UNK         0.0813 
     96 H96       -54.3403  -29.8681   11.1984 H         1 UNK         0.0638 
     97 H97       -53.6304  -31.4554   11.2604 H         1 UNK         0.0638 
     98 H98       -55.7884  -31.2520   12.5165 H         1 UNK         0.0568 
     99 H99       -54.1966  -31.2647   15.5710 H         1 UNK         0.3450 
    100 H100      -53.8472  -32.9754   15.5831 H         1 UNK         0.3450 
    101 H101      -54.4856  -29.0536   13.8436 H         1 UNK         0.2987 
    102 H102      -57.4324  -28.0489   15.4031 H         1 UNK         0.0766 
    103 H103      -56.6742  -29.3941   17.3328 H         1 UNK         0.0798 
    104 H104      -56.1227  -27.7357   17.5120 H         1 UNK         0.0798 
    105 H105      -54.9951  -28.9919   17.0045 H         1 UNK         0.0798 
    106 H106      -54.7495  -26.9998   15.4750 H         1 UNK         0.3198 
    107 H107      -54.2322  -25.8367   12.6893 H         1 UNK         0.0843 
    108 H108      -56.4093  -23.7855   13.3545 H         1 UNK         0.0831 
    109 H109      -56.1684  -24.5893   11.8094 H         1 UNK         0.0831 
    110 H110      -54.9648  -23.4575   12.3959 H         1 UNK         0.0831 
    111 H111      -53.0672  -24.9257   14.3189 H         1 UNK         0.3133 
    112 H112      -52.9440  -23.0586   16.4148 H         1 UNK         0.0566 
    113 H113      -53.0368  -23.7472   18.8251 H         1 UNK         0.0814 
    114 H114      -54.6030  -23.2055   18.2469 H         1 UNK         0.0814 
    115 H115      -54.2920  -24.9251   18.4415 H         1 UNK         0.0814 
    116 H116      -51.3021  -24.5293   16.3871 H         1 UNK         0.3091 
    117 H117      -50.7473  -27.7096   17.3274 H         1 UNK         0.0702 
    118 H118      -51.8109  -28.7007   15.3181 H         1 UNK         0.0785 
    119 H119      -50.0804  -28.5557   15.0635 H         1 UNK         0.0785 
    120 H120      -51.1806  -27.4066   14.3062 H         1 UNK         0.0785 
    121 H121      -49.3661  -26.1038   15.3528 H         1 UNK         0.2998 
    122 H122      -47.8771  -23.8613   17.6921 H         1 UNK         0.0697 
    123 H123      -46.7180  -26.1145   15.9675 H         1 UNK         0.0825 
    124 H124      -46.3674  -25.8234   17.6628 H         1 UNK         0.0825 
    125 H125      -45.8478  -24.6581   16.4555 H         1 UNK         0.0825 
    126 H126      -47.7937  -24.1285   14.8262 H         1 UNK         0.3029 
    127 H127      -50.4980  -21.8768   14.1629 H         1 UNK         0.0897 
    128 H128      -48.6898  -20.7360   12.9137 H         1 UNK         0.0792 
    129 H129      -47.4596  -21.6349   13.8026 H         1 UNK         0.0792 
    130 H130      -48.4825  -20.4732   14.6365 H         1 UNK         0.0792 
    131 H131      -48.7357  -23.2775   12.4137 H         1 UNK         0.3086 
    132 H132      -50.7078  -26.2204   12.0659 H         1 UNK         0.0583 
    133 H133      -50.4259  -23.7774   10.2276 H         1 UNK         0.1020 
    134 H134      -50.4488  -25.4076    9.6257 H         1 UNK         0.1020 
    135 H135      -54.1277  -25.6108    8.8031 H         1 UNK         0.0694 
    136 H136      -52.6126  -25.1086    8.0908 H         1 UNK         0.0694 
    137 H137      -48.3758  -25.5923   10.6964 H         1 UNK         0.2989 
    138 H138      -46.0260  -25.8341   11.8897 H         1 UNK         0.1055 
    139 H139      -46.4085  -28.4429   13.4537 H         1 UNK         0.0806 
    140 H140      -45.6964  -26.9519   14.0567 H         1 UNK         0.0806 
    141 H141      -44.8706  -27.8633   12.8109 H         1 UNK         0.0806 
    142 H142      -46.5709  -28.5382   10.9603 H         1 UNK         0.3061 
    143 H143      -46.1406  -28.8400    8.6465 H         1 UNK         0.0734 
    144 H144      -48.3867  -29.3870    7.5795 H         1 UNK         0.0832 
    145 H145      -48.4517  -29.3280    9.3316 H         1 UNK         0.0832 
    146 H146      -49.0822  -27.9870    8.3947 H         1 UNK         0.0832 
    147 H147      -47.3983  -26.8000    6.8730 H         1 UNK         0.3156 
    148 H148      -44.3859  -25.9868    5.3144 H         1 UNK         0.0589 
    149 H149      -46.2711  -28.0028    3.9771 H         1 UNK         0.0808 
    150 H150      -45.2058  -26.8782    3.1355 H         1 UNK         0.0808 
    151 H151      -44.5255  -28.1663    4.1172 H         1 UNK         0.0808 
    152 H152      -47.1498  -25.7622    4.4801 H         1 UNK         0.3098 
    153 H153      -48.0900  -23.2380    6.7117 H         1 UNK         0.0720 
    154 H154      -46.7621  -21.7280    5.2188 H         1 UNK         0.0791 
    155 H155      -48.4629  -21.7038    4.7872 H         1 UNK         0.0791 
    156 H156      -47.3142  -22.6165    3.8058 H         1 UNK         0.0791 
    157 H157      -49.2594  -24.0899    4.2474 H         1 UNK         0.3028 
@<TRIPOS>BOND
     1    1    2 1    
     2    1   82 1    
     3    1   83 1    
     4    1   84 1    
     5    2    3 2    
     6    2    4 am   BACKBONE|DICT|INTERRES
     7    4    5 1    
     8    4   85 1    
     9    5    6 1    
    10    5   80 1    
    11    5   86 1    
    12    6    7 1    
    13    6   87 1    
    14    6   88 1    
    15    7    8 1    
    16    8    9 1    
    17    8   89 1    
    18    8   90 1    
    19    9   10 ar   
    20    9   14 ar   
    21   10   11 ar   
    22   10   91 1    
    23   11   12 ar   
    24   11   58 1    
    25   12   13 ar   
    26   12   92 1    
    27   13   14 ar   
    28   13   15 1    
    29   14   93 1    
    30   15   16 1    
    31   15   94 1    
    32   15   95 1    
    33   16   17 1    
    34   17   18 1    
    35   17   96 1    
    36   17   97 1    
    37   18   19 1    
    38   18   22 1    
    39   18   98 1    
    40   19   20 am   BACKBONE|DICT|INTERRES
    41   19   21 2    
    42   20   99 1    
    43   20  100 1    
    44   22   23 am   BACKBONE|DICT|INTERRES
    45   22  101 1    
    46   23   24 2    
    47   23   25 1    
    48   25   26 1    
    49   25   27 1    
    50   25  102 1    
    51   26  103 1    
    52   26  104 1    
    53   26  105 1    
    54   27   28 am   BACKBONE|DICT|INTERRES
    55   27  106 1    
    56   28   29 2    
    57   28   30 1    
    58   30   31 1    
    59   30   32 1    
    60   30  107 1    
    61   31  108 1    
    62   31  109 1    
    63   31  110 1    
    64   32   33 am   BACKBONE|DICT|INTERRES
    65   32  111 1    
    66   33   34 2    
    67   33   35 1    
    68   35   36 1    
    69   35   37 1    
    70   35  112 1    
    71   36  113 1    
    72   36  114 1    
    73   36  115 1    
    74   37   38 am   BACKBONE|DICT|INTERRES
    75   37  116 1    
    76   38   39 2    
    77   38   40 1    
    78   40   41 1    
    79   40   42 1    
    80   40  117 1    
    81   41  118 1    
    82   41  119 1    
    83   41  120 1    
    84   42   43 am   BACKBONE|DICT|INTERRES
    85   42  121 1    
    86   43   44 2    
    87   43   45 1    
    88   45   46 1    
    89   45   47 1    
    90   45  122 1    
    91   46  123 1    
    92   46  124 1    
    93   46  125 1    
    94   47   48 am   BACKBONE|DICT|INTERRES
    95   47  126 1    
    96   48   49 2    
    97   48   50 1    
    98   50   51 1    
    99   50   52 1    
   100   50  127 1    
   101   51  128 1    
   102   51  129 1    
   103   51  130 1    
   104   52   53 am   BACKBONE|DICT|INTERRES
   105   52  131 1    
   106   53   54 2    
   107   53   55 1    
   108   55   56 1    
   109   55   59 1    
   110   55  132 1    
   111   56   57 1    
   112   56  133 1    
   113   56  134 1    
   114   57   58 1    
   115   58  135 1    
   116   58  136 1    
   117   59   60 am   BACKBONE|DICT|INTERRES
   118   59  137 1    
   119   60   61 2    
   120   60   62 1    
   121   62   63 1    
   122   62   64 1    
   123   62  138 1    
   124   63  139 1    
   125   63  140 1    
   126   63  141 1    
   127   64   65 am   BACKBONE|DICT|INTERRES
   128   64  142 1    
   129   65   66 2    
   130   65   67 1    
   131   67   68 1    
   132   67   69 1    
   133   67  143 1    
   134   68  144 1    
   135   68  145 1    
   136   68  146 1    
   137   69   70 am   BACKBONE|DICT|INTERRES
   138   69  147 1    
   139   70   71 2    
   140   70   72 1    
   141   72   73 1    
   142   72   74 1    
   143   72  148 1    
   144   73  149 1    
   145   73  150 1    
   146   73  151 1    
   147   74   75 am   BACKBONE|DICT|INTERRES
   148   74  152 1    
   149   75   76 2    
   150   75   77 1    
   151   77   78 1    
   152   77   79 1    
   153   77  153 1    
   154   78  154 1    
   155   78  155 1    
   156   78  156 1    
   157   79   80 am   BACKBONE|DICT|INTERRES
   158   79  157 1    
   159   80   81 2    
@<TRIPOS>SUBSTRUCTURE
     1 UNK         1 GROUP             0       ****    0 ROOT    
