@<TRIPOS>MOLECULE
3R207
157   159    1
SMALL
USER_CHARGES


@<TRIPOS>ATOM
      1 CA        -54.5080  -26.1586    7.3539 C.3       0 UNK        -0.1975 
      2 C         -53.0544  -26.4386    7.7043 C.2       0 UNK         0.4852 
      3 O         -52.7026  -26.4435    8.8838 O.2       0 UNK        -0.5216 
      4 N         -52.2109  -26.6714    6.6877 N.am      1 UNK        -0.4461 
      5 CA        -50.7903  -27.0137    6.8448 C.3       1 UNK         0.0864 
      6 C6        -50.1441  -27.5573    5.5381 C.3       14 UNK        -0.0898 
      7 S7        -51.1544  -28.7732    4.6209 S.3       14 UNK        -0.2598 
      8 C8        -50.6745  -30.3569    5.3911 C.3       14 UNK         0.0286 
      9 C9        -51.1166  -30.4415    6.8455 C.ar      14 UNK        -0.0844 
     10 C10       -50.1834  -30.6931    7.8554 C.ar      14 UNK        -0.0881 
     11 C11       -50.5753  -30.6953    9.1975 C.ar      14 UNK        -0.0643 
     12 C12       -51.9112  -30.4428    9.5261 C.ar      14 UNK        -0.0930 
     13 C13       -52.8569  -30.2083    8.5234 C.ar      14 UNK        -0.0827 
     14 C14       -52.4560  -30.2293    7.1860 C.ar      14 UNK        -0.1249 
     15 C15       -54.2933  -29.8494    8.8735 C.3       14 UNK         0.0141 
     16 S16       -55.0841  -31.0566    9.9818 S.3       14 UNK        -0.2313 
     17 C17       -56.7247  -30.2812   10.1666 C.3       14 UNK        -0.0915 
     18 CA        -56.9600  -29.4499   11.4631 C.3       13 UNK         0.0968 
     19 C         -57.0921  -30.2716   12.7825 C.2       13 UNK         0.5732 
     20 N         -57.0403  -29.6319   13.9457 N.am      13 UNK        -0.7310 
     21 O         -57.2885  -31.4847   12.7608 O.2       13 UNK        -0.5035 
     22 N         -56.1535  -28.2183   11.5491 N.am      13 UNK        -0.4233 
     23 C         -54.9188  -28.0728   12.0558 C.2       13 UNK         0.4989 
     24 O         -54.1915  -28.9978   12.4178 O.2       13 UNK        -0.4996 
     25 CA        -54.4233  -26.6263   12.2502 C.3       12 UNK         0.0216 
     26 CB        -55.1412  -25.5852   11.3623 C.3       12 UNK        -0.1964 
     27 N         -54.4873  -26.2220   13.6611 N.am      12 UNK        -0.4276 
     28 C         -55.5432  -26.2856   14.4895 C.2       12 UNK         0.5020 
     29 O         -56.6586  -26.6892   14.1513 O.2       12 UNK        -0.5489 
     30 CA        -55.3011  -25.8625   15.9538 C.3       11 UNK         0.0294 
     31 CB        -56.5489  -26.0452   16.8390 C.3       11 UNK        -0.2019 
     32 N         -54.1854  -26.6036   16.5492 N.am      11 UNK        -0.4493 
     33 C         -52.8950  -26.3142   16.3534 C.2       11 UNK         0.4932 
     34 O         -52.5166  -25.3429   15.6942 O.2       11 UNK        -0.5029 
     35 CA        -51.8730  -27.2875   16.9521 C.3       10 UNK         0.0280 
     36 CB        -51.9753  -28.6824   16.3060 C.3       10 UNK        -0.1976 
     37 N         -50.5402  -26.7477   16.7176 N.am      10 UNK        -0.4242 
     38 C         -49.4906  -26.8477   17.5377 C.2       10 UNK         0.5072 
     39 O         -49.5045  -27.4780   18.5963 O.2       10 UNK        -0.5224 
     40 CA        -48.1981  -26.1299   17.1095 C.3       9 UNK         0.0343 
     41 CB        -47.2172  -27.1310   16.4765 C.3       9 UNK        -0.2003 
     42 N         -48.4184  -25.0276   16.1694 N.am      9 UNK        -0.4272 
     43 C         -48.9764  -23.8470   16.4730 C.2       9 UNK         0.4988 
     44 O         -49.3796  -23.5499   17.5978 O.2       9 UNK        -0.5108 
     45 CA        -49.1022  -22.8247   15.3338 C.3       8 UNK         0.0248 
     46 CB        -47.7531  -22.1290   15.0843 C.3       8 UNK        -0.2001 
     47 N         -49.5546  -23.4627   14.0951 N.am      8 UNK        -0.4140 
     48 C         -50.7541  -23.2759   13.5262 C.2       8 UNK         0.5028 
     49 O         -51.5989  -22.4900   13.9582 O.2       8 UNK        -0.5428 
     50 CA        -51.0766  -24.0697   12.2433 C.3       7 UNK         0.0264 
     51 CB        -51.1590  -23.1363   11.0248 C.3       7 UNK        -0.1988 
     52 N         -50.1291  -25.1492   11.9502 N.am      7 UNK        -0.4454 
     53 C         -50.1204  -26.3330   12.5780 C.2       7 UNK         0.5027 
     54 O         -50.9091  -26.6368   13.4707 O.2       7 UNK        -0.5083 
     55 CA        -49.0419  -27.3505   12.1560 C.3       6 UNK         0.0844 
     56 C56       -49.5812  -28.2141   10.9930 C.3       14 UNK        -0.0967 
     57 S57       -48.4205  -29.5308   10.4935 S.3       14 UNK        -0.2604 
     58 C58       -49.5480  -30.9458   10.2923 C.3       14 UNK         0.0134 
     59 N         -47.7332  -26.7653   11.8356 N.am      6 UNK        -0.4116 
     60 C         -47.0198  -25.9048   12.5752 C.2       5 UNK         0.5034 
     61 O         -47.4356  -25.3901   13.6121 O.2       5 UNK        -0.5045 
     62 CA        -45.5969  -25.5546   12.0990 C.3       5 UNK         0.0224 
     63 CB        -44.5555  -26.1486   13.0617 C.3       5 UNK        -0.1978 
     64 N         -45.2888  -25.9906   10.7311 N.am      5 UNK        -0.4737 
     65 C         -45.8334  -25.4598    9.6295 C.2       4 UNK         0.5027 
     66 O         -46.6439  -24.5312    9.6642 O.2       4 UNK        -0.5211 
     67 CA        -45.4128  -26.0871    8.2889 C.3       4 UNK         0.0297 
     68 CB        -45.7266  -27.5952    8.2512 C.3       4 UNK        -0.1993 
     69 N         -46.1526  -25.4429    7.2093 N.am      4 UNK        -0.4486 
     70 C         -45.6389  -24.6651    6.2481 C.2       3 UNK         0.4961 
     71 O         -44.4319  -24.4805    6.0869 O.2       3 UNK        -0.5105 
     72 CA        -46.6359  -23.9714    5.2953 C.3       3 UNK         0.0299 
     73 CB        -46.6950  -24.7125    3.9495 C.3       3 UNK        -0.1972 
     74 N         -47.9892  -23.8840    5.8501 N.am      3 UNK        -0.4305 
     75 C         -48.3486  -23.0946    6.8729 C.2       2 UNK         0.5006 
     76 O         -47.6298  -22.2045    7.3283 O.2       2 UNK        -0.5106 
     77 CA        -49.7281  -23.3464    7.5149 C.3       2 UNK         0.0296 
     78 CB        -50.6828  -22.1715    7.2456 C.3       2 UNK        -0.2002 
     79 N         -50.3833  -24.5973    7.1101 N.am      2 UNK        -0.4032 
     80 C         -49.9502  -25.8384    7.3860 C.2       1 UNK         0.5000 
     81 O         -48.9104  -26.0732    7.9996 O.2       1 UNK        -0.5238 
     82 H82       -54.6828  -26.1951    6.2788 H         1 UNK         0.0889 
     83 H83       -54.7953  -25.1703    7.7118 H         1 UNK         0.0889 
     84 H84       -55.1567  -26.8947    7.8275 H         1 UNK         0.0889 
     85 H85       -52.5598  -26.6917    5.7395 H         1 UNK         0.3028 
     86 H86       -50.7346  -27.7991    7.6008 H         1 UNK         0.0864 
     87 H87       -49.9472  -26.7390    4.8427 H         1 UNK         0.0720 
     88 H88       -49.1715  -28.0029    5.7569 H         1 UNK         0.0720 
     89 H89       -49.5954  -30.4884    5.2972 H         1 UNK         0.0814 
     90 H90       -51.1354  -31.1743    4.8352 H         1 UNK         0.0814 
     91 H91       -49.1446  -30.8602    7.6050 H         1 UNK         0.1469 
     92 H92       -52.2182  -30.4138   10.5631 H         1 UNK         0.1381 
     93 H93       -53.1762  -30.0260    6.4052 H         1 UNK         0.1206 
     94 H94       -54.8956  -29.7594    7.9682 H         1 UNK         0.0813 
     95 H95       -54.2956  -28.8672    9.3451 H         1 UNK         0.0813 
     96 H96       -56.9154  -29.6488    9.2984 H         1 UNK         0.0638 
     97 H97       -57.4690  -31.0764   10.0992 H         1 UNK         0.0638 
     98 H98       -57.9729  -29.0626   11.3479 H         1 UNK         0.0568 
     99 H99       -57.1414  -30.1539   14.8007 H         1 UNK         0.3450 
    100 H100      -56.9130  -28.6244   13.9738 H         1 UNK         0.3450 
    101 H101      -56.6604  -27.3695   11.3473 H         1 UNK         0.2987 
    102 H102      -53.3690  -26.6279   11.9682 H         1 UNK         0.0766 
    103 H103      -54.6461  -24.6161   11.4266 H         1 UNK         0.0798 
    104 H104      -56.1833  -25.4390   11.6483 H         1 UNK         0.0798 
    105 H105      -55.1189  -25.8816   10.3132 H         1 UNK         0.0798 
    106 H106      -53.6071  -25.9243   14.0732 H         1 UNK         0.3198 
    107 H107      -55.0588  -24.7973   15.9426 H         1 UNK         0.0843 
    108 H108      -56.8619  -27.0890   16.8874 H         1 UNK         0.0831 
    109 H109      -57.3908  -25.4708   16.4499 H         1 UNK         0.0831 
    110 H110      -56.3682  -25.7002   17.8571 H         1 UNK         0.0831 
    111 H111      -54.4244  -27.4328   17.0745 H         1 UNK         0.3133 
    112 H112      -52.0634  -27.3598   18.0249 H         1 UNK         0.0566 
    113 H113      -51.2161  -29.3579   16.7005 H         1 UNK         0.0814 
    114 H114      -52.9448  -29.1425   16.4984 H         1 UNK         0.0814 
    115 H115      -51.8468  -28.6327   15.2234 H         1 UNK         0.0814 
    116 H116      -50.4717  -26.1688   15.8882 H         1 UNK         0.3091 
    117 H117      -47.7368  -25.7194   18.0101 H         1 UNK         0.0702 
    118 H118      -46.2693  -26.6540   16.2267 H         1 UNK         0.0785 
    119 H119      -47.6225  -27.5682   15.5628 H         1 UNK         0.0785 
    120 H120      -46.9971  -27.9506   17.1619 H         1 UNK         0.0785 
    121 H121      -48.0719  -25.1749   15.2226 H         1 UNK         0.2998 
    122 H122      -49.8170  -22.0641   15.6547 H         1 UNK         0.0697 
    123 H123      -46.9858  -22.8321   14.7573 H         1 UNK         0.0825 
    124 H124      -47.3889  -21.6466   15.9924 H         1 UNK         0.0825 
    125 H125      -47.8438  -21.3559   14.3212 H         1 UNK         0.0825 
    126 H126      -48.9213  -24.1400   13.6829 H         1 UNK         0.3029 
    127 H127      -52.0642  -24.5117   12.3909 H         1 UNK         0.0897 
    128 H128      -51.4725  -23.6806   10.1334 H         1 UNK         0.0792 
    129 H129      -51.8891  -22.3425   11.1884 H         1 UNK         0.0792 
    130 H130      -50.2006  -22.6591   10.8170 H         1 UNK         0.0792 
    131 H131      -49.4396  -24.9770   11.2312 H         1 UNK         0.3086 
    132 H132      -48.8790  -28.0049   13.0148 H         1 UNK         0.0583 
    133 H133      -50.5319  -28.6661   11.2826 H         1 UNK         0.1020 
    134 H134      -49.7964  -27.5996   10.1163 H         1 UNK         0.1020 
    135 H135      -48.9630  -31.8321   10.0429 H         1 UNK         0.0694 
    136 H136      -50.0358  -31.1583   11.2450 H         1 UNK         0.0694 
    137 H137      -47.3010  -27.1226   10.9966 H         1 UNK         0.2989 
    138 H138      -45.5134  -24.4659   12.1348 H         1 UNK         0.1055 
    139 H139      -44.7302  -25.8110   14.0846 H         1 UNK         0.0806 
    140 H140      -43.5445  -25.8424   12.7924 H         1 UNK         0.0806 
    141 H141      -44.5874  -27.2388   13.0697 H         1 UNK         0.0806 
    142 H142      -44.6244  -26.7457   10.6341 H         1 UNK         0.3061 
    143 H143      -44.3380  -25.9384    8.1670 H         1 UNK         0.0734 
    144 H144      -45.4776  -28.0238    7.2803 H         1 UNK         0.0832 
    145 H145      -45.1541  -28.1468    8.9972 H         1 UNK         0.0832 
    146 H146      -46.7835  -27.7924    8.4367 H         1 UNK         0.0832 
    147 H147      -47.1614  -25.4739    7.3307 H         1 UNK         0.3156 
    148 H148      -46.2715  -22.9580    5.1145 H         1 UNK         0.0589 
    149 H149      -47.0566  -25.7352    4.0657 H         1 UNK         0.0808 
    150 H150      -47.3486  -24.2017    3.2421 H         1 UNK         0.0808 
    151 H151      -45.7062  -24.7676    3.4917 H         1 UNK         0.0808 
    152 H152      -48.6596  -24.5585    5.5149 H         1 UNK         0.3098 
    153 H153      -49.5520  -23.4069    8.5899 H         1 UNK         0.0720 
    154 H154      -50.2461  -21.2282    7.5770 H         1 UNK         0.0791 
    155 H155      -51.6244  -22.2936    7.7815 H         1 UNK         0.0791 
    156 H156      -50.9089  -22.0707    6.1834 H         1 UNK         0.0791 
    157 H157      -51.2475  -24.5071    6.5955 H         1 UNK         0.3028 
@<TRIPOS>BOND
     1    1    2 1    
     2    1   82 1    
     3    1   83 1    
     4    1   84 1    
     5    2    3 2    
     6    2    4 am   BACKBONE|DICT|INTERRES
     7    4    5 1    
     8    4   85 1    
     9    5    6 1    
    10    5   80 1    
    11    5   86 1    
    12    6    7 1    
    13    6   87 1    
    14    6   88 1    
    15    7    8 1    
    16    8    9 1    
    17    8   89 1    
    18    8   90 1    
    19    9   10 ar   
    20    9   14 ar   
    21   10   11 ar   
    22   10   91 1    
    23   11   12 ar   
    24   11   58 1    
    25   12   13 ar   
    26   12   92 1    
    27   13   14 ar   
    28   13   15 1    
    29   14   93 1    
    30   15   16 1    
    31   15   94 1    
    32   15   95 1    
    33   16   17 1    
    34   17   18 1    
    35   17   96 1    
    36   17   97 1    
    37   18   19 1    
    38   18   22 1    
    39   18   98 1    
    40   19   20 am   BACKBONE|DICT|INTERRES
    41   19   21 2    
    42   20   99 1    
    43   20  100 1    
    44   22   23 am   BACKBONE|DICT|INTERRES
    45   22  101 1    
    46   23   24 2    
    47   23   25 1    
    48   25   26 1    
    49   25   27 1    
    50   25  102 1    
    51   26  103 1    
    52   26  104 1    
    53   26  105 1    
    54   27   28 am   BACKBONE|DICT|INTERRES
    55   27  106 1    
    56   28   29 2    
    57   28   30 1    
    58   30   31 1    
    59   30   32 1    
    60   30  107 1    
    61   31  108 1    
    62   31  109 1    
    63   31  110 1    
    64   32   33 am   BACKBONE|DICT|INTERRES
    65   32  111 1    
    66   33   34 2    
    67   33   35 1    
    68   35   36 1    
    69   35   37 1    
    70   35  112 1    
    71   36  113 1    
    72   36  114 1    
    73   36  115 1    
    74   37   38 am   BACKBONE|DICT|INTERRES
    75   37  116 1    
    76   38   39 2    
    77   38   40 1    
    78   40   41 1    
    79   40   42 1    
    80   40  117 1    
    81   41  118 1    
    82   41  119 1    
    83   41  120 1    
    84   42   43 am   BACKBONE|DICT|INTERRES
    85   42  121 1    
    86   43   44 2    
    87   43   45 1    
    88   45   46 1    
    89   45   47 1    
    90   45  122 1    
    91   46  123 1    
    92   46  124 1    
    93   46  125 1    
    94   47   48 am   BACKBONE|DICT|INTERRES
    95   47  126 1    
    96   48   49 2    
    97   48   50 1    
    98   50   51 1    
    99   50   52 1    
   100   50  127 1    
   101   51  128 1    
   102   51  129 1    
   103   51  130 1    
   104   52   53 am   BACKBONE|DICT|INTERRES
   105   52  131 1    
   106   53   54 2    
   107   53   55 1    
   108   55   56 1    
   109   55   59 1    
   110   55  132 1    
   111   56   57 1    
   112   56  133 1    
   113   56  134 1    
   114   57   58 1    
   115   58  135 1    
   116   58  136 1    
   117   59   60 am   BACKBONE|DICT|INTERRES
   118   59  137 1    
   119   60   61 2    
   120   60   62 1    
   121   62   63 1    
   122   62   64 1    
   123   62  138 1    
   124   63  139 1    
   125   63  140 1    
   126   63  141 1    
   127   64   65 am   BACKBONE|DICT|INTERRES
   128   64  142 1    
   129   65   66 2    
   130   65   67 1    
   131   67   68 1    
   132   67   69 1    
   133   67  143 1    
   134   68  144 1    
   135   68  145 1    
   136   68  146 1    
   137   69   70 am   BACKBONE|DICT|INTERRES
   138   69  147 1    
   139   70   71 2    
   140   70   72 1    
   141   72   73 1    
   142   72   74 1    
   143   72  148 1    
   144   73  149 1    
   145   73  150 1    
   146   73  151 1    
   147   74   75 am   BACKBONE|DICT|INTERRES
   148   74  152 1    
   149   75   76 2    
   150   75   77 1    
   151   77   78 1    
   152   77   79 1    
   153   77  153 1    
   154   78  154 1    
   155   78  155 1    
   156   78  156 1    
   157   79   80 am   BACKBONE|DICT|INTERRES
   158   79  157 1    
   159   80   81 2    
@<TRIPOS>SUBSTRUCTURE
     1 UNK         1 GROUP             0       ****    0 ROOT    
