@<TRIPOS>MOLECULE
3R207
157   159    1
SMALL
USER_CHARGES


@<TRIPOS>ATOM
      1 CA        -51.9551  -26.3072    2.8454 C.3       0 UNK        -0.1975 
      2 C         -51.0443  -26.2058    4.0597 C.2       0 UNK         0.4852 
      3 O         -49.8426  -26.4449    3.9332 O.2       0 UNK        -0.5216 
      4 N         -51.6131  -25.8316    5.2193 N.am      1 UNK        -0.4461 
      5 CA        -50.9910  -25.7135    6.5530 C.3       1 UNK         0.0864 
      6 C6        -51.0950  -27.0062    7.4124 C.3       14 UNK        -0.0898 
      7 S7        -50.4938  -28.5481    6.6413 S.3       14 UNK        -0.2598 
      8 C8        -49.1211  -29.0035    7.7536 C.3       14 UNK         0.0286 
      9 C9        -49.5135  -29.4146    9.1772 C.ar      14 UNK        -0.0844 
     10 C10       -48.5223  -29.3988   10.1616 C.ar      14 UNK        -0.0881 
     11 C11       -48.7954  -29.7726   11.4822 C.ar      14 UNK        -0.0643 
     12 C12       -50.0919  -30.1729   11.8145 C.ar      14 UNK        -0.0930 
     13 C13       -51.0964  -30.2161   10.8430 C.ar      14 UNK        -0.0827 
     14 C14       -50.8021  -29.8402    9.5277 C.ar      14 UNK        -0.1249 
     15 C15       -52.4946  -30.6882   11.2129 C.3       14 UNK         0.0141 
     16 S16       -53.6385  -29.2866   11.3420 S.3       14 UNK        -0.2313 
     17 C17       -55.0622  -30.0634   12.1715 C.3       14 UNK        -0.0915 
     18 CA        -56.2957  -29.1224   12.2172 C.3       13 UNK         0.0968 
     19 C         -57.5258  -29.8192   12.8690 C.2       13 UNK         0.5732 
     20 N         -58.1439  -29.2697   13.9099 N.am      13 UNK        -0.7310 
     21 O         -57.9427  -30.8794   12.4082 O.2       13 UNK        -0.5035 
     22 N         -55.9651  -27.8263   12.8247 N.am      13 UNK        -0.4233 
     23 C         -56.5444  -26.6615   12.5088 C.2       13 UNK         0.4989 
     24 O         -57.3770  -26.5356   11.6086 O.2       13 UNK        -0.4996 
     25 CA        -56.1257  -25.4307   13.3395 C.3       12 UNK         0.0216 
     26 CB        -57.2028  -24.3245   13.3598 C.3       12 UNK        -0.1964 
     27 N         -55.6953  -25.7696   14.7039 N.am      12 UNK        -0.4276 
     28 C         -56.4327  -26.3736   15.6486 C.2       12 UNK         0.5020 
     29 O         -57.6081  -26.7067   15.4793 O.2       12 UNK        -0.5489 
     30 CA        -55.7400  -26.6919   16.9908 C.3       11 UNK         0.0294 
     31 CB        -56.5100  -27.7529   17.8054 C.3       11 UNK        -0.2019 
     32 N         -54.3283  -27.0864   16.8897 N.am      11 UNK        -0.4493 
     33 C         -53.7869  -28.0432   16.1223 C.2       11 UNK         0.4932 
     34 O         -54.4120  -28.6567   15.2562 O.2       11 UNK        -0.5029 
     35 CA        -52.3025  -28.3816   16.3869 C.3       10 UNK         0.0280 
     36 CB        -51.7196  -29.3445   15.3351 C.3       10 UNK        -0.1976 
     37 N         -51.4356  -27.2018   16.4891 N.am      10 UNK        -0.4242 
     38 C         -51.3541  -26.3689   17.5373 C.2       10 UNK         0.5072 
     39 O         -52.0433  -26.4824   18.5518 O.2       10 UNK        -0.5224 
     40 CA        -50.3749  -25.1912   17.4204 C.3       9 UNK         0.0343 
     41 CB        -48.9248  -25.6518   17.6443 C.3       9 UNK        -0.2003 
     42 N         -50.4971  -24.5430   16.1154 N.am      9 UNK        -0.4272 
     43 C         -51.3996  -23.5944   15.8244 C.2       9 UNK         0.4988 
     44 O         -52.1449  -23.0783   16.6578 O.2       9 UNK        -0.5108 
     45 CA        -51.5059  -23.1520   14.3520 C.3       8 UNK         0.0248 
     46 CB        -50.5825  -21.9536   14.0819 C.3       8 UNK        -0.2001 
     47 N         -51.2022  -24.2217   13.3977 N.am      8 UNK        -0.4140 
     48 C         -51.9100  -25.3565   13.2779 C.2       8 UNK         0.5028 
     49 O         -52.9348  -25.5908   13.9166 O.2       8 UNK        -0.5428 
     50 CA        -51.3510  -26.4346   12.3315 C.3       7 UNK         0.0264 
     51 CB        -51.9257  -26.2487   10.9212 C.3       7 UNK        -0.1988 
     52 N         -49.8858  -26.4551   12.2658 N.am      7 UNK        -0.4454 
     53 C         -49.0677  -26.5722   13.3226 C.2       7 UNK         0.5027 
     54 O         -49.4716  -26.8489   14.4527 O.2       7 UNK        -0.5083 
     55 CA        -47.5737  -26.2218   13.1375 C.3       6 UNK         0.0844 
     56 C56       -46.6331  -27.3782   13.5589 C.3       14 UNK        -0.0967 
     57 S57       -46.3303  -28.6405   12.2783 S.3       14 UNK        -0.2604 
     58 C58       -47.6993  -29.8215   12.5476 C.3       14 UNK         0.0134 
     59 N         -47.2250  -25.6332   11.8367 N.am      6 UNK        -0.4116 
     60 C         -47.6713  -24.4638   11.3591 C.2       5 UNK         0.5034 
     61 O         -48.4780  -23.7558   11.9655 O.2       5 UNK        -0.5045 
     62 CA        -47.2022  -24.0136    9.9627 C.3       5 UNK         0.0224 
     63 CB        -46.2387  -22.8147   10.0615 C.3       5 UNK        -0.1978 
     64 N         -46.6585  -25.0631    9.0830 N.am      5 UNK        -0.4737 
     65 C         -45.5095  -25.7466    9.1990 C.2       4 UNK         0.5027 
     66 O         -44.7816  -25.6704   10.1878 O.2       4 UNK        -0.5211 
     67 CA        -45.0713  -26.6555    8.0362 C.3       4 UNK         0.0297 
     68 CB        -45.1370  -28.1492    8.3986 C.3       4 UNK        -0.1993 
     69 N         -45.7885  -26.4108    6.7795 N.am      4 UNK        -0.4486 
     70 C         -45.2281  -26.5119    5.5645 C.2       3 UNK         0.4961 
     71 O         -44.0646  -26.8709    5.3766 O.2       3 UNK        -0.5105 
     72 CA        -46.0929  -26.1482    4.3400 C.3       3 UNK         0.0299 
     73 CB        -46.6910  -27.4203    3.7186 C.3       3 UNK        -0.1972 
     74 N         -47.1730  -25.2030    4.6335 N.am      3 UNK        -0.4305 
     75 C         -46.9994  -23.9547    5.0965 C.2       2 UNK         0.5006 
     76 O         -45.8966  -23.4151    5.1938 O.2       2 UNK        -0.5106 
     77 CA        -48.2442  -23.1738    5.5660 C.3       2 UNK         0.0296 
     78 CB        -48.5588  -22.0285    4.5891 C.3       2 UNK        -0.2002 
     79 N         -49.4581  -23.9742    5.7619 N.am      2 UNK        -0.4032 
     80 C         -49.5995  -25.0376    6.5684 C.2       1 UNK         0.5000 
     81 O         -48.6841  -25.4877    7.2634 O.2       1 UNK        -0.5238 
     82 H82       -52.9838  -26.0351    3.0805 H         1 UNK         0.0889 
     83 H83       -51.9530  -27.3275    2.4629 H         1 UNK         0.0889 
     84 H84       -51.6008  -25.6462    2.0549 H         1 UNK         0.0889 
     85 H85       -52.6052  -25.6390    5.2103 H         1 UNK         0.3028 
     86 H86       -51.6155  -24.9824    7.0693 H         1 UNK         0.0864 
     87 H87       -50.5896  -26.8631    8.3674 H         1 UNK         0.0720 
     88 H88       -52.1417  -27.1763    7.6682 H         1 UNK         0.0720 
     89 H89       -48.4329  -28.1585    7.7927 H         1 UNK         0.0814 
     90 H90       -48.5718  -29.8279    7.2977 H         1 UNK         0.0814 
     91 H91       -47.5205  -29.1090    9.8905 H         1 UNK         0.1469 
     92 H92       -50.3148  -30.4738   12.8288 H         1 UNK         0.1381 
     93 H93       -51.5857  -29.8828    8.7848 H         1 UNK         0.1206 
     94 H94       -52.4767  -31.2282   12.1609 H         1 UNK         0.0813 
     95 H95       -52.8619  -31.3890   10.4619 H         1 UNK         0.0813 
     96 H96       -54.7606  -30.3532   13.1794 H         1 UNK         0.0638 
     97 H97       -55.3042  -30.9859   11.6406 H         1 UNK         0.0638 
     98 H98       -56.5870  -28.9403   11.1812 H         1 UNK         0.0568 
     99 H99       -58.9414  -29.7385   14.3077 H         1 UNK         0.3450 
    100 H100      -57.8309  -28.3896   14.3045 H         1 UNK         0.3450 
    101 H101      -55.3166  -27.8674   13.6044 H         1 UNK         0.2987 
    102 H102      -55.2506  -25.0195   12.8356 H         1 UNK         0.0766 
    103 H103      -56.8759  -23.4639   13.9433 H         1 UNK         0.0798 
    104 H104      -58.1422  -24.6807   13.7835 H         1 UNK         0.0798 
    105 H105      -57.4168  -23.9674   12.3517 H         1 UNK         0.0798 
    106 H106      -54.7018  -25.6309   14.8744 H         1 UNK         0.3198 
    107 H107      -55.7555  -25.7617   17.5607 H         1 UNK         0.0843 
    108 H108      -56.5675  -28.7025   17.2716 H         1 UNK         0.0831 
    109 H109      -57.5320  -27.4302   18.0086 H         1 UNK         0.0831 
    110 H110      -56.0348  -27.9375   18.7688 H         1 UNK         0.0831 
    111 H111      -53.7016  -26.6560   17.5649 H         1 UNK         0.3133 
    112 H112      -52.2722  -28.8995   17.3475 H         1 UNK         0.0566 
    113 H113      -51.7717  -28.9238   14.3326 H         1 UNK         0.0814 
    114 H114      -50.6768  -29.5829   15.5450 H         1 UNK         0.0814 
    115 H115      -52.2704  -30.2858   15.3182 H         1 UNK         0.0814 
    116 H116      -50.8192  -27.0334   15.6970 H         1 UNK         0.3091 
    117 H117      -50.6188  -24.4708   18.2045 H         1 UNK         0.0702 
    118 H118      -48.2313  -24.8124   17.5923 H         1 UNK         0.0785 
    119 H119      -48.6087  -26.3926   16.9096 H         1 UNK         0.0785 
    120 H120      -48.8107  -26.1047   18.6301 H         1 UNK         0.0785 
    121 H121      -49.9623  -24.9512   15.3604 H         1 UNK         0.2998 
    122 H122      -52.5370  -22.8374   14.1778 H         1 UNK         0.0697 
    123 H123      -49.5319  -22.2152   14.2157 H         1 UNK         0.0825 
    124 H124      -50.8035  -21.1286   14.7607 H         1 UNK         0.0825 
    125 H125      -50.7059  -21.5785   13.0658 H         1 UNK         0.0825 
    126 H126      -50.3638  -24.1064   12.8376 H         1 UNK         0.3029 
    127 H127      -51.6812  -27.4024   12.7072 H         1 UNK         0.0897 
    128 H128      -53.0123  -26.1521   10.9501 H         1 UNK         0.0792 
    129 H129      -51.7047  -27.1184   10.3049 H         1 UNK         0.0792 
    130 H130      -51.5279  -25.3618   10.4271 H         1 UNK         0.0792 
    131 H131      -49.4699  -26.2504   11.3700 H         1 UNK         0.3086 
    132 H132      -47.4036  -25.4250   13.8650 H         1 UNK         0.0583 
    133 H133      -45.6588  -26.9541   13.8066 H         1 UNK         0.1020 
    134 H134      -46.9684  -27.8541   14.4828 H         1 UNK         0.1020 
    135 H135      -47.2809  -30.8286   12.5523 H         1 UNK         0.0694 
    136 H136      -48.1307  -29.6665   13.5377 H         1 UNK         0.0694 
    137 H137      -46.5237  -26.1247   11.2958 H         1 UNK         0.2989 
    138 H138      -48.1026  -23.6598    9.4574 H         1 UNK         0.1055 
    139 H139      -46.6962  -21.9912   10.6115 H         1 UNK         0.0806 
    140 H140      -45.9749  -22.4364    9.0738 H         1 UNK         0.0806 
    141 H141      -45.3153  -23.0743   10.5800 H         1 UNK         0.0806 
    142 H142      -47.2716  -25.2692    8.2963 H         1 UNK         0.3061 
    143 H143      -44.0189  -26.4033    7.8874 H         1 UNK         0.0734 
    144 H144      -44.4955  -28.7356    7.7407 H         1 UNK         0.0832 
    145 H145      -44.8028  -28.3337    9.4208 H         1 UNK         0.0832 
    146 H146      -46.1456  -28.5411    8.2984 H         1 UNK         0.0832 
    147 H147      -46.7571  -26.1166    6.8392 H         1 UNK         0.3156 
    148 H148      -45.4375  -25.6814    3.6019 H         1 UNK         0.0589 
    149 H149      -47.3812  -27.9156    4.4035 H         1 UNK         0.0808 
    150 H150      -47.2360  -27.1956    2.8016 H         1 UNK         0.0808 
    151 H151      -45.9099  -28.1381    3.4641 H         1 UNK         0.0808 
    152 H152      -48.1194  -25.5643    4.5463 H         1 UNK         0.3098 
    153 H153      -47.9908  -22.7370    6.5342 H         1 UNK         0.0720 
    154 H154      -49.3660  -21.3974    4.9614 H         1 UNK         0.0791 
    155 H155      -48.8500  -22.4056    3.6078 H         1 UNK         0.0791 
    156 H156      -47.6896  -21.3848    4.4456 H         1 UNK         0.0791 
    157 H157      -50.2587  -23.7045    5.2087 H         1 UNK         0.3028 
@<TRIPOS>BOND
     1    1    2 1    
     2    1   82 1    
     3    1   83 1    
     4    1   84 1    
     5    2    3 2    
     6    2    4 am   BACKBONE|DICT|INTERRES
     7    4    5 1    
     8    4   85 1    
     9    5    6 1    
    10    5   80 1    
    11    5   86 1    
    12    6    7 1    
    13    6   87 1    
    14    6   88 1    
    15    7    8 1    
    16    8    9 1    
    17    8   89 1    
    18    8   90 1    
    19    9   10 ar   
    20    9   14 ar   
    21   10   11 ar   
    22   10   91 1    
    23   11   12 ar   
    24   11   58 1    
    25   12   13 ar   
    26   12   92 1    
    27   13   14 ar   
    28   13   15 1    
    29   14   93 1    
    30   15   16 1    
    31   15   94 1    
    32   15   95 1    
    33   16   17 1    
    34   17   18 1    
    35   17   96 1    
    36   17   97 1    
    37   18   19 1    
    38   18   22 1    
    39   18   98 1    
    40   19   20 am   BACKBONE|DICT|INTERRES
    41   19   21 2    
    42   20   99 1    
    43   20  100 1    
    44   22   23 am   BACKBONE|DICT|INTERRES
    45   22  101 1    
    46   23   24 2    
    47   23   25 1    
    48   25   26 1    
    49   25   27 1    
    50   25  102 1    
    51   26  103 1    
    52   26  104 1    
    53   26  105 1    
    54   27   28 am   BACKBONE|DICT|INTERRES
    55   27  106 1    
    56   28   29 2    
    57   28   30 1    
    58   30   31 1    
    59   30   32 1    
    60   30  107 1    
    61   31  108 1    
    62   31  109 1    
    63   31  110 1    
    64   32   33 am   BACKBONE|DICT|INTERRES
    65   32  111 1    
    66   33   34 2    
    67   33   35 1    
    68   35   36 1    
    69   35   37 1    
    70   35  112 1    
    71   36  113 1    
    72   36  114 1    
    73   36  115 1    
    74   37   38 am   BACKBONE|DICT|INTERRES
    75   37  116 1    
    76   38   39 2    
    77   38   40 1    
    78   40   41 1    
    79   40   42 1    
    80   40  117 1    
    81   41  118 1    
    82   41  119 1    
    83   41  120 1    
    84   42   43 am   BACKBONE|DICT|INTERRES
    85   42  121 1    
    86   43   44 2    
    87   43   45 1    
    88   45   46 1    
    89   45   47 1    
    90   45  122 1    
    91   46  123 1    
    92   46  124 1    
    93   46  125 1    
    94   47   48 am   BACKBONE|DICT|INTERRES
    95   47  126 1    
    96   48   49 2    
    97   48   50 1    
    98   50   51 1    
    99   50   52 1    
   100   50  127 1    
   101   51  128 1    
   102   51  129 1    
   103   51  130 1    
   104   52   53 am   BACKBONE|DICT|INTERRES
   105   52  131 1    
   106   53   54 2    
   107   53   55 1    
   108   55   56 1    
   109   55   59 1    
   110   55  132 1    
   111   56   57 1    
   112   56  133 1    
   113   56  134 1    
   114   57   58 1    
   115   58  135 1    
   116   58  136 1    
   117   59   60 am   BACKBONE|DICT|INTERRES
   118   59  137 1    
   119   60   61 2    
   120   60   62 1    
   121   62   63 1    
   122   62   64 1    
   123   62  138 1    
   124   63  139 1    
   125   63  140 1    
   126   63  141 1    
   127   64   65 am   BACKBONE|DICT|INTERRES
   128   64  142 1    
   129   65   66 2    
   130   65   67 1    
   131   67   68 1    
   132   67   69 1    
   133   67  143 1    
   134   68  144 1    
   135   68  145 1    
   136   68  146 1    
   137   69   70 am   BACKBONE|DICT|INTERRES
   138   69  147 1    
   139   70   71 2    
   140   70   72 1    
   141   72   73 1    
   142   72   74 1    
   143   72  148 1    
   144   73  149 1    
   145   73  150 1    
   146   73  151 1    
   147   74   75 am   BACKBONE|DICT|INTERRES
   148   74  152 1    
   149   75   76 2    
   150   75   77 1    
   151   77   78 1    
   152   77   79 1    
   153   77  153 1    
   154   78  154 1    
   155   78  155 1    
   156   78  156 1    
   157   79   80 am   BACKBONE|DICT|INTERRES
   158   79  157 1    
   159   80   81 2    
@<TRIPOS>SUBSTRUCTURE
     1 UNK         1 GROUP             0       ****    0 ROOT    
