@<TRIPOS>MOLECULE
3R207
157   159    1
SMALL
USER_CHARGES


@<TRIPOS>ATOM
      1 CA        -51.8795  -30.7877    9.8906 C.3       0 UNK        -0.1975 
      2 C         -50.6888  -31.0636    8.9892 C.2       0 UNK         0.4852 
      3 O         -49.7971  -31.8225    9.3698 O.2       0 UNK        -0.5216 
      4 N         -50.6565  -30.4421    7.8010 N.am      1 UNK        -0.4461 
      5 CA        -49.5632  -30.5839    6.8280 C.3       1 UNK         0.0864 
      6 C6        -50.0463  -30.3618    5.3690 C.3       14 UNK        -0.0898 
      7 S7        -50.3328  -28.6251    4.8735 S.3       14 UNK        -0.2598 
      8 C8        -52.1501  -28.5328    4.7943 C.3       14 UNK         0.0286 
      9 C9        -52.7677  -28.3824    6.1757 C.ar      14 UNK        -0.0844 
     10 C10       -52.4248  -27.2854    6.9707 C.ar      14 UNK        -0.0881 
     11 C11       -52.9732  -27.1326    8.2441 C.ar      14 UNK        -0.0643 
     12 C12       -53.8999  -28.0661    8.7115 C.ar      14 UNK        -0.0930 
     13 C13       -54.2653  -29.1581    7.9196 C.ar      14 UNK        -0.0827 
     14 C14       -53.6902  -29.3186    6.6546 C.ar      14 UNK        -0.1249 
     15 C15       -55.2764  -30.1613    8.4464 C.3       14 UNK         0.0141 
     16 S16       -56.9707  -29.6538    8.0274 S.3       14 UNK        -0.2313 
     17 C17       -57.9249  -30.5352    9.3087 C.3       14 UNK        -0.0915 
     18 CA        -58.6526  -29.5668   10.2920 C.3       13 UNK         0.0968 
     19 C         -59.5623  -30.2907   11.3339 C.2       13 UNK         0.5732 
     20 N         -60.1474  -31.4324   10.9951 N.am      13 UNK        -0.7310 
     21 O         -59.7927  -29.7982   12.4376 O.2       13 UNK        -0.5035 
     22 N         -57.7577  -28.5676   10.9059 N.am      13 UNK        -0.4233 
     23 C         -56.7654  -28.8164   11.7690 C.2       13 UNK         0.4989 
     24 O         -56.4031  -29.9459   12.1123 O.2       13 UNK        -0.4996 
     25 CA        -56.0647  -27.5856   12.3611 C.3       12 UNK         0.0216 
     26 CB        -56.9886  -26.8494   13.3537 C.3       12 UNK        -0.1964 
     27 N         -54.8465  -28.0254   13.0365 N.am      12 UNK        -0.4276 
     28 C         -53.8296  -27.2482   13.4207 C.2       12 UNK         0.5020 
     29 O         -53.7811  -26.0305   13.2303 O.2       12 UNK        -0.5489 
     30 CA        -52.6585  -27.9648   14.1069 C.3       11 UNK         0.0294 
     31 CB        -51.6378  -28.4507   13.0665 C.3       11 UNK        -0.2019 
     32 N         -51.9828  -27.0649   15.0391 N.am      11 UNK        -0.4493 
     33 C         -52.1591  -27.0534   16.3658 C.2       11 UNK         0.4932 
     34 O         -52.9342  -27.8016   16.9647 O.2       11 UNK        -0.5029 
     35 CA        -51.2892  -26.0467   17.1443 C.3       10 UNK         0.0280 
     36 CB        -51.3792  -26.2055   18.6771 C.3       10 UNK        -0.1976 
     37 N         -49.8974  -26.0750   16.6784 N.am      10 UNK        -0.4242 
     38 C         -49.0296  -27.0974   16.7418 C.2       10 UNK         0.5072 
     39 O         -49.2405  -28.1508   17.3441 O.2       10 UNK        -0.5224 
     40 CA        -47.7039  -26.9377   15.9730 C.3       9 UNK         0.0343 
     41 CB        -47.7810  -27.6804   14.6281 C.3       9 UNK        -0.2003 
     42 N         -47.3257  -25.5449   15.7211 N.am      9 UNK        -0.4272 
     43 C         -46.9085  -24.6802   16.6572 C.2       9 UNK         0.4988 
     44 O         -46.7759  -24.9654   17.8476 O.2       9 UNK        -0.5108 
     45 CA        -46.5998  -23.2519   16.1835 C.3       8 UNK         0.0248 
     46 CB        -45.1995  -23.1757   15.5518 C.3       8 UNK        -0.2001 
     47 N         -47.6003  -22.7785   15.2253 N.am      8 UNK        -0.4140 
     48 C         -48.7952  -22.2740   15.5647 C.2       8 UNK         0.5028 
     49 O         -49.1576  -22.0935   16.7275 O.2       8 UNK        -0.5428 
     50 CA        -49.7582  -21.9184   14.4166 C.3       7 UNK         0.0264 
     51 CB        -49.5538  -20.4605   13.9742 C.3       7 UNK        -0.1988 
     52 N         -49.6293  -22.7990   13.2524 N.am      7 UNK        -0.4454 
     53 C         -49.9467  -24.1025   13.2494 C.2       7 UNK         0.5027 
     54 O         -50.4169  -24.6935   14.2209 O.2       7 UNK        -0.5083 
     55 CA        -49.6579  -24.9025   11.9627 C.3       6 UNK         0.0844 
     56 C56       -50.9152  -24.8984   11.0625 C.3       14 UNK        -0.0967 
     57 S57       -50.9476  -26.2893    9.8933 S.3       14 UNK        -0.2604 
     58 C58       -52.5553  -25.9640    9.1151 C.3       14 UNK         0.0134 
     59 N         -48.4422  -24.4525   11.2635 N.am      6 UNK        -0.4116 
     60 C         -47.2212  -24.3930   11.8264 C.2       5 UNK         0.5034 
     61 O         -46.9984  -24.7607   12.9806 O.2       5 UNK        -0.5045 
     62 CA        -46.0557  -23.7849   11.0257 C.3       5 UNK         0.0224 
     63 CB        -44.8609  -24.7489   10.9294 C.3       5 UNK        -0.1978 
     64 N         -46.4348  -23.3325    9.6866 N.am      5 UNK        -0.4737 
     65 C         -46.9667  -22.1306    9.4205 C.2       4 UNK         0.5027 
     66 O         -47.1850  -21.2802   10.2835 O.2       4 UNK        -0.5211 
     67 CA        -47.3398  -21.8267    7.9569 C.3       4 UNK         0.0297 
     68 CB        -46.2193  -21.0261    7.2743 C.3       4 UNK        -0.1993 
     69 N         -47.6341  -23.0218    7.1603 N.am      4 UNK        -0.4486 
     70 C         -48.6458  -23.8666    7.3993 C.2       3 UNK         0.4961 
     71 O         -49.4597  -23.7040    8.3078 O.2       3 UNK        -0.5105 
     72 CA        -48.7545  -25.1197    6.5095 C.3       3 UNK         0.0299 
     73 CB        -47.8762  -25.0766    5.2387 C.3       3 UNK        -0.1972 
     74 N         -48.4897  -26.3463    7.2692 N.am      3 UNK        -0.4305 
     75 C         -47.3914  -26.6416    7.9846 C.2       2 UNK         0.5006 
     76 O         -46.4276  -25.8830    8.0992 O.2       2 UNK        -0.5106 
     77 CA        -47.3457  -28.0110    8.6899 C.3       2 UNK         0.0296 
     78 CB        -47.4470  -27.8615   10.2179 C.3       2 UNK        -0.2002 
     79 N         -48.4040  -28.9148    8.2353 N.am      2 UNK        -0.4032 
     80 C         -48.3095  -29.7496    7.1893 C.2       1 UNK         0.5000 
     81 O         -47.2865  -29.8771    6.5133 O.2       1 UNK        -0.5238 
     82 H82       -51.6953  -31.1641   10.8966 H         1 UNK         0.0889 
     83 H83       -52.7696  -31.2809    9.5029 H         1 UNK         0.0889 
     84 H84       -52.0676  -29.7176    9.9617 H         1 UNK         0.0889 
     85 H85       -51.4173  -29.8322    7.5259 H         1 UNK         0.3028 
     86 H86       -49.2316  -31.6239    6.8740 H         1 UNK         0.0864 
     87 H87       -49.3001  -30.7647    4.6819 H         1 UNK         0.0720 
     88 H88       -50.9466  -30.9496    5.1838 H         1 UNK         0.0720 
     89 H89       -52.5442  -29.4064    4.2728 H         1 UNK         0.0814 
     90 H90       -52.4297  -27.6672    4.1922 H         1 UNK         0.0814 
     91 H91       -51.7170  -26.5555    6.6039 H         1 UNK         0.1469 
     92 H92       -54.3322  -27.9469    9.6952 H         1 UNK         0.1381 
     93 H93       -53.9710  -30.1645    6.0416 H         1 UNK         0.1206 
     94 H94       -55.1695  -30.2485    9.5286 H         1 UNK         0.0813 
     95 H95       -55.0838  -31.1538    8.0364 H         1 UNK         0.0813 
     96 H96       -57.2796  -31.2255    9.8540 H         1 UNK         0.0638 
     97 H97       -58.6485  -31.1563    8.7794 H         1 UNK         0.0638 
     98 H98       -59.3512  -28.9782    9.6966 H         1 UNK         0.0568 
     99 H99       -59.9976  -31.8482   10.0898 H         1 UNK         0.3450 
    100 H100      -60.7515  -31.8872   11.6618 H         1 UNK         0.3450 
    101 H101      -57.9917  -27.6066   10.7053 H         1 UNK         0.2987 
    102 H102      -55.7924  -26.9157   11.5427 H         1 UNK         0.0766 
    103 H103      -56.5089  -25.9613   13.7651 H         1 UNK         0.0798 
    104 H104      -57.2722  -27.4922   14.1882 H         1 UNK         0.0798 
    105 H105      -57.9085  -26.5182   12.8707 H         1 UNK         0.0798 
    106 H106      -54.8061  -29.0292   13.1749 H         1 UNK         0.3198 
    107 H107      -53.0445  -28.8349   14.6430 H         1 UNK         0.0843 
    108 H108      -52.1026  -29.1316   12.3542 H         1 UNK         0.0831 
    109 H109      -50.8137  -28.9862   13.5383 H         1 UNK         0.0831 
    110 H110      -51.2166  -27.6220   12.4994 H         1 UNK         0.0831 
    111 H111      -51.4132  -26.3294   14.6298 H         1 UNK         0.3133 
    112 H112      -51.6709  -25.0556   16.8943 H         1 UNK         0.0566 
    113 H113      -50.7499  -25.4770   19.1882 H         1 UNK         0.0814 
    114 H114      -52.4018  -26.0510   19.0234 H         1 UNK         0.0814 
    115 H115      -51.0751  -27.2002   19.0038 H         1 UNK         0.0814 
    116 H116      -49.6416  -25.2987   16.0796 H         1 UNK         0.3091 
    117 H117      -46.9169  -27.3974   16.5744 H         1 UNK         0.0702 
    118 H118      -46.8411  -27.6121   14.0798 H         1 UNK         0.0785 
    119 H119      -48.5694  -27.2780   13.9923 H         1 UNK         0.0785 
    120 H120      -47.9938  -28.7397   14.7782 H         1 UNK         0.0785 
    121 H121      -47.3356  -25.2402   14.7504 H         1 UNK         0.2998 
    122 H122      -46.6094  -22.5976   17.0581 H         1 UNK         0.0697 
    123 H123      -45.1115  -23.8127   14.6710 H         1 UNK         0.0825 
    124 H124      -44.4359  -23.4968   16.2615 H         1 UNK         0.0825 
    125 H125      -44.9546  -22.1562   15.2535 H         1 UNK         0.0825 
    126 H126      -47.4037  -22.9438   14.2479 H         1 UNK         0.3029 
    127 H127      -50.7754  -22.0199   14.8018 H         1 UNK         0.0897 
    128 H128      -50.2910  -20.1653   13.2272 H         1 UNK         0.0792 
    129 H129      -49.6603  -19.7780   14.8187 H         1 UNK         0.0792 
    130 H130      -48.5619  -20.3011   13.5490 H         1 UNK         0.0792 
    131 H131      -49.2531  -22.3899   12.4085 H         1 UNK         0.3086 
    132 H132      -49.4710  -25.9288   12.2813 H         1 UNK         0.0583 
    133 H133      -51.8244  -24.9796   11.6633 H         1 UNK         0.1020 
    134 H134      -50.9997  -23.9583   10.5143 H         1 UNK         0.1020 
    135 H135      -53.3063  -25.7806    9.8857 H         1 UNK         0.0694 
    136 H136      -52.4904  -25.0536    8.5169 H         1 UNK         0.0694 
    137 H137      -48.5626  -24.1454   10.3055 H         1 UNK         0.2989 
    138 H138      -45.7185  -22.9213   11.6037 H         1 UNK         0.1055 
    139 H139      -44.5605  -25.1073   11.9151 H         1 UNK         0.0806 
    140 H140      -43.9939  -24.2539   10.4918 H         1 UNK         0.0806 
    141 H141      -45.0827  -25.6219   10.3190 H         1 UNK         0.0806 
    142 H142      -46.3321  -24.0087    8.9348 H         1 UNK         0.3061 
    143 H143      -48.2407  -21.2095    7.9734 H         1 UNK         0.0734 
    144 H144      -45.9974  -20.1143    7.8309 H         1 UNK         0.0832 
    145 H145      -45.2942  -21.6004    7.2092 H         1 UNK         0.0832 
    146 H146      -46.5020  -20.7257    6.2652 H         1 UNK         0.0832 
    147 H147      -46.9922  -23.2449    6.4134 H         1 UNK         0.3156 
    148 H148      -49.7948  -25.1716    6.1868 H         1 UNK         0.0589 
    149 H149      -46.8100  -25.0790    5.4681 H         1 UNK         0.0808 
    150 H150      -48.0734  -25.9417    4.6050 H         1 UNK         0.0808 
    151 H151      -48.0897  -24.1904    4.6393 H         1 UNK         0.0808 
    152 H152      -49.2354  -27.0258    7.2653 H         1 UNK         0.3098 
    153 H153      -46.3741  -28.4552    8.4638 H         1 UNK         0.0720 
    154 H154      -46.6307  -27.2580   10.6109 H         1 UNK         0.0791 
    155 H155      -47.3922  -28.8305   10.7143 H         1 UNK         0.0791 
    156 H156      -48.3771  -27.3855   10.5221 H         1 UNK         0.0791 
    157 H157      -49.2760  -28.8884    8.7438 H         1 UNK         0.3028 
@<TRIPOS>BOND
     1    1    2 1    
     2    1   82 1    
     3    1   83 1    
     4    1   84 1    
     5    2    3 2    
     6    2    4 am   BACKBONE|DICT|INTERRES
     7    4    5 1    
     8    4   85 1    
     9    5    6 1    
    10    5   80 1    
    11    5   86 1    
    12    6    7 1    
    13    6   87 1    
    14    6   88 1    
    15    7    8 1    
    16    8    9 1    
    17    8   89 1    
    18    8   90 1    
    19    9   10 ar   
    20    9   14 ar   
    21   10   11 ar   
    22   10   91 1    
    23   11   12 ar   
    24   11   58 1    
    25   12   13 ar   
    26   12   92 1    
    27   13   14 ar   
    28   13   15 1    
    29   14   93 1    
    30   15   16 1    
    31   15   94 1    
    32   15   95 1    
    33   16   17 1    
    34   17   18 1    
    35   17   96 1    
    36   17   97 1    
    37   18   19 1    
    38   18   22 1    
    39   18   98 1    
    40   19   20 am   BACKBONE|DICT|INTERRES
    41   19   21 2    
    42   20   99 1    
    43   20  100 1    
    44   22   23 am   BACKBONE|DICT|INTERRES
    45   22  101 1    
    46   23   24 2    
    47   23   25 1    
    48   25   26 1    
    49   25   27 1    
    50   25  102 1    
    51   26  103 1    
    52   26  104 1    
    53   26  105 1    
    54   27   28 am   BACKBONE|DICT|INTERRES
    55   27  106 1    
    56   28   29 2    
    57   28   30 1    
    58   30   31 1    
    59   30   32 1    
    60   30  107 1    
    61   31  108 1    
    62   31  109 1    
    63   31  110 1    
    64   32   33 am   BACKBONE|DICT|INTERRES
    65   32  111 1    
    66   33   34 2    
    67   33   35 1    
    68   35   36 1    
    69   35   37 1    
    70   35  112 1    
    71   36  113 1    
    72   36  114 1    
    73   36  115 1    
    74   37   38 am   BACKBONE|DICT|INTERRES
    75   37  116 1    
    76   38   39 2    
    77   38   40 1    
    78   40   41 1    
    79   40   42 1    
    80   40  117 1    
    81   41  118 1    
    82   41  119 1    
    83   41  120 1    
    84   42   43 am   BACKBONE|DICT|INTERRES
    85   42  121 1    
    86   43   44 2    
    87   43   45 1    
    88   45   46 1    
    89   45   47 1    
    90   45  122 1    
    91   46  123 1    
    92   46  124 1    
    93   46  125 1    
    94   47   48 am   BACKBONE|DICT|INTERRES
    95   47  126 1    
    96   48   49 2    
    97   48   50 1    
    98   50   51 1    
    99   50   52 1    
   100   50  127 1    
   101   51  128 1    
   102   51  129 1    
   103   51  130 1    
   104   52   53 am   BACKBONE|DICT|INTERRES
   105   52  131 1    
   106   53   54 2    
   107   53   55 1    
   108   55   56 1    
   109   55   59 1    
   110   55  132 1    
   111   56   57 1    
   112   56  133 1    
   113   56  134 1    
   114   57   58 1    
   115   58  135 1    
   116   58  136 1    
   117   59   60 am   BACKBONE|DICT|INTERRES
   118   59  137 1    
   119   60   61 2    
   120   60   62 1    
   121   62   63 1    
   122   62   64 1    
   123   62  138 1    
   124   63  139 1    
   125   63  140 1    
   126   63  141 1    
   127   64   65 am   BACKBONE|DICT|INTERRES
   128   64  142 1    
   129   65   66 2    
   130   65   67 1    
   131   67   68 1    
   132   67   69 1    
   133   67  143 1    
   134   68  144 1    
   135   68  145 1    
   136   68  146 1    
   137   69   70 am   BACKBONE|DICT|INTERRES
   138   69  147 1    
   139   70   71 2    
   140   70   72 1    
   141   72   73 1    
   142   72   74 1    
   143   72  148 1    
   144   73  149 1    
   145   73  150 1    
   146   73  151 1    
   147   74   75 am   BACKBONE|DICT|INTERRES
   148   74  152 1    
   149   75   76 2    
   150   75   77 1    
   151   77   78 1    
   152   77   79 1    
   153   77  153 1    
   154   78  154 1    
   155   78  155 1    
   156   78  156 1    
   157   79   80 am   BACKBONE|DICT|INTERRES
   158   79  157 1    
   159   80   81 2    
@<TRIPOS>SUBSTRUCTURE
     1 UNK         1 GROUP             0       ****    0 ROOT    
