@<TRIPOS>MOLECULE
3R207
157   159    1
SMALL
USER_CHARGES


@<TRIPOS>ATOM
      1 CA        -44.4967  -29.0634    7.3732 C.3       0 UNK        -0.1975 
      2 C         -45.2969  -29.0333    6.0794 C.2       0 UNK         0.4852 
      3 O         -44.7747  -28.6134    5.0464 O.2       0 UNK        -0.5216 
      4 N         -46.5617  -29.4744    6.1294 N.am      1 UNK        -0.4461 
      5 CA        -47.4992  -29.5023    4.9975 C.3       1 UNK         0.0864 
      6 C6        -48.7124  -30.4251    5.2804 C.3       14 UNK        -0.0898 
      7 S7        -49.6026  -30.0279    6.8252 S.3       14 UNK        -0.2598 
      8 C8        -51.2061  -29.4784    6.1738 C.3       14 UNK         0.0286 
      9 C9        -52.0788  -28.8964    7.2749 C.ar      14 UNK        -0.0844 
     10 C10       -52.1958  -27.5117    7.4169 C.ar      14 UNK        -0.0881 
     11 C11       -53.0205  -26.9595    8.4048 C.ar      14 UNK        -0.0643 
     12 C12       -53.7318  -27.8134    9.2545 C.ar      14 UNK        -0.0930 
     13 C13       -53.6305  -29.2017    9.1163 C.ar      14 UNK        -0.0827 
     14 C14       -52.7966  -29.7375    8.1298 C.ar      14 UNK        -0.1249 
     15 C15       -54.4678  -30.1220    9.9909 C.3       14 UNK         0.0141 
     16 S16       -53.6974  -30.4228   11.6115 S.3       14 UNK        -0.2313 
     17 C17       -54.9471  -31.5347   12.3535 C.3       14 UNK        -0.0915 
     18 CA        -55.8263  -30.8732   13.4504 C.3       13 UNK         0.0968 
     19 C         -55.0989  -30.7911   14.8251 C.2       13 UNK         0.5732 
     20 N         -54.8346  -29.6114   15.3733 N.am      13 UNK        -0.7310 
     21 O         -54.7899  -31.8234   15.4158 O.2       13 UNK        -0.5035 
     22 N         -56.4061  -29.6035   12.9904 N.am      13 UNK        -0.4233 
     23 C         -57.5220  -29.0485   13.4726 C.2       13 UNK         0.4989 
     24 O         -58.2789  -29.5950   14.2775 O.2       13 UNK        -0.4996 
     25 CA        -57.8131  -27.6102   13.0069 C.3       12 UNK         0.0216 
     26 CB        -59.2942  -27.4248   12.6327 C.3       12 UNK        -0.1964 
     27 N         -57.4476  -26.6395   14.0424 N.am      12 UNK        -0.4276 
     28 C         -56.2048  -26.4449   14.5009 C.2       12 UNK         0.5020 
     29 O         -55.2093  -27.0255   14.0543 O.2       12 UNK        -0.5489 
     30 CA        -56.0443  -25.4744   15.6763 C.3       11 UNK         0.0294 
     31 CB        -56.5717  -26.1122   16.9780 C.3       11 UNK        -0.2019 
     32 N         -54.6215  -25.1775   15.7933 N.am      11 UNK        -0.4493 
     33 C         -54.0349  -24.2600   16.5672 C.2       11 UNK         0.4932 
     34 O         -54.6611  -23.4806   17.2871 O.2       11 UNK        -0.5029 
     35 CA        -52.4945  -24.1714   16.5138 C.3       10 UNK         0.0280 
     36 CB        -51.8739  -23.9237   17.9045 C.3       10 UNK        -0.1976 
     37 N         -51.8340  -25.2997   15.8414 N.am      10 UNK        -0.4242 
     38 C         -51.8033  -26.5883   16.2176 C.2       10 UNK         0.5072 
     39 O         -52.3781  -27.0376   17.2097 O.2       10 UNK        -0.5224 
     40 CA        -50.9818  -27.5390   15.3303 C.3       9 UNK         0.0343 
     41 CB        -51.7632  -27.9159   14.0606 C.3       9 UNK        -0.2003 
     42 N         -49.6839  -26.9770   14.9521 N.am      9 UNK        -0.4272 
     43 C         -48.6757  -26.7284   15.8007 C.2       9 UNK         0.4988 
     44 O         -48.7017  -27.0054   17.0005 O.2       9 UNK        -0.5108 
     45 CA        -47.4248  -26.0501   15.2144 C.3       8 UNK         0.0248 
     46 CB        -46.5208  -27.0800   14.5182 C.3       8 UNK        -0.2001 
     47 N         -47.7518  -24.9639   14.2865 N.am      8 UNK        -0.4140 
     48 C         -48.3378  -23.8129   14.6504 C.2       8 UNK         0.5028 
     49 O         -48.5966  -23.5127   15.8162 O.2       8 UNK        -0.5428 
     50 CA        -48.7196  -22.8337   13.5277 C.3       7 UNK         0.0264 
     51 CB        -47.5138  -21.9699   13.1250 C.3       7 UNK        -0.1988 
     52 N         -49.2630  -23.4979   12.3416 N.am      7 UNK        -0.4454 
     53 C         -50.4010  -24.2083   12.3097 C.2       7 UNK         0.5027 
     54 O         -51.1458  -24.3557   13.2784 O.2       7 UNK        -0.5083 
     55 CA        -50.7403  -24.9033   10.9755 C.3       6 UNK         0.0844 
     56 C56       -51.3695  -23.8785    9.9986 C.3       14 UNK        -0.0967 
     57 S57       -51.6587  -24.5146    8.3174 S.3       14 UNK        -0.2604 
     58 C58       -53.2120  -25.4491    8.5087 C.3       14 UNK         0.0134 
     59 N         -49.5731  -25.6090   10.4326 N.am      6 UNK        -0.4116 
     60 C         -48.9261  -26.6006   11.0654 C.2       5 UNK         0.5034 
     61 O         -49.2768  -27.0724   12.1450 O.2       5 UNK        -0.5045 
     62 CA        -47.6296  -27.1127   10.4282 C.3       5 UNK         0.0224 
     63 CB        -47.9255  -28.2033    9.3910 C.3       5 UNK        -0.1978 
     64 N         -46.8655  -26.0230    9.8209 N.am      5 UNK        -0.4737 
     65 C         -46.1738  -25.1154   10.5244 C.2       4 UNK         0.5027 
     66 O         -46.0631  -25.1444   11.7499 O.2       4 UNK        -0.5211 
     67 CA        -45.5345  -23.9597    9.7339 C.3       4 UNK         0.0297 
     68 CB        -44.1520  -24.3727    9.2049 C.3       4 UNK        -0.1993 
     69 N         -46.3667  -23.4963    8.6196 N.am      4 UNK        -0.4486 
     70 C         -47.5800  -22.9441    8.7588 C.2       3 UNK         0.4961 
     71 O         -48.0973  -22.7047    9.8496 O.2       3 UNK        -0.5105 
     72 CA        -48.3734  -22.6449    7.4727 C.3       3 UNK         0.0299 
     73 CB        -48.0955  -21.2085    7.0029 C.3       3 UNK        -0.1972 
     74 N         -48.1511  -23.5737    6.3542 N.am      3 UNK        -0.4305 
     75 C         -48.2189  -24.9130    6.3995 C.2       2 UNK         0.5006 
     76 O         -48.4024  -25.5540    7.4365 O.2       2 UNK        -0.5106 
     77 CA        -48.0175  -25.6638    5.0738 C.3       2 UNK         0.0296 
     78 CB        -46.8283  -25.1093    4.2577 C.3       2 UNK        -0.2002 
     79 N         -47.8033  -27.0798    5.3645 N.am      2 UNK        -0.4032 
     80 C         -47.9260  -28.0986    4.5046 C.2       1 UNK         0.5000 
     81 O         -48.3295  -27.9668    3.3471 O.2       1 UNK        -0.5238 
     82 H82       -44.9531  -29.7160    8.1175 H         1 UNK         0.0889 
     83 H83       -44.4232  -28.0602    7.7932 H         1 UNK         0.0889 
     84 H84       -43.4874  -29.4287    7.1834 H         1 UNK         0.0889 
     85 H85       -46.9392  -29.8225    6.9996 H         1 UNK         0.3028 
     86 H86       -46.9576  -29.9472    4.1597 H         1 UNK         0.0864 
     87 H87       -48.3639  -31.4555    5.3656 H         1 UNK         0.0720 
     88 H88       -49.4035  -30.4263    4.4350 H         1 UNK         0.0720 
     89 H89       -51.7151  -30.3214    5.7040 H         1 UNK         0.0814 
     90 H90       -51.0436  -28.7382    5.3884 H         1 UNK         0.0814 
     91 H91       -51.6528  -26.8609    6.7452 H         1 UNK         0.1469 
     92 H92       -54.3870  -27.3993   10.0088 H         1 UNK         0.1381 
     93 H93       -52.7170  -30.8100    8.0147 H         1 UNK         0.1206 
     94 H94       -55.4596  -29.6903   10.1326 H         1 UNK         0.0813 
     95 H95       -54.6217  -31.0770    9.4856 H         1 UNK         0.0813 
     96 H96       -55.5957  -31.9153   11.5633 H         1 UNK         0.0638 
     97 H97       -54.4338  -32.4155   12.7437 H         1 UNK         0.0638 
     98 H98       -56.6600  -31.5564   13.6234 H         1 UNK         0.0568 
     99 H99       -55.0376  -28.7526   14.8717 H         1 UNK         0.3450 
    100 H100      -54.3731  -29.5768   16.2675 H         1 UNK         0.3450 
    101 H101      -55.8003  -29.0441   12.4078 H         1 UNK         0.2987 
    102 H102      -57.2143  -27.3996   12.1179 H         1 UNK         0.0766 
    103 H103      -59.5938  -28.1396   11.8650 H         1 UNK         0.0798 
    104 H104      -59.4814  -26.4272   12.2350 H         1 UNK         0.0798 
    105 H105      -59.9526  -27.5732   13.4897 H         1 UNK         0.0798 
    106 H106      -58.2101  -26.1474   14.4857 H         1 UNK         0.3198 
    107 H107      -56.5862  -24.5526   15.4564 H         1 UNK         0.0843 
    108 H108      -56.4837  -25.4316   17.8246 H         1 UNK         0.0831 
    109 H109      -56.0257  -27.0235   17.2258 H         1 UNK         0.0831 
    110 H110      -57.6261  -26.3768   16.8925 H         1 UNK         0.0831 
    111 H111      -54.0476  -25.7659   15.1993 H         1 UNK         0.3133 
    112 H112      -52.2704  -23.2994   15.8981 H         1 UNK         0.0566 
    113 H113      -50.7888  -23.8373   17.8421 H         1 UNK         0.0814 
    114 H114      -52.1077  -24.7288   18.6015 H         1 UNK         0.0814 
    115 H115      -52.2466  -22.9970   18.3422 H         1 UNK         0.0814 
    116 H116      -51.3853  -25.0556   14.9592 H         1 UNK         0.3091 
    117 H117      -50.7983  -28.4523   15.9000 H         1 UNK         0.0702 
    118 H118      -51.2252  -28.6557   13.4676 H         1 UNK         0.0785 
    119 H119      -51.9483  -27.0506   13.4233 H         1 UNK         0.0785 
    120 H120      -52.7316  -28.3468   14.3077 H         1 UNK         0.0785 
    121 H121      -49.5461  -26.7901   13.9612 H         1 UNK         0.2998 
    122 H122      -46.8627  -25.6176   16.0449 H         1 UNK         0.0697 
    123 H123      -47.0227  -27.5553   13.6756 H         1 UNK         0.0825 
    124 H124      -46.2272  -27.8706   15.2100 H         1 UNK         0.0825 
    125 H125      -45.6060  -26.6184   14.1460 H         1 UNK         0.0825 
    126 H126      -47.5054  -25.1013   13.3124 H         1 UNK         0.3029 
    127 H127      -49.4967  -22.1736   13.9191 H         1 UNK         0.0897 
    128 H128      -46.7105  -22.5716   12.6982 H         1 UNK         0.0792 
    129 H129      -47.1051  -21.4424   13.9879 H         1 UNK         0.0792 
    130 H130      -47.7941  -21.2176   12.3873 H         1 UNK         0.0792 
    131 H131      -48.7425  -23.3763   11.4745 H         1 UNK         0.3086 
    132 H132      -51.4940  -25.6652   11.1861 H         1 UNK         0.0583 
    133 H133      -52.3120  -23.5012   10.4002 H         1 UNK         0.1020 
    134 H134      -50.7285  -23.0014    9.8956 H         1 UNK         0.1020 
    135 H135      -53.6907  -25.1854    9.4528 H         1 UNK         0.0694 
    136 H136      -53.8988  -25.1378    7.7208 H         1 UNK         0.0694 
    137 H137      -49.2403  -25.3111    9.5239 H         1 UNK         0.2989 
    138 H138      -47.0219  -27.5584   11.2187 H         1 UNK         0.1055 
    139 H139      -48.5768  -27.8426    8.5953 H         1 UNK         0.0806 
    140 H140      -47.0088  -28.5784    8.9407 H         1 UNK         0.0806 
    141 H141      -48.4302  -29.0519    9.8552 H         1 UNK         0.0806 
    142 H142      -47.0187  -25.8620    8.8313 H         1 UNK         0.3061 
    143 H143      -45.4026  -23.1226   10.4228 H         1 UNK         0.0734 
    144 H144      -44.2195  -25.1934    8.4895 H         1 UNK         0.0832 
    145 H145      -43.6482  -23.5391    8.7154 H         1 UNK         0.0832 
    146 H146      -43.5073  -24.7042   10.0203 H         1 UNK         0.0832 
    147 H147      -46.0176  -23.6536    7.6857 H         1 UNK         0.3156 
    148 H148      -49.4308  -22.7096    7.7297 H         1 UNK         0.0589 
    149 H149      -48.7461  -20.9272    6.1746 H         1 UNK         0.0808 
    150 H150      -48.2741  -20.4929    7.8071 H         1 UNK         0.0808 
    151 H151      -47.0619  -21.0820    6.6782 H         1 UNK         0.0808 
    152 H152      -47.9837  -23.1446    5.4557 H         1 UNK         0.3098 
    153 H153      -48.9380  -25.5596    4.4960 H         1 UNK         0.0720 
    154 H154      -46.9940  -24.0769    3.9490 H         1 UNK         0.0791 
    155 H155      -46.6697  -25.6831    3.3445 H         1 UNK         0.0791 
    156 H156      -45.9000  -25.1408    4.8299 H         1 UNK         0.0791 
    157 H157      -47.5617  -27.2767    6.3263 H         1 UNK         0.3028 
@<TRIPOS>BOND
     1    1    2 1    
     2    1   82 1    
     3    1   83 1    
     4    1   84 1    
     5    2    3 2    
     6    2    4 am   BACKBONE|DICT|INTERRES
     7    4    5 1    
     8    4   85 1    
     9    5    6 1    
    10    5   80 1    
    11    5   86 1    
    12    6    7 1    
    13    6   87 1    
    14    6   88 1    
    15    7    8 1    
    16    8    9 1    
    17    8   89 1    
    18    8   90 1    
    19    9   10 ar   
    20    9   14 ar   
    21   10   11 ar   
    22   10   91 1    
    23   11   12 ar   
    24   11   58 1    
    25   12   13 ar   
    26   12   92 1    
    27   13   14 ar   
    28   13   15 1    
    29   14   93 1    
    30   15   16 1    
    31   15   94 1    
    32   15   95 1    
    33   16   17 1    
    34   17   18 1    
    35   17   96 1    
    36   17   97 1    
    37   18   19 1    
    38   18   22 1    
    39   18   98 1    
    40   19   20 am   BACKBONE|DICT|INTERRES
    41   19   21 2    
    42   20   99 1    
    43   20  100 1    
    44   22   23 am   BACKBONE|DICT|INTERRES
    45   22  101 1    
    46   23   24 2    
    47   23   25 1    
    48   25   26 1    
    49   25   27 1    
    50   25  102 1    
    51   26  103 1    
    52   26  104 1    
    53   26  105 1    
    54   27   28 am   BACKBONE|DICT|INTERRES
    55   27  106 1    
    56   28   29 2    
    57   28   30 1    
    58   30   31 1    
    59   30   32 1    
    60   30  107 1    
    61   31  108 1    
    62   31  109 1    
    63   31  110 1    
    64   32   33 am   BACKBONE|DICT|INTERRES
    65   32  111 1    
    66   33   34 2    
    67   33   35 1    
    68   35   36 1    
    69   35   37 1    
    70   35  112 1    
    71   36  113 1    
    72   36  114 1    
    73   36  115 1    
    74   37   38 am   BACKBONE|DICT|INTERRES
    75   37  116 1    
    76   38   39 2    
    77   38   40 1    
    78   40   41 1    
    79   40   42 1    
    80   40  117 1    
    81   41  118 1    
    82   41  119 1    
    83   41  120 1    
    84   42   43 am   BACKBONE|DICT|INTERRES
    85   42  121 1    
    86   43   44 2    
    87   43   45 1    
    88   45   46 1    
    89   45   47 1    
    90   45  122 1    
    91   46  123 1    
    92   46  124 1    
    93   46  125 1    
    94   47   48 am   BACKBONE|DICT|INTERRES
    95   47  126 1    
    96   48   49 2    
    97   48   50 1    
    98   50   51 1    
    99   50   52 1    
   100   50  127 1    
   101   51  128 1    
   102   51  129 1    
   103   51  130 1    
   104   52   53 am   BACKBONE|DICT|INTERRES
   105   52  131 1    
   106   53   54 2    
   107   53   55 1    
   108   55   56 1    
   109   55   59 1    
   110   55  132 1    
   111   56   57 1    
   112   56  133 1    
   113   56  134 1    
   114   57   58 1    
   115   58  135 1    
   116   58  136 1    
   117   59   60 am   BACKBONE|DICT|INTERRES
   118   59  137 1    
   119   60   61 2    
   120   60   62 1    
   121   62   63 1    
   122   62   64 1    
   123   62  138 1    
   124   63  139 1    
   125   63  140 1    
   126   63  141 1    
   127   64   65 am   BACKBONE|DICT|INTERRES
   128   64  142 1    
   129   65   66 2    
   130   65   67 1    
   131   67   68 1    
   132   67   69 1    
   133   67  143 1    
   134   68  144 1    
   135   68  145 1    
   136   68  146 1    
   137   69   70 am   BACKBONE|DICT|INTERRES
   138   69  147 1    
   139   70   71 2    
   140   70   72 1    
   141   72   73 1    
   142   72   74 1    
   143   72  148 1    
   144   73  149 1    
   145   73  150 1    
   146   73  151 1    
   147   74   75 am   BACKBONE|DICT|INTERRES
   148   74  152 1    
   149   75   76 2    
   150   75   77 1    
   151   77   78 1    
   152   77   79 1    
   153   77  153 1    
   154   78  154 1    
   155   78  155 1    
   156   78  156 1    
   157   79   80 am   BACKBONE|DICT|INTERRES
   158   79  157 1    
   159   80   81 2    
@<TRIPOS>SUBSTRUCTURE
     1 UNK         1 GROUP             0       ****    0 ROOT    
