@<TRIPOS>MOLECULE
3R207
157   159    1
SMALL
USER_CHARGES


@<TRIPOS>ATOM
      1 CA        -50.9035  -30.0700    9.3354 C.3       0 UNK        -0.1975 
      2 C         -49.9766  -30.2813    8.1515 C.2       0 UNK         0.4852 
      3 O         -48.8351  -30.7026    8.3376 O.2       0 UNK        -0.5216 
      4 N         -50.4545  -29.9898    6.9333 N.am      1 UNK        -0.4461 
      5 CA        -49.6912  -30.1365    5.6867 C.3       1 UNK         0.0864 
      6 C6        -50.6319  -30.3319    4.4668 C.3       14 UNK        -0.0898 
      7 S7        -51.4546  -28.8166    3.8518 S.3       14 UNK        -0.2598 
      8 C8        -53.2052  -29.0982    4.2751 C.3       14 UNK         0.0286 
      9 C9        -53.6015  -28.7071    5.6983 C.ar      14 UNK        -0.0844 
     10 C10       -52.9668  -27.6677    6.3960 C.ar      14 UNK        -0.0881 
     11 C11       -53.4221  -27.2783    7.6597 C.ar      14 UNK        -0.0643 
     12 C12       -54.5310  -27.9203    8.2150 C.ar      14 UNK        -0.0930 
     13 C13       -55.1576  -28.9737    7.5474 C.ar      14 UNK        -0.0827 
     14 C14       -54.6892  -29.3593    6.2893 C.ar      14 UNK        -0.1249 
     15 C15       -56.3623  -29.6649    8.1725 C.3       14 UNK         0.0141 
     16 S16       -56.0538  -31.4047    8.6268 S.3       14 UNK        -0.2313 
     17 C17       -54.5435  -31.3514    9.6510 C.3       14 UNK        -0.0915 
     18 CA        -54.8033  -30.9399   11.1251 C.3       13 UNK         0.0968 
     19 C         -53.6745  -31.4611   12.0563 C.2       13 UNK         0.5732 
     20 N         -53.8271  -32.6597   12.6026 N.am      13 UNK        -0.7310 
     21 O         -52.6482  -30.8135   12.2510 O.2       13 UNK        -0.5035 
     22 N         -54.9708  -29.4860   11.2392 N.am      13 UNK        -0.4233 
     23 C         -55.4876  -28.8550   12.2983 C.2       13 UNK         0.4989 
     24 O         -55.9684  -29.4298   13.2784 O.2       13 UNK        -0.4996 
     25 CA        -55.5258  -27.3195   12.2173 C.3       12 UNK         0.0216 
     26 CB        -56.8119  -26.8444   11.5195 C.3       12 UNK        -0.1964 
     27 N         -55.4703  -26.7246   13.5520 N.am      12 UNK        -0.4276 
     28 C         -54.3443  -26.5419   14.2485 C.2       12 UNK         0.5020 
     29 O         -53.2155  -26.7868   13.8176 O.2       12 UNK        -0.5489 
     30 CA        -54.5091  -26.0139   15.6763 C.3       11 UNK         0.0294 
     31 CB        -54.7522  -27.1780   16.6569 C.3       11 UNK        -0.2019 
     32 N         -53.2961  -25.2893   16.0378 N.am      11 UNK        -0.4493 
     33 C         -53.1503  -24.4599   17.0777 C.2       11 UNK         0.4932 
     34 O         -54.0633  -24.1734   17.8545 O.2       11 UNK        -0.5029 
     35 CA        -51.7488  -23.8491   17.2764 C.3       10 UNK         0.0280 
     36 CB        -51.5146  -23.3053   18.7016 C.3       10 UNK        -0.1976 
     37 N         -50.6775  -24.7656   16.8733 N.am      10 UNK        -0.4242 
     38 C         -50.3681  -25.9592   17.4025 C.2       10 UNK         0.5072 
     39 O         -50.9075  -26.4387   18.4006 O.2       10 UNK        -0.5224 
     40 CA        -49.2810  -26.7740   16.6781 C.3       9 UNK         0.0343 
     41 CB        -49.9324  -27.7757   15.7103 C.3       9 UNK        -0.2003 
     42 N         -48.3259  -25.9422   15.9399 N.am      9 UNK        -0.4272 
     43 C         -47.4166  -25.1390   16.5112 C.2       9 UNK         0.4988 
     44 O         -47.2315  -25.0680   17.7268 O.2       9 UNK        -0.5108 
     45 CA        -46.5863  -24.2485   15.5715 C.3       8 UNK         0.0248 
     46 CB        -45.4155  -25.0398   14.9666 C.3       8 UNK        -0.2001 
     47 N         -47.3860  -23.6420   14.5021 N.am      8 UNK        -0.4140 
     48 C         -48.3603  -22.7404   14.6991 C.2       8 UNK         0.5028 
     49 O         -48.6621  -22.2876   15.8034 O.2       8 UNK        -0.5428 
     50 CA        -49.1580  -22.2842   13.4652 C.3       7 UNK         0.0264 
     51 CB        -48.3847  -21.2140   12.6792 C.3       7 UNK        -0.1988 
     52 N         -49.5226  -23.3926   12.5784 N.am      7 UNK        -0.4454 
     53 C         -50.3409  -24.3985   12.9228 C.2       7 UNK         0.5027 
     54 O         -50.9197  -24.4561   14.0083 O.2       7 UNK        -0.5083 
     55 CA        -50.5040  -25.5602   11.9210 C.3       6 UNK         0.0844 
     56 C56       -51.6132  -25.2723   10.8835 C.3       14 UNK        -0.0967 
     57 S57       -52.0549  -26.7974    9.9939 S.3       14 UNK        -0.2604 
     58 C58       -52.7384  -26.1599    8.4350 C.3       14 UNK         0.0134 
     59 N         -49.2326  -25.9299   11.2916 N.am      6 UNK        -0.4116 
     60 C         -48.1771  -26.4212   11.9552 C.2       5 UNK         0.5034 
     61 O         -48.1681  -26.6542   13.1634 O.2       5 UNK        -0.5045 
     62 CA        -46.8902  -26.6263   11.1456 C.3       5 UNK         0.0224 
     63 CB        -46.9545  -27.9222   10.3206 C.3       5 UNK        -0.1978 
     64 N         -46.6069  -25.4778   10.2806 N.am      5 UNK        -0.4737 
     65 C         -46.2624  -24.2650   10.7395 C.2       4 UNK         0.5027 
     66 O         -46.1060  -24.0066   11.9315 O.2       4 UNK        -0.5211 
     67 CA        -46.1017  -23.1406    9.7035 C.3       4 UNK         0.0297 
     68 CB        -44.6811  -23.1488    9.1178 C.3       4 UNK        -0.1993 
     69 N         -47.0808  -23.2186    8.6183 N.am      4 UNK        -0.4486 
     70 C         -48.4071  -23.0891    8.7704 C.2       3 UNK         0.4961 
     71 O         -48.9580  -22.8484    9.8433 O.2       3 UNK        -0.5105 
     72 CA        -49.2658  -23.3339    7.5189 C.3       3 UNK         0.0299 
     73 CB        -49.3850  -22.0518    6.6806 C.3       3 UNK        -0.1972 
     74 N         -48.7459  -24.4267    6.6896 N.am      3 UNK        -0.4305 
     75 C         -48.6642  -25.6982    7.1011 C.2       2 UNK         0.5006 
     76 O         -49.0473  -26.0889    8.2073 O.2       2 UNK        -0.5106 
     77 CA        -48.0014  -26.6919    6.1469 C.3       2 UNK         0.0296 
     78 CB        -46.5094  -26.8652    6.4905 C.3       2 UNK        -0.2002 
     79 N         -48.7238  -27.9486    6.2785 N.am      2 UNK        -0.4032 
     80 C         -48.6582  -29.0054    5.4606 C.2       1 UNK         0.5000 
     81 O         -47.8543  -29.1004    4.5304 O.2       1 UNK        -0.5238 
     82 H82       -51.8213  -29.5654    9.0389 H         1 UNK         0.0889 
     83 H83       -50.4146  -29.4587   10.0939 H         1 UNK         0.0889 
     84 H84       -51.1664  -31.0265    9.7858 H         1 UNK         0.0889 
     85 H85       -51.3996  -29.6442    6.8296 H         1 UNK         0.3028 
     86 H86       -49.1052  -31.0543    5.7756 H         1 UNK         0.0864 
     87 H87       -50.0550  -30.7373    3.6336 H         1 UNK         0.0720 
     88 H88       -51.3791  -31.0947    4.6911 H         1 UNK         0.0720 
     89 H89       -53.4577  -30.1413    4.0779 H         1 UNK         0.0814 
     90 H90       -53.8140  -28.5073    3.5897 H         1 UNK         0.0814 
     91 H91       -52.1338  -27.1416    5.9509 H         1 UNK         0.1469 
     92 H92       -54.9005  -27.5879    9.1727 H         1 UNK         0.1381 
     93 H93       -55.1928  -30.1571    5.7600 H         1 UNK         0.1206 
     94 H94       -56.7087  -29.1283    9.0554 H         1 UNK         0.0813 
     95 H95       -57.1915  -29.6348    7.4643 H         1 UNK         0.0813 
     96 H96       -53.8003  -30.7084    9.1821 H         1 UNK         0.0638 
     97 H97       -54.1249  -32.3587    9.6051 H         1 UNK         0.0638 
     98 H98       -55.7350  -31.4061   11.4526 H         1 UNK         0.0568 
     99 H99       -53.0977  -33.0214   13.1966 H         1 UNK         0.3450 
    100 H100      -54.6575  -33.2075   12.4388 H         1 UNK         0.3450 
    101 H101      -54.5437  -28.9442   10.5049 H         1 UNK         0.2987 
    102 H102      -54.6655  -26.9728   11.6404 H         1 UNK         0.0766 
    103 H103      -56.8436  -25.7570   11.4464 H         1 UNK         0.0798 
    104 H104      -57.7054  -27.1705   12.0537 H         1 UNK         0.0798 
    105 H105      -56.8825  -27.2346   10.5047 H         1 UNK         0.0798 
    106 H106      -56.3569  -26.5539   14.0045 H         1 UNK         0.3198 
    107 H107      -55.3540  -25.3224   15.7036 H         1 UNK         0.0843 
    108 H108      -55.6306  -27.7576   16.3698 H         1 UNK         0.0831 
    109 H109      -54.9211  -26.8199   17.6724 H         1 UNK         0.0831 
    110 H110      -53.9032  -27.8626   16.6812 H         1 UNK         0.0831 
    111 H111      -52.5210  -25.4303   15.3952 H         1 UNK         0.3133 
    112 H112      -51.6880  -23.0041   16.5891 H         1 UNK         0.0566 
    113 H113      -50.5152  -22.8819   18.8031 H         1 UNK         0.0814 
    114 H114      -52.2269  -22.5144   18.9394 H         1 UNK         0.0814 
    115 H115      -51.6295  -24.0827   19.4574 H         1 UNK         0.0814 
    116 H116      -50.2160  -24.5139   16.0064 H         1 UNK         0.3091 
    117 H117      -48.7288  -27.3360   17.4340 H         1 UNK         0.0702 
    118 H118      -49.1858  -28.4122   15.2351 H         1 UNK         0.0785 
    119 H119      -50.4900  -27.2688   14.9210 H         1 UNK         0.0785 
    120 H120      -50.6317  -28.4291   16.2337 H         1 UNK         0.0785 
    121 H121      -48.3578  -26.0038   14.9244 H         1 UNK         0.2998 
    122 H122      -46.1692  -23.4365   16.1709 H         1 UNK         0.0697 
    123 H123      -45.7633  -25.8460   14.3201 H         1 UNK         0.0825 
    124 H124      -44.8012  -25.4887   15.7482 H         1 UNK         0.0825 
    125 H125      -44.7660  -24.3947   14.3746 H         1 UNK         0.0825 
    126 H126      -47.1504  -23.9113   13.5500 H         1 UNK         0.3029 
    127 H127      -50.0861  -21.8333   13.8235 H         1 UNK         0.0897 
    128 H128      -48.9721  -20.8338   11.8432 H         1 UNK         0.0792 
    129 H129      -48.1392  -20.3635   13.3166 H         1 UNK         0.0792 
    130 H130      -47.4482  -21.6033   12.2803 H         1 UNK         0.0792 
    131 H131      -49.1428  -23.3671   11.6342 H         1 UNK         0.3086 
    132 H132      -50.8221  -26.4223   12.5117 H         1 UNK         0.0583 
    133 H133      -52.5163  -24.9016   11.3731 H         1 UNK         0.1020 
    134 H134      -51.2965  -24.5032   10.1765 H         1 UNK         0.1020 
    135 H135      -53.4632  -25.3726    8.6469 H         1 UNK         0.0694 
    136 H136      -51.9360  -25.7068    7.8507 H         1 UNK         0.0694 
    137 H137      -49.1681  -25.8075   10.2867 H         1 UNK         0.2989 
    138 H138      -46.0672  -26.7217   11.8577 H         1 UNK         0.1055 
    139 H139      -47.1384  -28.7826   10.9656 H         1 UNK         0.0806 
    140 H140      -46.0155  -28.1079    9.7995 H         1 UNK         0.0806 
    141 H141      -47.7540  -27.9022    9.5799 H         1 UNK         0.0806 
    142 H142      -46.7703  -25.5951    9.2918 H         1 UNK         0.3061 
    143 H143      -46.2522  -22.1902   10.2195 H         1 UNK         0.0734 
    144 H144      -43.9343  -23.0708    9.9095 H         1 UNK         0.0832 
    145 H145      -44.4741  -24.0662    8.5652 H         1 UNK         0.0832 
    146 H146      -44.5238  -22.3064    8.4440 H         1 UNK         0.0832 
    147 H147      -46.7239  -23.4102    7.6939 H         1 UNK         0.3156 
    148 H148      -50.2662  -23.6154    7.8547 H         1 UNK         0.0589 
    149 H149      -48.4190  -21.7279    6.2914 H         1 UNK         0.0808 
    150 H150      -50.0587  -22.1918    5.8350 H         1 UNK         0.0808 
    151 H151      -49.7862  -21.2323    7.2790 H         1 UNK         0.0808 
    152 H152      -48.4138  -24.1840    5.7667 H         1 UNK         0.3098 
    153 H153      -48.1064  -26.3329    5.1210 H         1 UNK         0.0720 
    154 H154      -46.0112  -27.5279    5.7830 H         1 UNK         0.0791 
    155 H155      -46.3713  -27.2831    7.4873 H         1 UNK         0.0791 
    156 H156      -45.9835  -25.9103    6.4575 H         1 UNK         0.0791 
    157 H157      -49.3963  -27.9574    7.0351 H         1 UNK         0.3028 
@<TRIPOS>BOND
     1    1    2 1    
     2    1   82 1    
     3    1   83 1    
     4    1   84 1    
     5    2    3 2    
     6    2    4 am   BACKBONE|DICT|INTERRES
     7    4    5 1    
     8    4   85 1    
     9    5    6 1    
    10    5   80 1    
    11    5   86 1    
    12    6    7 1    
    13    6   87 1    
    14    6   88 1    
    15    7    8 1    
    16    8    9 1    
    17    8   89 1    
    18    8   90 1    
    19    9   10 ar   
    20    9   14 ar   
    21   10   11 ar   
    22   10   91 1    
    23   11   12 ar   
    24   11   58 1    
    25   12   13 ar   
    26   12   92 1    
    27   13   14 ar   
    28   13   15 1    
    29   14   93 1    
    30   15   16 1    
    31   15   94 1    
    32   15   95 1    
    33   16   17 1    
    34   17   18 1    
    35   17   96 1    
    36   17   97 1    
    37   18   19 1    
    38   18   22 1    
    39   18   98 1    
    40   19   20 am   BACKBONE|DICT|INTERRES
    41   19   21 2    
    42   20   99 1    
    43   20  100 1    
    44   22   23 am   BACKBONE|DICT|INTERRES
    45   22  101 1    
    46   23   24 2    
    47   23   25 1    
    48   25   26 1    
    49   25   27 1    
    50   25  102 1    
    51   26  103 1    
    52   26  104 1    
    53   26  105 1    
    54   27   28 am   BACKBONE|DICT|INTERRES
    55   27  106 1    
    56   28   29 2    
    57   28   30 1    
    58   30   31 1    
    59   30   32 1    
    60   30  107 1    
    61   31  108 1    
    62   31  109 1    
    63   31  110 1    
    64   32   33 am   BACKBONE|DICT|INTERRES
    65   32  111 1    
    66   33   34 2    
    67   33   35 1    
    68   35   36 1    
    69   35   37 1    
    70   35  112 1    
    71   36  113 1    
    72   36  114 1    
    73   36  115 1    
    74   37   38 am   BACKBONE|DICT|INTERRES
    75   37  116 1    
    76   38   39 2    
    77   38   40 1    
    78   40   41 1    
    79   40   42 1    
    80   40  117 1    
    81   41  118 1    
    82   41  119 1    
    83   41  120 1    
    84   42   43 am   BACKBONE|DICT|INTERRES
    85   42  121 1    
    86   43   44 2    
    87   43   45 1    
    88   45   46 1    
    89   45   47 1    
    90   45  122 1    
    91   46  123 1    
    92   46  124 1    
    93   46  125 1    
    94   47   48 am   BACKBONE|DICT|INTERRES
    95   47  126 1    
    96   48   49 2    
    97   48   50 1    
    98   50   51 1    
    99   50   52 1    
   100   50  127 1    
   101   51  128 1    
   102   51  129 1    
   103   51  130 1    
   104   52   53 am   BACKBONE|DICT|INTERRES
   105   52  131 1    
   106   53   54 2    
   107   53   55 1    
   108   55   56 1    
   109   55   59 1    
   110   55  132 1    
   111   56   57 1    
   112   56  133 1    
   113   56  134 1    
   114   57   58 1    
   115   58  135 1    
   116   58  136 1    
   117   59   60 am   BACKBONE|DICT|INTERRES
   118   59  137 1    
   119   60   61 2    
   120   60   62 1    
   121   62   63 1    
   122   62   64 1    
   123   62  138 1    
   124   63  139 1    
   125   63  140 1    
   126   63  141 1    
   127   64   65 am   BACKBONE|DICT|INTERRES
   128   64  142 1    
   129   65   66 2    
   130   65   67 1    
   131   67   68 1    
   132   67   69 1    
   133   67  143 1    
   134   68  144 1    
   135   68  145 1    
   136   68  146 1    
   137   69   70 am   BACKBONE|DICT|INTERRES
   138   69  147 1    
   139   70   71 2    
   140   70   72 1    
   141   72   73 1    
   142   72   74 1    
   143   72  148 1    
   144   73  149 1    
   145   73  150 1    
   146   73  151 1    
   147   74   75 am   BACKBONE|DICT|INTERRES
   148   74  152 1    
   149   75   76 2    
   150   75   77 1    
   151   77   78 1    
   152   77   79 1    
   153   77  153 1    
   154   78  154 1    
   155   78  155 1    
   156   78  156 1    
   157   79   80 am   BACKBONE|DICT|INTERRES
   158   79  157 1    
   159   80   81 2    
@<TRIPOS>SUBSTRUCTURE
     1 UNK         1 GROUP             0       ****    0 ROOT    
