@<TRIPOS>MOLECULE
3R207
157   159    1
SMALL
USER_CHARGES


@<TRIPOS>ATOM
      1 CA        -46.2069  -33.0573    5.7687 C.3       0 UNK        -0.1975 
      2 C         -47.1095  -31.9219    5.3094 C.2       0 UNK         0.4852 
      3 O         -47.7118  -32.0143    4.2392 O.2       0 UNK        -0.5216 
      4 N         -47.2061  -30.8515    6.1101 N.am      1 UNK        -0.4461 
      5 CA        -48.0413  -29.6702    5.8443 C.3       1 UNK         0.0864 
      6 C6        -48.2063  -28.7803    7.1013 C.3       14 UNK        -0.0898 
      7 S7        -48.8174  -29.6935    8.5547 S.3       14 UNK        -0.2598 
      8 C8        -49.0733  -28.3271    9.7269 C.3       14 UNK         0.0286 
      9 C9        -50.4941  -27.7909    9.6605 C.ar      14 UNK        -0.0844 
     10 C10       -50.8001  -26.6782    8.8701 C.ar      14 UNK        -0.0881 
     11 C11       -52.1035  -26.1709    8.8449 C.ar      14 UNK        -0.0643 
     12 C12       -53.1064  -26.8053    9.5797 C.ar      14 UNK        -0.0930 
     13 C13       -52.8067  -27.8964   10.3962 C.ar      14 UNK        -0.0827 
     14 C14       -51.5000  -28.3912   10.4250 C.ar      14 UNK        -0.1249 
     15 C15       -53.8922  -28.5338   11.2491 C.3       14 UNK         0.0141 
     16 S16       -54.0779  -27.7004   12.8623 S.3       14 UNK        -0.2313 
     17 C17       -55.1156  -26.2383   12.4787 C.3       14 UNK        -0.0915 
     18 CA        -56.6379  -26.4456   12.7132 C.3       13 UNK         0.0968 
     19 C         -57.2612  -27.3845   11.6374 C.2       13 UNK         0.5732 
     20 N         -57.5761  -28.6378   11.9501 N.am      13 UNK        -0.7310 
     21 O         -57.4600  -26.9635   10.5007 O.2       13 UNK        -0.5035 
     22 N         -56.9092  -26.8415   14.0987 N.am      13 UNK        -0.4233 
     23 C         -58.1189  -26.9476   14.6647 C.2       13 UNK         0.4989 
     24 O         -59.1484  -26.4976   14.1593 O.2       13 UNK        -0.4996 
     25 CA        -58.1949  -27.6967   16.0152 C.3       12 UNK         0.0216 
     26 CB        -59.4395  -28.6047   16.1021 C.3       12 UNK        -0.1964 
     27 N         -56.9766  -28.4550   16.3445 N.am      12 UNK        -0.4276 
     28 C         -56.4010  -29.4432   15.6421 C.2       12 UNK         0.5020 
     29 O         -56.8883  -29.9307   14.6196 O.2       12 UNK        -0.5489 
     30 CA        -54.9914  -29.8587   16.1063 C.3       11 UNK         0.0294 
     31 CB        -54.3935  -30.9856   15.2436 C.3       11 UNK        -0.2019 
     32 N         -54.0728  -28.7134   16.0860 N.am      11 UNK        -0.4493 
     33 C         -54.0066  -27.7451   17.0099 C.2       11 UNK         0.4932 
     34 O         -54.7408  -27.7215   18.0000 O.2       11 UNK        -0.5029 
     35 CA        -53.0099  -26.5893   16.7750 C.3       10 UNK         0.0280 
     36 CB        -52.5028  -25.9881   18.1022 C.3       10 UNK        -0.1976 
     37 N         -51.8747  -26.9004   15.8957 N.am      10 UNK        -0.4242 
     38 C         -50.9579  -27.8673   16.0648 C.2       10 UNK         0.5072 
     39 O         -50.9999  -28.7218   16.9507 O.2       10 UNK        -0.5224 
     40 CA        -49.7688  -27.8541   15.0919 C.3       9 UNK         0.0343 
     41 CB        -50.2112  -28.2110   13.6644 C.3       9 UNK        -0.2003 
     42 N         -49.0823  -26.5620   15.0857 N.am      9 UNK        -0.4272 
     43 C         -48.4269  -26.0313   16.1299 C.2       9 UNK         0.4988 
     44 O         -48.2434  -26.6137   17.1992 O.2       9 UNK        -0.5108 
     45 CA        -47.8990  -24.5985   15.9593 C.3       8 UNK         0.0248 
     46 CB        -46.5434  -24.5901   15.2343 C.3       8 UNK        -0.2001 
     47 N         -48.8605  -23.7609   15.2397 N.am      8 UNK        -0.4140 
     48 C         -49.9362  -23.1972   15.8087 C.2       8 UNK         0.5028 
     49 O         -50.1704  -23.2402   17.0165 O.2       8 UNK        -0.5428 
     50 CA        -50.9188  -22.4489   14.8898 C.3       7 UNK         0.0264 
     51 CB        -50.6694  -20.9333   14.9577 C.3       7 UNK        -0.1988 
     52 N         -50.8628  -22.8815   13.4913 N.am      7 UNK        -0.4454 
     53 C         -51.3430  -24.0466   13.0330 C.2       7 UNK         0.5027 
     54 O         -51.8814  -24.8946   13.7469 O.2       7 UNK        -0.5083 
     55 CA        -51.1243  -24.3194   11.5314 C.3       6 UNK         0.0844 
     56 C56       -52.1864  -23.5915   10.6511 C.3       14 UNK        -0.0967 
     57 S57       -51.7215  -23.4238    8.8800 S.3       14 UNK        -0.2604 
     58 C58       -52.4306  -24.9001    8.0799 C.3       14 UNK         0.0134 
     59 N         -49.7544  -24.0197   11.1074 N.am      6 UNK        -0.4116 
     60 C         -48.6278  -24.5860   11.5536 C.2       5 UNK         0.5034 
     61 O         -48.5902  -25.3426   12.5240 O.2       5 UNK        -0.5045 
     62 CA        -47.3330  -24.2605   10.7772 C.3       5 UNK         0.0224 
     63 CB        -46.2608  -25.3536   10.9416 C.3       5 UNK        -0.1978 
     64 N         -47.5750  -24.0530    9.3438 N.am      5 UNK        -0.4737 
     65 C         -47.9928  -22.9169    8.7749 C.2       4 UNK         0.5027 
     66 O         -48.1870  -21.8815    9.4122 O.2       4 UNK        -0.5211 
     67 CA        -48.2745  -22.9655    7.2596 C.3       4 UNK         0.0297 
     68 CB        -48.7736  -21.6170    6.7081 C.3       4 UNK        -0.1993 
     69 N         -47.1110  -23.3977    6.4811 N.am      4 UNK        -0.4486 
     70 C         -46.6780  -24.6583    6.3690 C.2       3 UNK         0.4961 
     71 O         -47.1876  -25.6158    6.9589 O.2       3 UNK        -0.5105 
     72 CA        -45.4521  -24.8774    5.4773 C.3       3 UNK         0.0299 
     73 CB        -44.1554  -24.6622    6.2755 C.3       3 UNK        -0.1972 
     74 N         -45.4878  -26.2471    4.9761 N.am      3 UNK        -0.4305 
     75 C         -45.3190  -26.6239    3.7033 C.2       2 UNK         0.5006 
     76 O         -45.0260  -25.8473    2.7929 O.2       2 UNK        -0.5106 
     77 CA        -45.4958  -28.1202    3.3777 C.3       2 UNK         0.0296 
     78 CB        -44.1302  -28.7788    3.1190 C.3       2 UNK        -0.2002 
     79 N         -46.1955  -28.8756    4.4215 N.am      2 UNK        -0.4032 
     80 C         -47.5135  -28.8176    4.6690 C.2       1 UNK         0.5000 
     81 O         -48.2989  -28.1226    4.0221 O.2       1 UNK        -0.5238 
     82 H82       -45.7420  -32.8453    6.7314 H         1 UNK         0.0889 
     83 H83       -45.4151  -33.2259    5.0393 H         1 UNK         0.0889 
     84 H84       -46.7825  -33.9774    5.8661 H         1 UNK         0.0889 
     85 H85       -46.7195  -30.8477    6.9958 H         1 UNK         0.3028 
     86 H86       -49.0320  -30.0282    5.5554 H         1 UNK         0.0864 
     87 H87       -47.2550  -28.3189    7.3734 H         1 UNK         0.0720 
     88 H88       -48.8987  -27.9616    6.8949 H         1 UNK         0.0720 
     89 H89       -48.3547  -27.5293    9.5364 H         1 UNK         0.0814 
     90 H90       -48.8624  -28.6882   10.7336 H         1 UNK         0.0814 
     91 H91       -50.0219  -26.1864    8.3023 H         1 UNK         0.1469 
     92 H92       -54.1164  -26.4251    9.5381 H         1 UNK         0.1381 
     93 H93       -51.2622  -29.2410   11.0499 H         1 UNK         0.1206 
     94 H94       -54.8389  -28.5397   10.7096 H         1 UNK         0.0813 
     95 H95       -53.6477  -29.5813   11.4312 H         1 UNK         0.0813 
     96 H96       -54.9291  -25.8912   11.4655 H         1 UNK         0.0638 
     97 H97       -54.7652  -25.4279   13.1198 H         1 UNK         0.0638 
     98 H98       -57.1189  -25.4761   12.5722 H         1 UNK         0.0568 
     99 H99       -57.3808  -29.0085   12.8745 H         1 UNK         0.3450 
    100 H100      -57.9831  -29.2330   11.2473 H         1 UNK         0.3450 
    101 H101      -56.1278  -27.2572   14.5806 H         1 UNK         0.2987 
    102 H102      -58.2899  -26.9262   16.7816 H         1 UNK         0.0766 
    103 H103      -59.4899  -29.1179   17.0623 H         1 UNK         0.0798 
    104 H104      -59.4445  -29.3612   15.3167 H         1 UNK         0.0798 
    105 H105      -60.3575  -28.0247   15.9989 H         1 UNK         0.0798 
    106 H106      -56.4447  -28.1085   17.1403 H         1 UNK         0.3198 
    107 H107      -55.0784  -30.2288   17.1303 H         1 UNK         0.0843 
    108 H108      -55.0347  -31.8680   15.2556 H         1 UNK         0.0831 
    109 H109      -53.4149  -31.2917   15.6138 H         1 UNK         0.0831 
    110 H110      -54.2786  -30.6805   14.2025 H         1 UNK         0.0831 
    111 H111      -53.4727  -28.6326   15.2768 H         1 UNK         0.3133 
    112 H112      -53.5746  -25.8126   16.2574 H         1 UNK         0.0566 
    113 H113      -51.8284  -25.1509   17.9258 H         1 UNK         0.0814 
    114 H114      -53.3279  -25.6121   18.7084 H         1 UNK         0.0814 
    115 H115      -51.9682  -26.7268   18.7002 H         1 UNK         0.0814 
    116 H116      -51.7605  -26.2672   15.1060 H         1 UNK         0.3091 
    117 H117      -49.0551  -28.6106   15.4247 H         1 UNK         0.0702 
    118 H118      -49.3503  -28.2999   13.0032 H         1 UNK         0.0785 
    119 H119      -50.8757  -27.4570   13.2404 H         1 UNK         0.0785 
    120 H120      -50.7403  -29.1645   13.6425 H         1 UNK         0.0785 
    121 H121      -49.1074  -26.0402   14.2137 H         1 UNK         0.2998 
    122 H122      -47.7440  -24.1779   16.9555 H         1 UNK         0.0697 
    123 H123      -46.6084  -25.0348   14.2424 H         1 UNK         0.0825 
    124 H124      -45.8020  -25.1604   15.7953 H         1 UNK         0.0825 
    125 H125      -46.1570  -23.5767   15.1247 H         1 UNK         0.0825 
    126 H126      -48.7599  -23.7097   14.2364 H         1 UNK         0.3029 
    127 H127      -51.9252  -22.6467   15.2663 H         1 UNK         0.0897 
    128 H128      -51.4092  -20.3823   14.3765 H         1 UNK         0.0792 
    129 H129      -50.7350  -20.5731   15.9855 H         1 UNK         0.0792 
    130 H130      -49.6800  -20.6683   14.5827 H         1 UNK         0.0792 
    131 H131      -50.4220  -22.2515   12.8360 H         1 UNK         0.3086 
    132 H132      -51.2547  -25.3940   11.3979 H         1 UNK         0.0583 
    133 H133      -52.3566  -22.5769   11.0167 H         1 UNK         0.1020 
    134 H134      -53.1512  -24.0951   10.7301 H         1 UNK         0.1020 
    135 H135      -53.5096  -24.7674    7.9870 H         1 UNK         0.0694 
    136 H136      -52.0413  -24.9759    7.0637 H         1 UNK         0.0694 
    137 H137      -49.6783  -23.3926   10.3179 H         1 UNK         0.2989 
    138 H138      -46.9355  -23.3374   11.2049 H         1 UNK         0.1055 
    139 H139      -45.9819  -25.4813   11.9876 H         1 UNK         0.0806 
    140 H140      -45.3506  -25.1000   10.3979 H         1 UNK         0.0806 
    141 H141      -46.6083  -26.3204   10.5784 H         1 UNK         0.0806 
    142 H142      -47.4458  -24.8536    8.7304 H         1 UNK         0.3061 
    143 H143      -49.0753  -23.6938    7.1123 H         1 UNK         0.0734 
    144 H144      -49.6751  -21.2926    7.2302 H         1 UNK         0.0832 
    145 H145      -48.0276  -20.8301    6.8254 H         1 UNK         0.0832 
    146 H146      -49.0257  -21.6886    5.6500 H         1 UNK         0.0832 
    147 H147      -46.6013  -22.6697    6.0004 H         1 UNK         0.3156 
    148 H148      -45.4933  -24.1654    4.6502 H         1 UNK         0.0589 
    149 H149      -44.0896  -25.3387    7.1290 H         1 UNK         0.0808 
    150 H150      -43.2764  -24.8252    5.6516 H         1 UNK         0.0808 
    151 H151      -44.0946  -23.6436    6.6607 H         1 UNK         0.0808 
    152 H152      -45.8053  -26.9311    5.6487 H         1 UNK         0.3098 
    153 H153      -46.0837  -28.1839    2.4594 H         1 UNK         0.0720 
    154 H154      -44.2423  -29.8201    2.8159 H         1 UNK         0.0791 
    155 H155      -43.4938  -28.7518    4.0046 H         1 UNK         0.0791 
    156 H156      -43.5948  -28.2669    2.3180 H         1 UNK         0.0791 
    157 H157      -45.6323  -29.4848    4.9971 H         1 UNK         0.3028 
@<TRIPOS>BOND
     1    1    2 1    
     2    1   82 1    
     3    1   83 1    
     4    1   84 1    
     5    2    3 2    
     6    2    4 am   BACKBONE|DICT|INTERRES
     7    4    5 1    
     8    4   85 1    
     9    5    6 1    
    10    5   80 1    
    11    5   86 1    
    12    6    7 1    
    13    6   87 1    
    14    6   88 1    
    15    7    8 1    
    16    8    9 1    
    17    8   89 1    
    18    8   90 1    
    19    9   10 ar   
    20    9   14 ar   
    21   10   11 ar   
    22   10   91 1    
    23   11   12 ar   
    24   11   58 1    
    25   12   13 ar   
    26   12   92 1    
    27   13   14 ar   
    28   13   15 1    
    29   14   93 1    
    30   15   16 1    
    31   15   94 1    
    32   15   95 1    
    33   16   17 1    
    34   17   18 1    
    35   17   96 1    
    36   17   97 1    
    37   18   19 1    
    38   18   22 1    
    39   18   98 1    
    40   19   20 am   BACKBONE|DICT|INTERRES
    41   19   21 2    
    42   20   99 1    
    43   20  100 1    
    44   22   23 am   BACKBONE|DICT|INTERRES
    45   22  101 1    
    46   23   24 2    
    47   23   25 1    
    48   25   26 1    
    49   25   27 1    
    50   25  102 1    
    51   26  103 1    
    52   26  104 1    
    53   26  105 1    
    54   27   28 am   BACKBONE|DICT|INTERRES
    55   27  106 1    
    56   28   29 2    
    57   28   30 1    
    58   30   31 1    
    59   30   32 1    
    60   30  107 1    
    61   31  108 1    
    62   31  109 1    
    63   31  110 1    
    64   32   33 am   BACKBONE|DICT|INTERRES
    65   32  111 1    
    66   33   34 2    
    67   33   35 1    
    68   35   36 1    
    69   35   37 1    
    70   35  112 1    
    71   36  113 1    
    72   36  114 1    
    73   36  115 1    
    74   37   38 am   BACKBONE|DICT|INTERRES
    75   37  116 1    
    76   38   39 2    
    77   38   40 1    
    78   40   41 1    
    79   40   42 1    
    80   40  117 1    
    81   41  118 1    
    82   41  119 1    
    83   41  120 1    
    84   42   43 am   BACKBONE|DICT|INTERRES
    85   42  121 1    
    86   43   44 2    
    87   43   45 1    
    88   45   46 1    
    89   45   47 1    
    90   45  122 1    
    91   46  123 1    
    92   46  124 1    
    93   46  125 1    
    94   47   48 am   BACKBONE|DICT|INTERRES
    95   47  126 1    
    96   48   49 2    
    97   48   50 1    
    98   50   51 1    
    99   50   52 1    
   100   50  127 1    
   101   51  128 1    
   102   51  129 1    
   103   51  130 1    
   104   52   53 am   BACKBONE|DICT|INTERRES
   105   52  131 1    
   106   53   54 2    
   107   53   55 1    
   108   55   56 1    
   109   55   59 1    
   110   55  132 1    
   111   56   57 1    
   112   56  133 1    
   113   56  134 1    
   114   57   58 1    
   115   58  135 1    
   116   58  136 1    
   117   59   60 am   BACKBONE|DICT|INTERRES
   118   59  137 1    
   119   60   61 2    
   120   60   62 1    
   121   62   63 1    
   122   62   64 1    
   123   62  138 1    
   124   63  139 1    
   125   63  140 1    
   126   63  141 1    
   127   64   65 am   BACKBONE|DICT|INTERRES
   128   64  142 1    
   129   65   66 2    
   130   65   67 1    
   131   67   68 1    
   132   67   69 1    
   133   67  143 1    
   134   68  144 1    
   135   68  145 1    
   136   68  146 1    
   137   69   70 am   BACKBONE|DICT|INTERRES
   138   69  147 1    
   139   70   71 2    
   140   70   72 1    
   141   72   73 1    
   142   72   74 1    
   143   72  148 1    
   144   73  149 1    
   145   73  150 1    
   146   73  151 1    
   147   74   75 am   BACKBONE|DICT|INTERRES
   148   74  152 1    
   149   75   76 2    
   150   75   77 1    
   151   77   78 1    
   152   77   79 1    
   153   77  153 1    
   154   78  154 1    
   155   78  155 1    
   156   78  156 1    
   157   79   80 am   BACKBONE|DICT|INTERRES
   158   79  157 1    
   159   80   81 2    
@<TRIPOS>SUBSTRUCTURE
     1 UNK         1 GROUP             0       ****    0 ROOT    
