@<TRIPOS>MOLECULE
3R207
157   159    1
SMALL
USER_CHARGES


@<TRIPOS>ATOM
      1 CA        -44.1835  -26.9917    7.7622 C.3       0 UNK        -0.1975 
      2 C         -45.1304  -27.7390    6.8358 C.2       0 UNK         0.4852 
      3 O         -44.6936  -28.3303    5.8477 O.2       0 UNK        -0.5216 
      4 N         -46.4309  -27.6943    7.1422 N.am      1 UNK        -0.4461 
      5 CA        -47.5298  -28.3208    6.4056 C.3       1 UNK         0.0864 
      6 C6        -48.8131  -28.3019    7.2685 C.3       14 UNK        -0.0898 
      7 S7        -50.1270  -29.3964    6.6335 S.3       14 UNK        -0.2598 
      8 C8        -51.4750  -28.2067    6.3170 C.3       14 UNK         0.0286 
      9 C9        -51.8866  -27.4310    7.5650 C.ar      14 UNK        -0.0844 
     10 C10       -51.8800  -26.0325    7.5559 C.ar      14 UNK        -0.0881 
     11 C11       -52.2406  -25.3113    8.6983 C.ar      14 UNK        -0.0643 
     12 C12       -52.6018  -25.9990    9.8611 C.ar      14 UNK        -0.0930 
     13 C13       -52.5991  -27.3959    9.8871 C.ar      14 UNK        -0.0827 
     14 C14       -52.2603  -28.1056    8.7316 C.ar      14 UNK        -0.1249 
     15 C15       -52.9040  -28.1432   11.1743 C.3       14 UNK         0.0141 
     16 S16       -54.6877  -28.3275   11.4688 S.3       14 UNK        -0.2313 
     17 C17       -54.6645  -29.8166   12.5213 C.3       14 UNK        -0.0915 
     18 CA        -55.9933  -30.0554   13.2824 C.3       13 UNK         0.0968 
     19 C         -56.0428  -31.4831   13.9066 C.2       13 UNK         0.5732 
     20 N         -56.2780  -31.6553   15.2026 N.am      13 UNK        -0.7310 
     21 O         -55.8775  -32.4680   13.1904 O.2       13 UNK        -0.5035 
     22 N         -56.2772  -28.9750   14.2403 N.am      13 UNK        -0.4233 
     23 C         -57.5129  -28.6227   14.6203 C.2       13 UNK         0.4989 
     24 O         -58.5374  -29.0976   14.1256 O.2       13 UNK        -0.4996 
     25 CA        -57.6266  -27.5745   15.7463 C.3       12 UNK         0.0216 
     26 CB        -59.0200  -27.5588   16.4107 C.3       12 UNK        -0.1964 
     27 N         -56.5773  -27.6857   16.7677 N.am      12 UNK        -0.4276 
     28 C         -56.2776  -28.7564   17.5224 C.2       12 UNK         0.5020 
     29 O         -56.8723  -29.8317   17.4367 O.2       12 UNK        -0.5489 
     30 CA        -55.1030  -28.6314   18.5138 C.3       11 UNK         0.0294 
     31 CB        -54.1728  -29.8558   18.4281 C.3       11 UNK        -0.2019 
     32 N         -54.3114  -27.4265   18.2625 N.am      11 UNK        -0.4493 
     33 C         -54.3710  -26.2889   18.9695 C.2       11 UNK         0.4932 
     34 O         -55.0385  -26.1536   19.9946 O.2       11 UNK        -0.5029 
     35 CA        -53.5768  -25.0827   18.4261 C.3       10 UNK         0.0280 
     36 CB        -52.2327  -24.9519   19.1596 C.3       10 UNK        -0.1976 
     37 N         -53.3302  -25.1470   16.9817 N.am      10 UNK        -0.4242 
     38 C         -54.2831  -25.1386   16.0357 C.2       10 UNK         0.5072 
     39 O         -55.4780  -24.9701   16.2763 O.2       10 UNK        -0.5224 
     40 CA        -53.8488  -25.4649   14.5949 C.3       9 UNK         0.0343 
     41 CB        -53.6635  -24.1721   13.7877 C.3       9 UNK        -0.2003 
     42 N         -52.6311  -26.2867   14.5433 N.am      9 UNK        -0.4272 
     43 C         -52.5675  -27.5459   15.0121 C.2       9 UNK         0.4988 
     44 O         -53.5597  -28.1462   15.4292 O.2       9 UNK        -0.5108 
     45 CA        -51.1966  -28.2491   15.0878 C.3       8 UNK         0.0248 
     46 CB        -51.1801  -29.5655   14.2947 C.3       8 UNK        -0.2001 
     47 N         -50.0669  -27.4157   14.6708 N.am      8 UNK        -0.4140 
     48 C         -49.5130  -26.4548   15.4225 C.2       8 UNK         0.5028 
     49 O         -49.9002  -26.1655   16.5554 O.2       8 UNK        -0.5428 
     50 CA        -48.3676  -25.6497   14.7800 C.3       7 UNK         0.0264 
     51 CB        -47.0169  -26.3411   15.0252 C.3       7 UNK        -0.1988 
     52 N         -48.5337  -25.3970   13.3410 N.am      7 UNK        -0.4454 
     53 C         -49.5774  -24.7557   12.7918 C.2       7 UNK         0.5027 
     54 O         -50.5596  -24.4037   13.4447 O.2       7 UNK        -0.5083 
     55 CA        -49.5345  -24.4797   11.2713 C.3       6 UNK         0.0844 
     56 C56       -50.5002  -23.3336   10.8555 C.3       14 UNK        -0.0967 
     57 S57       -50.5962  -23.1037    9.0450 S.3       14 UNK        -0.2604 
     58 C58       -52.2403  -23.7900    8.6682 C.3       14 UNK         0.0134 
     59 N         -48.1755  -24.2893   10.7514 N.am      6 UNK        -0.4116 
     60 C         -47.3109  -23.3148   11.0648 C.2       5 UNK         0.5034 
     61 O         -47.4783  -22.5069   11.9785 O.2       5 UNK        -0.5045 
     62 CA        -46.0620  -23.1895   10.1722 C.3       5 UNK         0.0224 
     63 CB        -45.0226  -24.2836   10.4909 C.3       5 UNK        -0.1978 
     64 N         -46.3819  -23.1272    8.7354 N.am      5 UNK        -0.4737 
     65 C         -46.8891  -24.0883    7.9506 C.2       4 UNK         0.5027 
     66 O         -47.0890  -25.2421    8.3347 O.2       4 UNK        -0.5211 
     67 CA        -47.3040  -23.6991    6.5214 C.3       4 UNK         0.0297 
     68 CB        -47.4533  -22.1777    6.2889 C.3       4 UNK        -0.1993 
     69 N         -46.4437  -24.3180    5.5088 N.am      4 UNK        -0.4486 
     70 C         -45.1409  -24.0846    5.2816 C.2       3 UNK         0.4961 
     71 O         -44.4734  -23.2806    5.9329 O.2       3 UNK        -0.5105 
     72 CA        -44.4579  -24.8697    4.1384 C.3       3 UNK         0.0299 
     73 CB        -43.0077  -25.2550    4.4849 C.3       3 UNK        -0.1972 
     74 N         -45.1933  -26.0817    3.7698 N.am      3 UNK        -0.4305 
     75 C         -46.1018  -26.1743    2.7872 C.2       2 UNK         0.5006 
     76 O         -46.3580  -25.2641    1.9993 O.2       2 UNK        -0.5106 
     77 CA        -46.8976  -27.4925    2.7014 C.3       2 UNK         0.0296 
     78 CB        -46.2283  -28.4653    1.7175 C.3       2 UNK        -0.2002 
     79 N         -47.0554  -28.1477    4.0050 N.am      2 UNK        -0.4032 
     80 C         -47.7089  -27.6138    5.0473 C.2       1 UNK         0.5000 
     81 O         -48.3456  -26.5600    4.9800 O.2       1 UNK        -0.5238 
     82 H82       -44.4774  -27.1211    8.8036 H         1 UNK         0.0889 
     83 H83       -44.1887  -25.9259    7.5366 H         1 UNK         0.0889 
     84 H84       -43.1647  -27.3623    7.6519 H         1 UNK         0.0889 
     85 H85       -46.7230  -27.0420    7.8665 H         1 UNK         0.3028 
     86 H86       -47.2563  -29.3627    6.2251 H         1 UNK         0.0864 
     87 H87       -48.5832  -28.6511    8.2765 H         1 UNK         0.0720 
     88 H88       -49.1794  -27.2812    7.3935 H         1 UNK         0.0720 
     89 H89       -52.3418  -28.7470    5.9345 H         1 UNK         0.0814 
     90 H90       -51.1591  -27.5274    5.5233 H         1 UNK         0.0814 
     91 H91       -51.5873  -25.5004    6.6608 H         1 UNK         0.1469 
     92 H92       -52.8726  -25.4501   10.7510 H         1 UNK         0.1381 
     93 H93       -52.2565  -29.1871    8.7465 H         1 UNK         0.1206 
     94 H94       -52.4539  -27.6186   12.0164 H         1 UNK         0.0813 
     95 H95       -52.4379  -29.1290   11.1387 H         1 UNK         0.0813 
     96 H96       -53.8400  -29.7446   13.2287 H         1 UNK         0.0638 
     97 H97       -54.4342  -30.6605   11.8682 H         1 UNK         0.0638 
     98 H98       -56.7849  -30.0535   12.5309 H         1 UNK         0.0568 
     99 H99       -56.4576  -30.8735   15.8245 H         1 UNK         0.3450 
    100 H100      -56.3089  -32.5931   15.5682 H         1 UNK         0.3450 
    101 H101      -55.4718  -28.5758   14.7093 H         1 UNK         0.2987 
    102 H102      -57.4817  -26.6062   15.2654 H         1 UNK         0.0766 
    103 H103      -59.8020  -27.3462   15.6807 H         1 UNK         0.0798 
    104 H104      -59.0828  -26.7905   17.1813 H         1 UNK         0.0798 
    105 H105      -59.2573  -28.5178   16.8728 H         1 UNK         0.0798 
    106 H106      -56.0306  -26.8412   16.8988 H         1 UNK         0.3198 
    107 H107      -55.5328  -28.5993   19.5171 H         1 UNK         0.0843 
    108 H108      -53.7669  -29.9864   17.4241 H         1 UNK         0.0831 
    109 H109      -54.7055  -30.7725   18.6843 H         1 UNK         0.0831 
    110 H110      -53.3353  -29.7673   19.1201 H         1 UNK         0.0831 
    111 H111      -53.7633  -27.4456   17.4104 H         1 UNK         0.3133 
    112 H112      -54.1659  -24.1849   18.6241 H         1 UNK         0.0566 
    113 H113      -51.6940  -24.0575   18.8460 H         1 UNK         0.0814 
    114 H114      -51.5874  -25.8124   18.9767 H         1 UNK         0.0814 
    115 H115      -52.3808  -24.8779   20.2380 H         1 UNK         0.0814 
    116 H116      -52.3711  -25.2910   16.6939 H         1 UNK         0.3091 
    117 H117      -54.6538  -26.0384   14.1296 H         1 UNK         0.0702 
    118 H118      -53.3663  -24.3820   12.7617 H         1 UNK         0.0785 
    119 H119      -52.9092  -23.5219   14.2321 H         1 UNK         0.0785 
    120 H120      -54.5943  -23.6050   13.7449 H         1 UNK         0.0785 
    121 H121      -51.7869  -25.8209   14.2255 H         1 UNK         0.2998 
    122 H122      -51.0520  -28.5083   16.1389 H         1 UNK         0.0697 
    123 H123      -51.2873  -29.4014   13.2241 H         1 UNK         0.0825 
    124 H124      -51.9871  -30.2266   14.6136 H         1 UNK         0.0825 
    125 H125      -50.2479  -30.1076   14.4544 H         1 UNK         0.0825 
    126 H126      -49.6910  -27.5772   13.7477 H         1 UNK         0.3029 
    127 H127      -48.3456  -24.6769   15.2762 H         1 UNK         0.0897 
    128 H128      -46.9569  -27.3051   14.5185 H         1 UNK         0.0792 
    129 H129      -46.8588  -26.5219   16.0896 H         1 UNK         0.0792 
    130 H130      -46.1867  -25.7257   14.6776 H         1 UNK         0.0792 
    131 H131      -47.7662  -25.6586   12.7391 H         1 UNK         0.3086 
    132 H132      -49.8969  -25.3971   10.8056 H         1 UNK         0.0583 
    133 H133      -51.5051  -23.5101   11.2408 H         1 UNK         0.1020 
    134 H134      -50.1810  -22.3900   11.3015 H         1 UNK         0.1020 
    135 H135      -52.9808  -23.3892    9.3621 H         1 UNK         0.0694 
    136 H136      -52.5412  -23.4456    7.6776 H         1 UNK         0.0694 
    137 H137      -47.9245  -24.8655    9.9513 H         1 UNK         0.2989 
    138 H138      -45.6032  -22.2288   10.4129 H         1 UNK         0.1055 
    139 H139      -45.4173  -25.2882   10.3402 H         1 UNK         0.0806 
    140 H140      -44.7007  -24.2187   11.5310 H         1 UNK         0.0806 
    141 H141      -44.1335  -24.1771    9.8693 H         1 UNK         0.0806 
    142 H142      -46.2675  -22.2155    8.3140 H         1 UNK         0.3061 
    143 H143      -48.2931  -24.1379    6.3787 H         1 UNK         0.0734 
    144 H144      -46.5075  -21.6425    6.3741 H         1 UNK         0.0832 
    145 H145      -47.8546  -21.9752    5.2959 H         1 UNK         0.0832 
    146 H146      -48.1490  -21.7396    7.0063 H         1 UNK         0.0832 
    147 H147      -46.9051  -25.0377    4.9633 H         1 UNK         0.3156 
    148 H148      -44.4189  -24.1942    3.2816 H         1 UNK         0.0589 
    149 H149      -42.9565  -25.9141    5.3509 H         1 UNK         0.0808 
    150 H150      -42.5257  -25.7648    3.6506 H         1 UNK         0.0808 
    151 H151      -42.4064  -24.3729    4.7093 H         1 UNK         0.0808 
    152 H152      -45.0449  -26.8923    4.3625 H         1 UNK         0.3098 
    153 H153      -47.8942  -27.2524    2.3249 H         1 UNK         0.0720 
    154 H154      -46.8208  -29.3715    1.5901 H         1 UNK         0.0791 
    155 H155      -45.2323  -28.7582    2.0524 H         1 UNK         0.0791 
    156 H156      -46.1201  -28.0097    0.7321 H         1 UNK         0.0791 
    157 H157      -46.5099  -28.9848    4.1595 H         1 UNK         0.3028 
@<TRIPOS>BOND
     1    1    2 1    
     2    1   82 1    
     3    1   83 1    
     4    1   84 1    
     5    2    3 2    
     6    2    4 am   BACKBONE|DICT|INTERRES
     7    4    5 1    
     8    4   85 1    
     9    5    6 1    
    10    5   80 1    
    11    5   86 1    
    12    6    7 1    
    13    6   87 1    
    14    6   88 1    
    15    7    8 1    
    16    8    9 1    
    17    8   89 1    
    18    8   90 1    
    19    9   10 ar   
    20    9   14 ar   
    21   10   11 ar   
    22   10   91 1    
    23   11   12 ar   
    24   11   58 1    
    25   12   13 ar   
    26   12   92 1    
    27   13   14 ar   
    28   13   15 1    
    29   14   93 1    
    30   15   16 1    
    31   15   94 1    
    32   15   95 1    
    33   16   17 1    
    34   17   18 1    
    35   17   96 1    
    36   17   97 1    
    37   18   19 1    
    38   18   22 1    
    39   18   98 1    
    40   19   20 am   BACKBONE|DICT|INTERRES
    41   19   21 2    
    42   20   99 1    
    43   20  100 1    
    44   22   23 am   BACKBONE|DICT|INTERRES
    45   22  101 1    
    46   23   24 2    
    47   23   25 1    
    48   25   26 1    
    49   25   27 1    
    50   25  102 1    
    51   26  103 1    
    52   26  104 1    
    53   26  105 1    
    54   27   28 am   BACKBONE|DICT|INTERRES
    55   27  106 1    
    56   28   29 2    
    57   28   30 1    
    58   30   31 1    
    59   30   32 1    
    60   30  107 1    
    61   31  108 1    
    62   31  109 1    
    63   31  110 1    
    64   32   33 am   BACKBONE|DICT|INTERRES
    65   32  111 1    
    66   33   34 2    
    67   33   35 1    
    68   35   36 1    
    69   35   37 1    
    70   35  112 1    
    71   36  113 1    
    72   36  114 1    
    73   36  115 1    
    74   37   38 am   BACKBONE|DICT|INTERRES
    75   37  116 1    
    76   38   39 2    
    77   38   40 1    
    78   40   41 1    
    79   40   42 1    
    80   40  117 1    
    81   41  118 1    
    82   41  119 1    
    83   41  120 1    
    84   42   43 am   BACKBONE|DICT|INTERRES
    85   42  121 1    
    86   43   44 2    
    87   43   45 1    
    88   45   46 1    
    89   45   47 1    
    90   45  122 1    
    91   46  123 1    
    92   46  124 1    
    93   46  125 1    
    94   47   48 am   BACKBONE|DICT|INTERRES
    95   47  126 1    
    96   48   49 2    
    97   48   50 1    
    98   50   51 1    
    99   50   52 1    
   100   50  127 1    
   101   51  128 1    
   102   51  129 1    
   103   51  130 1    
   104   52   53 am   BACKBONE|DICT|INTERRES
   105   52  131 1    
   106   53   54 2    
   107   53   55 1    
   108   55   56 1    
   109   55   59 1    
   110   55  132 1    
   111   56   57 1    
   112   56  133 1    
   113   56  134 1    
   114   57   58 1    
   115   58  135 1    
   116   58  136 1    
   117   59   60 am   BACKBONE|DICT|INTERRES
   118   59  137 1    
   119   60   61 2    
   120   60   62 1    
   121   62   63 1    
   122   62   64 1    
   123   62  138 1    
   124   63  139 1    
   125   63  140 1    
   126   63  141 1    
   127   64   65 am   BACKBONE|DICT|INTERRES
   128   64  142 1    
   129   65   66 2    
   130   65   67 1    
   131   67   68 1    
   132   67   69 1    
   133   67  143 1    
   134   68  144 1    
   135   68  145 1    
   136   68  146 1    
   137   69   70 am   BACKBONE|DICT|INTERRES
   138   69  147 1    
   139   70   71 2    
   140   70   72 1    
   141   72   73 1    
   142   72   74 1    
   143   72  148 1    
   144   73  149 1    
   145   73  150 1    
   146   73  151 1    
   147   74   75 am   BACKBONE|DICT|INTERRES
   148   74  152 1    
   149   75   76 2    
   150   75   77 1    
   151   77   78 1    
   152   77   79 1    
   153   77  153 1    
   154   78  154 1    
   155   78  155 1    
   156   78  156 1    
   157   79   80 am   BACKBONE|DICT|INTERRES
   158   79  157 1    
   159   80   81 2    
@<TRIPOS>SUBSTRUCTURE
     1 UNK         1 GROUP             0       ****    0 ROOT    
