@<TRIPOS>MOLECULE
3R207
157   159    1
SMALL
USER_CHARGES


@<TRIPOS>ATOM
      1 CA        -51.5235  -25.7934    2.9260 C.3       0 UNK        -0.1975 
      2 C         -51.5230  -25.9405    4.4400 C.2       0 UNK         0.4852 
      3 O         -52.2935  -25.2632    5.1229 O.2       0 UNK        -0.5216 
      4 N         -50.6580  -26.8119    4.9755 N.am      1 UNK        -0.4461 
      5 CA        -50.5102  -27.1046    6.4065 C.3       1 UNK         0.0864 
      6 C6        -49.8530  -28.4901    6.6367 C.3       14 UNK        -0.0898 
      7 S7        -51.0024  -29.8378    6.2024 S.3       14 UNK        -0.2598 
      8 C8        -50.2252  -31.2821    6.9982 C.3       14 UNK         0.0286 
      9 C9        -50.1303  -31.1496    8.5137 C.ar      14 UNK        -0.0844 
     10 C10       -48.8806  -31.0295    9.1277 C.ar      14 UNK        -0.0881 
     11 C11       -48.7755  -30.9326   10.5177 C.ar      14 UNK        -0.0643 
     12 C12       -49.9368  -30.9342   11.2978 C.ar      14 UNK        -0.0930 
     13 C13       -51.1955  -31.0620   10.6978 C.ar      14 UNK        -0.0827 
     14 C14       -51.2828  -31.1778    9.3054 C.ar      14 UNK        -0.1249 
     15 C15       -52.4559  -31.1142   11.5545 C.3       14 UNK         0.0141 
     16 S16       -53.5938  -29.7446   11.1814 S.3       14 UNK        -0.2313 
     17 C17       -54.8733  -29.9986   12.4509 C.3       14 UNK        -0.0915 
     18 CA        -56.0169  -28.9551   12.3395 C.3       13 UNK         0.0968 
     19 C         -57.2385  -29.3448   13.2259 C.2       13 UNK         0.5732 
     20 N         -57.7375  -28.4954   14.1167 N.am      13 UNK        -0.7310 
     21 O         -57.7662  -30.4460   13.0858 O.2       13 UNK        -0.5035 
     22 N         -55.5221  -27.5856   12.5485 N.am      13 UNK        -0.4233 
     23 C         -56.1170  -26.4756   12.0969 C.2       13 UNK         0.4989 
     24 O         -57.1036  -26.4789   11.3579 O.2       13 UNK        -0.4996 
     25 CA        -55.5145  -25.1403   12.5809 C.3       12 UNK         0.0216 
     26 CB        -56.4147  -23.9231   12.2798 C.3       12 UNK        -0.1964 
     27 N         -55.1423  -25.1734   14.0039 N.am      12 UNK        -0.4276 
     28 C         -55.9526  -25.4305   15.0415 C.2       12 UNK         0.5020 
     29 O         -57.1594  -25.6553   14.9285 O.2       12 UNK        -0.5489 
     30 CA        -55.2935  -25.4697   16.4339 C.3       11 UNK         0.0294 
     31 CB        -56.2341  -26.0248   17.5248 C.3       11 UNK        -0.2019 
     32 N         -54.0124  -26.1855   16.4558 N.am      11 UNK        -0.4493 
     33 C         -53.7683  -27.4559   16.0997 C.2       11 UNK         0.4932 
     34 O         -54.6309  -28.2111   15.6506 O.2       11 UNK        -0.5029 
     35 CA        -52.3234  -27.9769   16.2807 C.3       10 UNK         0.0280 
     36 CB        -52.0303  -29.1883   15.3745 C.3       10 UNK        -0.1976 
     37 N         -51.2992  -26.9524   16.0481 N.am      10 UNK        -0.4242 
     38 C         -50.9445  -25.9777   16.8973 C.2       10 UNK         0.5072 
     39 O         -51.4086  -25.8620   18.0315 O.2       10 UNK        -0.5224 
     40 CA        -49.9795  -24.9012   16.3663 C.3       9 UNK         0.0343 
     41 CB        -48.5180  -25.3532   16.5090 C.3       9 UNK        -0.2003 
     42 N         -50.2512  -24.5298   14.9741 N.am      9 UNK        -0.4272 
     43 C         -51.4018  -23.9964   14.5324 C.2       9 UNK         0.4988 
     44 O         -52.3482  -23.6899   15.2584 O.2       9 UNK        -0.5108 
     45 CA        -51.5489  -23.8419   13.0113 C.3       8 UNK         0.0248 
     46 CB        -50.8383  -22.5770   12.5032 C.3       8 UNK        -0.2001 
     47 N         -51.0509  -25.0186   12.2986 N.am      8 UNK        -0.4140 
     48 C         -51.6132  -26.2347   12.3573 C.2       8 UNK         0.5028 
     49 O         -52.6409  -26.4892   12.9837 O.2       8 UNK        -0.5428 
     50 CA        -50.8834  -27.3605   11.6145 C.3       7 UNK         0.0264 
     51 CB        -51.2141  -27.3075   10.1191 C.3       7 UNK        -0.1988 
     52 N         -49.4328  -27.3177   11.8027 N.am      7 UNK        -0.4454 
     53 C         -48.8258  -27.5299   12.9790 C.2       7 UNK         0.5027 
     54 O         -49.4281  -27.8075   14.0147 O.2       7 UNK        -0.5083 
     55 CA        -47.2953  -27.3547   13.0294 C.3       6 UNK         0.0844 
     56 C56       -46.5495  -28.6831   12.7616 C.3       14 UNK        -0.0967 
     57 S57       -46.6235  -29.2466   11.0217 S.3       14 UNK        -0.2604 
     58 C58       -47.3996  -30.8884   11.1659 C.3       14 UNK         0.0134 
     59 N         -46.7984  -26.2602   12.1919 N.am      6 UNK        -0.4116 
     60 C         -47.1613  -24.9751   12.2710 C.2       5 UNK         0.5034 
     61 O         -48.0111  -24.5586   13.0594 O.2       5 UNK        -0.5045 
     62 CA        -46.4944  -23.9801   11.3030 C.3       5 UNK         0.0224 
     63 CB        -45.2740  -23.3108   11.9627 C.3       5 UNK        -0.1978 
     64 N         -46.1591  -24.5152    9.9718 N.am      5 UNK        -0.4737 
     65 C         -45.2648  -25.4574    9.6294 C.2       4 UNK         0.5027 
     66 O         -44.5651  -26.0538   10.4478 O.2       4 UNK        -0.5211 
     67 CA        -45.1483  -25.8364    8.1405 C.3       4 UNK         0.0297 
     68 CB        -45.4955  -27.3212    7.9327 C.3       4 UNK        -0.1993 
     69 N         -46.0146  -25.0229    7.2839 N.am      4 UNK        -0.4486 
     70 C         -45.6527  -23.8657    6.7097 C.2       3 UNK         0.4961 
     71 O         -44.5165  -23.3964    6.7792 O.2       3 UNK        -0.5105 
     72 CA        -46.7364  -23.0803    5.9419 C.3       3 UNK         0.0299 
     73 CB        -46.6461  -23.3768    4.4363 C.3       3 UNK        -0.1972 
     74 N         -48.1031  -23.3455    6.4008 N.am      3 UNK        -0.4305 
     75 C         -48.5687  -23.0911    7.6322 C.2       2 UNK         0.5006 
     76 O         -47.9130  -22.5257    8.5065 O.2       2 UNK        -0.5106 
     77 CA        -49.9755  -23.6113    7.9768 C.3       2 UNK         0.0296 
     78 CB        -51.0185  -22.4942    7.8204 C.3       2 UNK        -0.2002 
     79 N         -50.4066  -24.7898    7.2138 N.am      2 UNK        -0.4032 
     80 C         -49.7685  -25.9672    7.1406 C.2       1 UNK         0.5000 
     81 O         -48.6529  -26.1625    7.6260 O.2       1 UNK        -0.5238 
     82 H82       -50.7924  -26.4482    2.4521 H         1 UNK         0.0889 
     83 H83       -51.2894  -24.7660    2.6488 H         1 UNK         0.0889 
     84 H84       -52.5072  -26.0387    2.5267 H         1 UNK         0.0889 
     85 H85       -50.0476  -27.3361    4.3647 H         1 UNK         0.3028 
     86 H86       -51.5075  -27.1408    6.8519 H         1 UNK         0.0864 
     87 H87       -48.9333  -28.5931    6.0581 H         1 UNK         0.0720 
     88 H88       -49.5676  -28.6121    7.6819 H         1 UNK         0.0720 
     89 H89       -49.2390  -31.4384    6.5584 H         1 UNK         0.0814 
     90 H90       -50.8090  -32.1713    6.7565 H         1 UNK         0.0814 
     91 H91       -47.9817  -31.0246    8.5261 H         1 UNK         0.1469 
     92 H92       -49.8576  -30.8575   12.3737 H         1 UNK         0.1381 
     93 H93       -52.2516  -31.2816    8.8360 H         1 UNK         0.1206 
     94 H94       -52.2015  -31.0826   12.6151 H         1 UNK         0.0813 
     95 H95       -52.9665  -32.0629   11.3842 H         1 UNK         0.0813 
     96 H96       -54.4110  -29.9553   13.4385 H         1 UNK         0.0638 
     97 H97       -55.2578  -31.0130   12.3303 H         1 UNK         0.0638 
     98 H98       -56.3923  -29.0069   11.3158 H         1 UNK         0.0568 
     99 H99       -58.5311  -28.7779   14.6680 H         1 UNK         0.3450 
    100 H100      -57.3373  -27.5739   14.2515 H         1 UNK         0.3450 
    101 H101      -54.7036  -27.4907   13.1375 H         1 UNK         0.2987 
    102 H102      -54.5912  -25.0060   12.0173 H         1 UNK         0.0766 
    103 H103      -55.9499  -22.9949   12.6121 H         1 UNK         0.0798 
    104 H104      -57.3859  -24.0062   12.7688 H         1 UNK         0.0798 
    105 H105      -56.5974  -23.8276   11.2088 H         1 UNK         0.0798 
    106 H106      -54.1508  -25.0920   14.1961 H         1 UNK         0.3198 
    107 H107      -55.0674  -24.4330   16.6883 H         1 UNK         0.0843 
    108 H108      -56.5349  -27.0516   17.3130 H         1 UNK         0.0831 
    109 H109      -57.1443  -25.4282   17.5978 H         1 UNK         0.0831 
    110 H110      -55.7587  -26.0093   18.5054 H         1 UNK         0.0831 
    111 H111      -53.2263  -25.6544   16.8112 H         1 UNK         0.3133 
    112 H112      -52.2397  -28.3123   17.3161 H         1 UNK         0.0566 
    113 H113      -52.1351  -28.9314   14.3197 H         1 UNK         0.0814 
    114 H114      -51.0188  -29.5644   15.5278 H         1 UNK         0.0814 
    115 H115      -52.7141  -30.0126   15.5803 H         1 UNK         0.0814 
    116 H116      -50.8270  -27.0001   15.1499 H         1 UNK         0.3091 
    117 H117      -50.1178  -24.0044   16.9737 H         1 UNK         0.0702 
    118 H118      -47.8278  -24.5884   16.1521 H         1 UNK         0.0785 
    119 H119      -48.3218  -26.2685   15.9516 H         1 UNK         0.0785 
    120 H120      -48.2733  -25.5509   17.5534 H         1 UNK         0.0785 
    121 H121      -49.5111  -24.7041   14.2997 H         1 UNK         0.2998 
    122 H122      -52.6124  -23.7397   12.7878 H         1 UNK         0.0697 
    123 H123      -49.7657  -22.6028   12.6959 H         1 UNK         0.0825 
    124 H124      -51.2337  -21.6874   12.9954 H         1 UNK         0.0825 
    125 H125      -50.9833  -22.4434   11.4309 H         1 UNK         0.0825 
    126 H126      -50.1723  -24.9181   11.8127 H         1 UNK         0.3029 
    127 H127      -51.2406  -28.3081   12.0191 H         1 UNK         0.0897 
    128 H128      -52.2915  -27.3438    9.9532 H         1 UNK         0.0792 
    129 H129      -50.7784  -28.1552    9.5920 H         1 UNK         0.0792 
    130 H130      -50.8484  -26.3874    9.6684 H         1 UNK         0.0792 
    131 H131      -48.8598  -27.1339   10.9917 H         1 UNK         0.3086 
    132 H132      -47.0609  -27.0662   14.0557 H         1 UNK         0.0583 
    133 H133      -45.4958  -28.5569   13.0152 H         1 UNK         0.1020 
    134 H134      -46.9108  -29.4577   13.4398 H         1 UNK         0.1020 
    135 H135      -46.7520  -31.6153   10.6734 H         1 UNK         0.0694 
    136 H136      -47.4588  -31.2100   12.2059 H         1 UNK         0.0694 
    137 H137      -46.0588  -26.4923   11.5345 H         1 UNK         0.2989 
    138 H138      -47.2340  -23.1977   11.1229 H         1 UNK         0.1055 
    139 H139      -45.5556  -22.8261   12.8986 H         1 UNK         0.0806 
    140 H140      -44.8466  -22.5436   11.3171 H         1 UNK         0.0806 
    141 H141      -44.4882  -24.0299   12.1957 H         1 UNK         0.0806 
    142 H142      -46.6787  -24.0832    9.2157 H         1 UNK         0.3061 
    143 H143      -44.1057  -25.6916    7.8497 H         1 UNK         0.0734 
    144 H144      -45.4174  -27.6061    6.8836 H         1 UNK         0.0832 
    145 H145      -44.8154  -27.9638    8.4936 H         1 UNK         0.0832 
    146 H146      -46.5064  -27.5533    8.2695 H         1 UNK         0.0832 
    147 H147      -46.9798  -25.3384    7.2115 H         1 UNK         0.3156 
    148 H148      -46.5382  -22.0173    6.0943 H         1 UNK         0.0589 
    149 H149      -46.8584  -24.4241    4.2171 H         1 UNK         0.0808 
    150 H150      -47.3455  -22.7643    3.8670 H         1 UNK         0.0808 
    151 H151      -45.6466  -23.1611    4.0557 H         1 UNK         0.0808 
    152 H152      -48.7160  -23.8158    5.7515 H         1 UNK         0.3098 
    153 H153      -49.9523  -23.9059    9.0280 H         1 UNK         0.0720 
    154 H154      -51.9976  -22.8124    8.1792 H         1 UNK         0.0791 
    155 H155      -51.1258  -22.1860    6.7795 H         1 UNK         0.0791 
    156 H156      -50.7366  -21.6111    8.3960 H         1 UNK         0.0791 
    157 H157      -51.2866  -24.7159    6.7097 H         1 UNK         0.3028 
@<TRIPOS>BOND
     1    1    2 1    
     2    1   82 1    
     3    1   83 1    
     4    1   84 1    
     5    2    3 2    
     6    2    4 am   BACKBONE|DICT|INTERRES
     7    4    5 1    
     8    4   85 1    
     9    5    6 1    
    10    5   80 1    
    11    5   86 1    
    12    6    7 1    
    13    6   87 1    
    14    6   88 1    
    15    7    8 1    
    16    8    9 1    
    17    8   89 1    
    18    8   90 1    
    19    9   10 ar   
    20    9   14 ar   
    21   10   11 ar   
    22   10   91 1    
    23   11   12 ar   
    24   11   58 1    
    25   12   13 ar   
    26   12   92 1    
    27   13   14 ar   
    28   13   15 1    
    29   14   93 1    
    30   15   16 1    
    31   15   94 1    
    32   15   95 1    
    33   16   17 1    
    34   17   18 1    
    35   17   96 1    
    36   17   97 1    
    37   18   19 1    
    38   18   22 1    
    39   18   98 1    
    40   19   20 am   BACKBONE|DICT|INTERRES
    41   19   21 2    
    42   20   99 1    
    43   20  100 1    
    44   22   23 am   BACKBONE|DICT|INTERRES
    45   22  101 1    
    46   23   24 2    
    47   23   25 1    
    48   25   26 1    
    49   25   27 1    
    50   25  102 1    
    51   26  103 1    
    52   26  104 1    
    53   26  105 1    
    54   27   28 am   BACKBONE|DICT|INTERRES
    55   27  106 1    
    56   28   29 2    
    57   28   30 1    
    58   30   31 1    
    59   30   32 1    
    60   30  107 1    
    61   31  108 1    
    62   31  109 1    
    63   31  110 1    
    64   32   33 am   BACKBONE|DICT|INTERRES
    65   32  111 1    
    66   33   34 2    
    67   33   35 1    
    68   35   36 1    
    69   35   37 1    
    70   35  112 1    
    71   36  113 1    
    72   36  114 1    
    73   36  115 1    
    74   37   38 am   BACKBONE|DICT|INTERRES
    75   37  116 1    
    76   38   39 2    
    77   38   40 1    
    78   40   41 1    
    79   40   42 1    
    80   40  117 1    
    81   41  118 1    
    82   41  119 1    
    83   41  120 1    
    84   42   43 am   BACKBONE|DICT|INTERRES
    85   42  121 1    
    86   43   44 2    
    87   43   45 1    
    88   45   46 1    
    89   45   47 1    
    90   45  122 1    
    91   46  123 1    
    92   46  124 1    
    93   46  125 1    
    94   47   48 am   BACKBONE|DICT|INTERRES
    95   47  126 1    
    96   48   49 2    
    97   48   50 1    
    98   50   51 1    
    99   50   52 1    
   100   50  127 1    
   101   51  128 1    
   102   51  129 1    
   103   51  130 1    
   104   52   53 am   BACKBONE|DICT|INTERRES
   105   52  131 1    
   106   53   54 2    
   107   53   55 1    
   108   55   56 1    
   109   55   59 1    
   110   55  132 1    
   111   56   57 1    
   112   56  133 1    
   113   56  134 1    
   114   57   58 1    
   115   58  135 1    
   116   58  136 1    
   117   59   60 am   BACKBONE|DICT|INTERRES
   118   59  137 1    
   119   60   61 2    
   120   60   62 1    
   121   62   63 1    
   122   62   64 1    
   123   62  138 1    
   124   63  139 1    
   125   63  140 1    
   126   63  141 1    
   127   64   65 am   BACKBONE|DICT|INTERRES
   128   64  142 1    
   129   65   66 2    
   130   65   67 1    
   131   67   68 1    
   132   67   69 1    
   133   67  143 1    
   134   68  144 1    
   135   68  145 1    
   136   68  146 1    
   137   69   70 am   BACKBONE|DICT|INTERRES
   138   69  147 1    
   139   70   71 2    
   140   70   72 1    
   141   72   73 1    
   142   72   74 1    
   143   72  148 1    
   144   73  149 1    
   145   73  150 1    
   146   73  151 1    
   147   74   75 am   BACKBONE|DICT|INTERRES
   148   74  152 1    
   149   75   76 2    
   150   75   77 1    
   151   77   78 1    
   152   77   79 1    
   153   77  153 1    
   154   78  154 1    
   155   78  155 1    
   156   78  156 1    
   157   79   80 am   BACKBONE|DICT|INTERRES
   158   79  157 1    
   159   80   81 2    
@<TRIPOS>SUBSTRUCTURE
     1 UNK         1 GROUP             0       ****    0 ROOT    
