@<TRIPOS>MOLECULE
3R207
157   159    1
SMALL
USER_CHARGES


@<TRIPOS>ATOM
      1 CA        -50.7508  -25.5579    8.2199 C.3       0 UNK        -0.1975 
      2 C         -49.6011  -26.4820    7.8584 C.2       0 UNK         0.4852 
      3 O         -48.5965  -26.5221    8.5684 O.2       0 UNK        -0.5216 
      4 N         -49.7661  -27.2140    6.7506 N.am      1 UNK        -0.4461 
      5 CA        -48.9003  -28.2942    6.2657 C.3       1 UNK         0.0864 
      6 C6        -49.4507  -29.0077    4.9971 C.3       14 UNK        -0.0898 
      7 S7        -51.2732  -29.1316    4.8915 S.3       14 UNK        -0.2598 
      8 C8        -51.6438  -30.6015    5.9020 C.3       14 UNK         0.0286 
      9 C9        -51.5430  -30.3014    7.3906 C.ar      14 UNK        -0.0844 
     10 C10       -50.5062  -30.8462    8.1522 C.ar      14 UNK        -0.0881 
     11 C11       -50.3862  -30.5385    9.5099 C.ar      14 UNK        -0.0643 
     12 C12       -51.3340  -29.7065   10.1155 C.ar      14 UNK        -0.0930 
     13 C13       -52.3803  -29.1617    9.3660 C.ar      14 UNK        -0.0827 
     14 C14       -52.4808  -29.4655    8.0051 C.ar      14 UNK        -0.1249 
     15 C15       -53.3843  -28.2175   10.0103 C.3       14 UNK         0.0141 
     16 S16       -54.9312  -29.0705   10.4398 S.3       14 UNK        -0.2313 
     17 C17       -54.5183  -29.8354   12.0449 C.3       14 UNK        -0.0915 
     18 CA        -55.6158  -29.5664   13.1120 C.3       13 UNK         0.0968 
     19 C         -55.4104  -30.4050   14.4076 C.2       13 UNK         0.5732 
     20 N         -55.6797  -29.8777   15.5971 N.am      13 UNK        -0.7310 
     21 O         -55.0178  -31.5674   14.3391 O.2       13 UNK        -0.5035 
     22 N         -55.7556  -28.1300   13.3936 N.am      13 UNK        -0.4233 
     23 C         -56.8902  -27.4263   13.3119 C.2       13 UNK         0.4989 
     24 O         -57.9583  -27.8900   12.9066 O.2       13 UNK        -0.4996 
     25 CA        -56.8186  -25.9550   13.7746 C.3       12 UNK         0.0216 
     26 CB        -58.2107  -25.3376   14.0263 C.3       12 UNK        -0.1964 
     27 N         -55.9497  -25.7443   14.9409 N.am      12 UNK        -0.4276 
     28 C         -56.0346  -26.3418   16.1420 C.2       12 UNK         0.5020 
     29 O         -56.8875  -27.1857   16.4213 O.2       12 UNK        -0.5489 
     30 CA        -54.9742  -25.9826   17.2023 C.3       11 UNK         0.0294 
     31 CB        -54.3693  -27.2516   17.8308 C.3       11 UNK        -0.2019 
     32 N         -53.8863  -25.1797   16.6438 N.am      11 UNK        -0.4493 
     33 C         -53.7911  -23.8448   16.6969 C.2       11 UNK         0.4932 
     34 O         -54.5872  -23.1231   17.2969 O.2       11 UNK        -0.5029 
     35 CA        -52.6232  -23.2018   15.9247 C.3       10 UNK         0.0280 
     36 CB        -51.4702  -22.8577   16.8807 C.3       10 UNK        -0.1976 
     37 N         -52.1209  -24.0488   14.8364 N.am      10 UNK        -0.4242 
     38 C         -52.8008  -24.3073   13.7069 C.2       10 UNK         0.5072 
     39 O         -53.9059  -23.8277   13.4535 O.2       10 UNK        -0.5224 
     40 CA        -52.1891  -25.3296   12.7318 C.3       9 UNK         0.0343 
     41 CB        -51.2444  -24.6337   11.7414 C.3       9 UNK        -0.2003 
     42 N         -51.4736  -26.4104   13.4165 N.am      9 UNK        -0.4272 
     43 C         -52.0525  -27.2781   14.2626 C.2       9 UNK         0.4988 
     44 O         -53.2672  -27.3186   14.4506 O.2       9 UNK        -0.5108 
     45 CA        -51.1557  -28.2304   15.0761 C.3       8 UNK         0.0248 
     46 CB        -51.2901  -29.6701   14.5552 C.3       8 UNK        -0.2001 
     47 N         -49.7395  -27.8582   15.1115 N.am      8 UNK        -0.4140 
     48 C         -49.2352  -26.7111   15.5923 C.2       8 UNK         0.5028 
     49 O         -49.9158  -25.8295   16.1174 O.2       8 UNK        -0.5428 
     50 CA        -47.7285  -26.4811   15.3684 C.3       7 UNK         0.0264 
     51 CB        -46.9199  -26.9784   16.5768 C.3       7 UNK        -0.1988 
     52 N         -47.2284  -27.1196   14.1419 N.am      7 UNK        -0.4454 
     53 C         -47.6533  -26.8128   12.9070 C.2       7 UNK         0.5027 
     54 O         -48.4757  -25.9262   12.6705 O.2       7 UNK        -0.5083 
     55 CA        -47.1679  -27.7120   11.7585 C.3       6 UNK         0.0844 
     56 C56       -48.3285  -28.6242   11.2970 C.3       14 UNK        -0.0967 
     57 S57       -47.7728  -29.9781   10.2144 S.3       14 UNK        -0.2604 
     58 C58       -49.2143  -31.0888   10.3081 C.3       14 UNK         0.0134 
     59 N         -46.6639  -26.8706   10.6751 N.am      6 UNK        -0.4116 
     60 C         -45.4677  -26.2688   10.6873 C.2       5 UNK         0.5034 
     61 O         -44.6077  -26.4683   11.5469 O.2       5 UNK        -0.5045 
     62 CA        -45.1865  -25.2518    9.5694 C.3       5 UNK         0.0224 
     63 CB        -44.6886  -25.9591    8.3013 C.3       5 UNK        -0.1978 
     64 N         -46.3534  -24.4238    9.2497 N.am      5 UNK        -0.4737 
     65 C         -46.8518  -23.4845   10.0686 C.2       4 UNK         0.5027 
     66 O         -46.3463  -23.2070   11.1571 O.2       4 UNK        -0.5211 
     67 CA        -48.0875  -22.7023    9.5880 C.3       4 UNK         0.0297 
     68 CB        -48.1756  -21.2931   10.2123 C.3       4 UNK        -0.1993 
     69 N         -48.1180  -22.6157    8.1274 N.am      4 UNK        -0.4486 
     70 C         -49.1921  -22.3578    7.3752 C.2       3 UNK         0.4961 
     71 O         -50.3169  -22.1493    7.8293 O.2       3 UNK        -0.5105 
     72 CA        -48.9824  -22.3369    5.8505 C.3       3 UNK         0.0299 
     73 CB        -47.8739  -21.3495    5.4274 C.3       3 UNK        -0.1972 
     74 N         -48.7722  -23.6700    5.2692 N.am      3 UNK        -0.4305 
     75 C         -47.7598  -24.5194    5.4931 C.2       2 UNK         0.5006 
     76 O         -46.8120  -24.2871    6.2480 O.2       2 UNK        -0.5106 
     77 CA        -47.8100  -25.8441    4.7190 C.3       2 UNK         0.0296 
     78 CB        -47.2253  -25.6497    3.3103 C.3       2 UNK        -0.2002 
     79 N         -47.0093  -26.8517    5.4159 N.am      2 UNK        -0.4032 
     80 C         -47.4023  -27.9415    6.0953 C.2       1 UNK         0.5000 
     81 O         -46.5710  -28.7012    6.5909 O.2       1 UNK        -0.5238 
     82 H82       -51.2455  -25.1674    7.3307 H         1 UNK         0.0889 
     83 H83       -50.3929  -24.7117    8.8011 H         1 UNK         0.0889 
     84 H84       -51.4861  -26.0945    8.8178 H         1 UNK         0.0889 
     85 H85       -50.6371  -27.1378    6.2443 H         1 UNK         0.3028 
     86 H86       -48.9187  -29.0263    7.0724 H         1 UNK         0.0864 
     87 H87       -49.1318  -28.4832    4.0948 H         1 UNK         0.0720 
     88 H88       -49.0235  -30.0090    4.9177 H         1 UNK         0.0720 
     89 H89       -50.9829  -31.4212    5.6161 H         1 UNK         0.0814 
     90 H90       -52.6578  -30.9352    5.6771 H         1 UNK         0.0814 
     91 H91       -49.7705  -31.4848    7.6826 H         1 UNK         0.1469 
     92 H92       -51.2461  -29.4659   11.1648 H         1 UNK         0.1381 
     93 H93       -53.2832  -29.0395    7.4181 H         1 UNK         0.1206 
     94 H94       -52.9592  -27.7439   10.8952 H         1 UNK         0.0813 
     95 H95       -53.6164  -27.4084    9.3164 H         1 UNK         0.0813 
     96 H96       -54.3982  -30.9054   11.8676 H         1 UNK         0.0638 
     97 H97       -53.5519  -29.4731   12.3968 H         1 UNK         0.0638 
     98 H98       -56.5525  -29.9449   12.7002 H         1 UNK         0.0568 
     99 H99       -56.0614  -28.9434   15.6839 H         1 UNK         0.3450 
    100 H100      -55.5493  -30.4431   16.4200 H         1 UNK         0.3450 
    101 H101      -54.9235  -27.6898   13.7815 H         1 UNK         0.2987 
    102 H102      -56.3580  -25.4060   12.9518 H         1 UNK         0.0766 
    103 H103      -58.7502  -25.8672   14.8123 H         1 UNK         0.0798 
    104 H104      -58.1328  -24.2907   14.3198 H         1 UNK         0.0798 
    105 H105      -58.8259  -25.3745   13.1264 H         1 UNK         0.0798 
    106 H106      -55.1916  -25.0891   14.7941 H         1 UNK         0.3198 
    107 H107      -55.4833  -25.4225   17.9894 H         1 UNK         0.0843 
    108 H108      -55.1349  -27.8438   18.3338 H         1 UNK         0.0831 
    109 H109      -53.6138  -27.0045   18.5767 H         1 UNK         0.0831 
    110 H110      -53.9045  -27.8925   17.0808 H         1 UNK         0.0831 
    111 H111      -53.2026  -25.6874   16.0986 H         1 UNK         0.3133 
    112 H112      -52.9898  -22.2710   15.4868 H         1 UNK         0.0566 
    113 H113      -50.6482  -22.3715   16.3550 H         1 UNK         0.0814 
    114 H114      -51.8038  -22.1742   17.6627 H         1 UNK         0.0814 
    115 H115      -51.0746  -23.7464   17.3739 H         1 UNK         0.0814 
    116 H116      -51.2417  -24.5269   15.0046 H         1 UNK         0.3091 
    117 H117      -53.0096  -25.7772   12.1682 H         1 UNK         0.0702 
    118 H118      -50.4573  -24.0789   12.2542 H         1 UNK         0.0785 
    119 H119      -51.7866  -23.9268   11.1121 H         1 UNK         0.0785 
    120 H120      -50.7612  -25.3574   11.0863 H         1 UNK         0.0785 
    121 H121      -50.4651  -26.4122   13.3145 H         1 UNK         0.2998 
    122 H122      -51.5213  -28.2055   16.1045 H         1 UNK         0.0697 
    123 H123      -50.9293  -29.7688   13.5316 H         1 UNK         0.0825 
    124 H124      -52.3316  -29.9941   14.5676 H         1 UNK         0.0825 
    125 H125      -50.7332  -30.3713   15.1771 H         1 UNK         0.0825 
    126 H126      -49.0907  -28.5225   14.7171 H         1 UNK         0.3029 
    127 H127      -47.5751  -25.4040   15.2703 H         1 UNK         0.0897 
    128 H128      -45.8604  -26.7456   16.4686 H         1 UNK         0.0792 
    129 H129      -47.2617  -26.5009   17.4965 H         1 UNK         0.0792 
    130 H130      -47.0159  -28.0562   16.7145 H         1 UNK         0.0792 
    131 H131      -46.5449  -27.8552   14.2569 H         1 UNK         0.3086 
    132 H132      -46.3548  -28.3429   12.1247 H         1 UNK         0.0583 
    133 H133      -48.8236  -29.0769   12.1579 H         1 UNK         0.1020 
    134 H134      -49.0911  -28.0422   10.7755 H         1 UNK         0.1020 
    135 H135      -48.9286  -32.0671    9.9186 H         1 UNK         0.0694 
    136 H136      -49.4988  -31.2495   11.3491 H         1 UNK         0.0694 
    137 H137      -47.3227  -26.6537    9.9294 H         1 UNK         0.2989 
    138 H138      -44.3910  -24.5906    9.9210 H         1 UNK         0.1055 
    139 H139      -45.4420  -26.6391    7.9069 H         1 UNK         0.0806 
    140 H140      -43.7933  -26.5473    8.5070 H         1 UNK         0.0806 
    141 H141      -44.4366  -25.2437    7.5183 H         1 UNK         0.0806 
    142 H142      -46.8229  -24.6265    8.3742 H         1 UNK         0.3061 
    143 H143      -48.9538  -23.2759    9.9210 H         1 UNK         0.0734 
    144 H144      -48.1930  -21.3453   11.3017 H         1 UNK         0.0832 
    145 H145      -47.3231  -20.6763    9.9265 H         1 UNK         0.0832 
    146 H146      -49.0834  -20.7731    9.9069 H         1 UNK         0.0832 
    147 H147      -47.2565  -22.8488    7.6429 H         1 UNK         0.3156 
    148 H148      -49.9144  -21.9704    5.4169 H         1 UNK         0.0589 
    149 H149      -46.8849  -21.6575    5.7671 H         1 UNK         0.0808 
    150 H150      -47.8327  -21.2479    4.3430 H         1 UNK         0.0808 
    151 H151      -48.0617  -20.3561    5.8371 H         1 UNK         0.0808 
    152 H152      -49.4997  -23.9685    4.6338 H         1 UNK         0.3098 
    153 H153      -48.8466  -26.1583    4.6088 H         1 UNK         0.0720 
    154 H154      -47.2410  -26.5812    2.7440 H         1 UNK         0.0791 
    155 H155      -46.1933  -25.2972    3.3446 H         1 UNK         0.0791 
    156 H156      -47.8004  -24.9176    2.7416 H         1 UNK         0.0791 
    157 H157      -46.0219  -26.6440    5.4258 H         1 UNK         0.3028 
@<TRIPOS>BOND
     1    1    2 1    
     2    1   82 1    
     3    1   83 1    
     4    1   84 1    
     5    2    3 2    
     6    2    4 am   BACKBONE|DICT|INTERRES
     7    4    5 1    
     8    4   85 1    
     9    5    6 1    
    10    5   80 1    
    11    5   86 1    
    12    6    7 1    
    13    6   87 1    
    14    6   88 1    
    15    7    8 1    
    16    8    9 1    
    17    8   89 1    
    18    8   90 1    
    19    9   10 ar   
    20    9   14 ar   
    21   10   11 ar   
    22   10   91 1    
    23   11   12 ar   
    24   11   58 1    
    25   12   13 ar   
    26   12   92 1    
    27   13   14 ar   
    28   13   15 1    
    29   14   93 1    
    30   15   16 1    
    31   15   94 1    
    32   15   95 1    
    33   16   17 1    
    34   17   18 1    
    35   17   96 1    
    36   17   97 1    
    37   18   19 1    
    38   18   22 1    
    39   18   98 1    
    40   19   20 am   BACKBONE|DICT|INTERRES
    41   19   21 2    
    42   20   99 1    
    43   20  100 1    
    44   22   23 am   BACKBONE|DICT|INTERRES
    45   22  101 1    
    46   23   24 2    
    47   23   25 1    
    48   25   26 1    
    49   25   27 1    
    50   25  102 1    
    51   26  103 1    
    52   26  104 1    
    53   26  105 1    
    54   27   28 am   BACKBONE|DICT|INTERRES
    55   27  106 1    
    56   28   29 2    
    57   28   30 1    
    58   30   31 1    
    59   30   32 1    
    60   30  107 1    
    61   31  108 1    
    62   31  109 1    
    63   31  110 1    
    64   32   33 am   BACKBONE|DICT|INTERRES
    65   32  111 1    
    66   33   34 2    
    67   33   35 1    
    68   35   36 1    
    69   35   37 1    
    70   35  112 1    
    71   36  113 1    
    72   36  114 1    
    73   36  115 1    
    74   37   38 am   BACKBONE|DICT|INTERRES
    75   37  116 1    
    76   38   39 2    
    77   38   40 1    
    78   40   41 1    
    79   40   42 1    
    80   40  117 1    
    81   41  118 1    
    82   41  119 1    
    83   41  120 1    
    84   42   43 am   BACKBONE|DICT|INTERRES
    85   42  121 1    
    86   43   44 2    
    87   43   45 1    
    88   45   46 1    
    89   45   47 1    
    90   45  122 1    
    91   46  123 1    
    92   46  124 1    
    93   46  125 1    
    94   47   48 am   BACKBONE|DICT|INTERRES
    95   47  126 1    
    96   48   49 2    
    97   48   50 1    
    98   50   51 1    
    99   50   52 1    
   100   50  127 1    
   101   51  128 1    
   102   51  129 1    
   103   51  130 1    
   104   52   53 am   BACKBONE|DICT|INTERRES
   105   52  131 1    
   106   53   54 2    
   107   53   55 1    
   108   55   56 1    
   109   55   59 1    
   110   55  132 1    
   111   56   57 1    
   112   56  133 1    
   113   56  134 1    
   114   57   58 1    
   115   58  135 1    
   116   58  136 1    
   117   59   60 am   BACKBONE|DICT|INTERRES
   118   59  137 1    
   119   60   61 2    
   120   60   62 1    
   121   62   63 1    
   122   62   64 1    
   123   62  138 1    
   124   63  139 1    
   125   63  140 1    
   126   63  141 1    
   127   64   65 am   BACKBONE|DICT|INTERRES
   128   64  142 1    
   129   65   66 2    
   130   65   67 1    
   131   67   68 1    
   132   67   69 1    
   133   67  143 1    
   134   68  144 1    
   135   68  145 1    
   136   68  146 1    
   137   69   70 am   BACKBONE|DICT|INTERRES
   138   69  147 1    
   139   70   71 2    
   140   70   72 1    
   141   72   73 1    
   142   72   74 1    
   143   72  148 1    
   144   73  149 1    
   145   73  150 1    
   146   73  151 1    
   147   74   75 am   BACKBONE|DICT|INTERRES
   148   74  152 1    
   149   75   76 2    
   150   75   77 1    
   151   77   78 1    
   152   77   79 1    
   153   77  153 1    
   154   78  154 1    
   155   78  155 1    
   156   78  156 1    
   157   79   80 am   BACKBONE|DICT|INTERRES
   158   79  157 1    
   159   80   81 2    
@<TRIPOS>SUBSTRUCTURE
     1 UNK         1 GROUP             0       ****    0 ROOT    
