@<TRIPOS>MOLECULE
3R207
157   159    1
SMALL
USER_CHARGES


@<TRIPOS>ATOM
      1 CA        -44.4137  -29.5703    8.3434 C.3       0 UNK        -0.1975 
      2 C         -45.0203  -29.7901    6.9653 C.2       0 UNK         0.4852 
      3 O         -44.3187  -29.6709    5.9606 O.2       0 UNK        -0.5216 
      4 N         -46.3217  -30.1032    6.9119 N.am      1 UNK        -0.4461 
      5 CA        -47.1056  -30.3018    5.6840 C.3       1 UNK         0.0864 
      6 C6        -48.4358  -31.0510    5.9625 C.3       14 UNK        -0.0898 
      7 S7        -49.3844  -30.3646    7.3628 S.3       14 UNK        -0.2598 
      8 C8        -50.7909  -29.5757    6.5192 C.3       14 UNK         0.0286 
      9 C9        -51.5110  -28.5748    7.4165 C.ar      14 UNK        -0.0844 
     10 C10       -51.7257  -27.2677    6.9699 C.ar      14 UNK        -0.0881 
     11 C11       -52.3974  -26.3390    7.7713 C.ar      14 UNK        -0.0643 
     12 C12       -52.8574  -26.7257    9.0330 C.ar      14 UNK        -0.0930 
     13 C13       -52.6413  -28.0259    9.4973 C.ar      14 UNK        -0.0827 
     14 C14       -51.9772  -28.9478    8.6823 C.ar      14 UNK        -0.1249 
     15 C15       -53.1152  -28.4312   10.8834 C.3       14 UNK         0.0141 
     16 S16       -54.6461  -29.4096   10.7964 S.3       14 UNK        -0.2313 
     17 C17       -55.0318  -29.5938   12.5676 C.3       14 UNK        -0.0915 
     18 CA        -56.3963  -28.9444   12.9482 C.3       13 UNK         0.0968 
     19 C         -57.5231  -30.0191   13.0439 C.2       13 UNK         0.5732 
     20 N         -58.0662  -30.3254   14.2171 N.am      13 UNK        -0.7310 
     21 O         -57.9150  -30.5870   12.0272 O.2       13 UNK        -0.5035 
     22 N         -56.2591  -28.0656   14.1196 N.am      13 UNK        -0.4233 
     23 C         -57.2020  -27.2368   14.5860 C.2       13 UNK         0.4989 
     24 O         -58.2701  -27.0235   14.0086 O.2       13 UNK        -0.4996 
     25 CA        -56.9062  -26.5524   15.9387 C.3       12 UNK         0.0216 
     26 CB        -58.1750  -25.9769   16.6021 C.3       12 UNK        -0.1964 
     27 N         -56.1879  -27.4129   16.8915 N.am      12 UNK        -0.4276 
     28 C         -56.5152  -28.6487   17.2999 C.2       12 UNK         0.5020 
     29 O         -57.5129  -29.2571   16.9071 O.2       12 UNK        -0.5489 
     30 CA        -55.5306  -29.3334   18.2726 C.3       11 UNK         0.0294 
     31 CB        -55.9240  -30.7896   18.5855 C.3       11 UNK        -0.2019 
     32 N         -54.1588  -29.3150   17.7539 N.am      11 UNK        -0.4493 
     33 C         -53.3304  -28.2642   17.8009 C.2       11 UNK         0.4932 
     34 O         -53.6204  -27.2066   18.3644 O.2       11 UNK        -0.5029 
     35 CA        -51.9840  -28.3726   17.0565 C.3       10 UNK         0.0280 
     36 CB        -51.8058  -29.6759   16.2432 C.3       10 UNK        -0.1976 
     37 N         -51.7653  -27.2013   16.2001 N.am      10 UNK        -0.4242 
     38 C         -52.5568  -26.7598   15.2123 C.2       10 UNK         0.5072 
     39 O         -53.5865  -27.3356   14.8595 O.2       10 UNK        -0.5224 
     40 CA        -52.1618  -25.4587   14.4885 C.3       9 UNK         0.0343 
     41 CB        -52.9043  -24.2520   15.0925 C.3       9 UNK        -0.2003 
     42 N         -50.7202  -25.1918   14.3774 N.am      9 UNK        -0.4272 
     43 C         -49.8222  -24.9354   15.3403 C.2       9 UNK         0.4988 
     44 O         -50.0749  -24.9628   16.5452 O.2       9 UNK        -0.5108 
     45 CA        -48.3906  -24.6091   14.8826 C.3       8 UNK         0.0248 
     46 CB        -47.6117  -25.9023   14.5946 C.3       8 UNK        -0.2001 
     47 N         -48.3508  -23.7281   13.7109 N.am      8 UNK        -0.4140 
     48 C         -48.7623  -22.4503   13.7131 C.2       8 UNK         0.5028 
     49 O         -49.1612  -21.8593   14.7176 O.2       8 UNK        -0.5428 
     50 CA        -48.7330  -21.6997   12.3709 C.3       7 UNK         0.0264 
     51 CB        -47.3177  -21.1844   12.0633 C.3       7 UNK        -0.1988 
     52 N         -49.2125  -22.5117   11.2521 N.am      7 UNK        -0.4454 
     53 C         -50.4732  -22.9460   11.0993 C.2       7 UNK         0.5027 
     54 O         -51.3979  -22.6576   11.8593 O.2       7 UNK        -0.5083 
     55 CA        -50.7362  -23.8835    9.9026 C.3       6 UNK         0.0844 
     56 C56       -50.9695  -23.0536    8.6135 C.3       14 UNK        -0.0967 
     57 S57       -51.0734  -24.0157    7.0667 S.3       14 UNK        -0.2604 
     58 C58       -52.6361  -24.9272    7.2564 C.3       14 UNK         0.0134 
     59 N         -49.6824  -24.8959    9.7764 N.am      6 UNK        -0.4116 
     60 C         -49.4106  -25.8261   10.7047 C.2       5 UNK         0.5034 
     61 O         -50.0609  -25.9790   11.7380 O.2       5 UNK        -0.5045 
     62 CA        -48.1652  -26.6928   10.4805 C.3       5 UNK         0.0224 
     63 CB        -48.5075  -27.9307    9.6440 C.3       5 UNK        -0.1978 
     64 N         -47.0884  -25.9357    9.8416 N.am      5 UNK        -0.4737 
     65 C         -46.3365  -25.0267   10.4777 C.2       4 UNK         0.5027 
     66 O         -46.4464  -24.7733   11.6768 O.2       4 UNK        -0.5211 
     67 CA        -45.3250  -24.2368    9.6276 C.3       4 UNK         0.0297 
     68 CB        -44.0059  -25.0152    9.5034 C.3       4 UNK        -0.1993 
     69 N         -45.8282  -23.9097    8.2904 N.am      4 UNK        -0.4486 
     70 C         -46.8992  -23.1406    8.0502 C.2       3 UNK         0.4961 
     71 O         -47.5350  -22.5660    8.9333 O.2       3 UNK        -0.5105 
     72 CA        -47.3727  -23.0188    6.5899 C.3       3 UNK         0.0299 
     73 CB        -46.7344  -21.7866    5.9298 C.3       3 UNK        -0.1972 
     74 N         -47.1459  -24.1966    5.7390 N.am      3 UNK        -0.4305 
     75 C         -47.4721  -25.4688    6.0155 C.2       2 UNK         0.5006 
     76 O         -47.9361  -25.8383    7.0960 O.2       2 UNK        -0.5106 
     77 CA        -47.2095  -26.5072    4.9129 C.3       2 UNK         0.0296 
     78 CB        -45.8910  -26.2478    4.1482 C.3       2 UNK        -0.2002 
     79 N         -47.1851  -27.8387    5.5146 N.am      2 UNK        -0.4032 
     80 C         -47.3210  -29.0042    4.8695 C.2       1 UNK         0.5000 
     81 O         -47.5773  -29.0891    3.6665 O.2       1 UNK        -0.5238 
     82 H82       -45.1519  -29.6811    9.1375 H         1 UNK         0.0889 
     83 H83       -43.9911  -28.5684    8.4117 H         1 UNK         0.0889 
     84 H84       -43.6148  -30.2899    8.5201 H         1 UNK         0.0889 
     85 H85       -46.8502  -30.2046    7.7676 H         1 UNK         0.3028 
     86 H86       -46.5106  -30.9496    5.0362 H         1 UNK         0.0864 
     87 H87       -49.0602  -31.1004    5.0681 H         1 UNK         0.0720 
     88 H88       -48.2103  -32.0891    6.2112 H         1 UNK         0.0720 
     89 H89       -50.4296  -29.0821    5.6156 H         1 UNK         0.0814 
     90 H90       -51.4951  -30.3435    6.1967 H         1 UNK         0.0814 
     91 H91       -51.3692  -26.9640    5.9950 H         1 UNK         0.1469 
     92 H92       -53.3816  -26.0148    9.6564 H         1 UNK         0.1381 
     93 H93       -51.8170  -29.9567    9.0373 H         1 UNK         0.1206 
     94 H94       -52.3381  -29.0134   11.3812 H         1 UNK         0.0813 
     95 H95       -53.2818  -27.5479   11.5028 H         1 UNK         0.0813 
     96 H96       -54.2153  -29.1566   13.1417 H         1 UNK         0.0638 
     97 H97       -54.9996  -30.6565   12.8166 H         1 UNK         0.0638 
     98 H98       -56.7042  -28.2801   12.1386 H         1 UNK         0.0568 
     99 H99       -57.7786  -29.8602   15.0733 H         1 UNK         0.3450 
    100 H100      -58.7940  -31.0204   14.2510 H         1 UNK         0.3450 
    101 H101      -55.3658  -28.0938   14.6017 H         1 UNK         0.2987 
    102 H102      -56.2385  -25.7193   15.7148 H         1 UNK         0.0766 
    103 H103      -58.6614  -25.2460   15.9548 H         1 UNK         0.0798 
    104 H104      -57.9387  -25.4705   17.5379 H         1 UNK         0.0798 
    105 H105      -58.9043  -26.7585   16.8186 H         1 UNK         0.0798 
    106 H106      -55.3194  -27.0360   17.2597 H         1 UNK         0.3198 
    107 H107      -55.5649  -28.7728   19.2095 H         1 UNK         0.0843 
    108 H108      -56.9235  -30.8392   19.0198 H         1 UNK         0.0831 
    109 H109      -55.2393  -31.2410   19.3036 H         1 UNK         0.0831 
    110 H110      -55.9281  -31.4094   17.6880 H         1 UNK         0.0831 
    111 H111      -53.8631  -30.1300   17.2361 H         1 UNK         0.3133 
    112 H112      -51.2068  -28.3457   17.8213 H         1 UNK         0.0566 
    113 H113      -50.8367  -29.6919   15.7443 H         1 UNK         0.0814 
    114 H114      -51.8416  -30.5554   16.8874 H         1 UNK         0.0814 
    115 H115      -52.5696  -29.7910   15.4729 H         1 UNK         0.0814 
    116 H116      -51.0061  -26.5822   16.4727 H         1 UNK         0.3091 
    117 H117      -52.5066  -25.5704   13.4591 H         1 UNK         0.0702 
    118 H118      -52.6216  -24.0782   16.1312 H         1 UNK         0.0785 
    119 H119      -53.9835  -24.4085   15.0714 H         1 UNK         0.0785 
    120 H120      -52.6969  -23.3411   14.5303 H         1 UNK         0.0785 
    121 H121      -50.3707  -25.2497   13.4228 H         1 UNK         0.2998 
    122 H122      -47.8911  -24.0904   15.7036 H         1 UNK         0.0697 
    123 H123      -48.0594  -26.4702   13.7792 H         1 UNK         0.0825 
    124 H124      -47.5939  -26.5505   15.4718 H         1 UNK         0.0825 
    125 H125      -46.5761  -25.6911   14.3273 H         1 UNK         0.0825 
    126 H126      -47.9532  -24.1138   12.8599 H         1 UNK         0.3029 
    127 H127      -49.3963  -20.8367   12.4616 H         1 UNK         0.0897 
    128 H128      -47.3033  -20.5878   11.1508 H         1 UNK         0.0792 
    129 H129      -46.9482  -20.5516   12.8713 H         1 UNK         0.0792 
    130 H130      -46.6075  -22.0022   11.9373 H         1 UNK         0.0792 
    131 H131      -48.5346  -22.7303   10.5247 H         1 UNK         0.3086 
    132 H132      -51.6605  -24.4188   10.1221 H         1 UNK         0.0583 
    133 H133      -51.8812  -22.4610    8.7107 H         1 UNK         0.1020 
    134 H134      -50.1653  -22.3286    8.4757 H         1 UNK         0.1020 
    135 H135      -53.3163  -24.3757    7.9070 H         1 UNK         0.0694 
    136 H136      -53.1253  -24.9866    6.2832 H         1 UNK         0.0694 
    137 H137      -49.1231  -24.8696    8.9339 H         1 UNK         0.2989 
    138 H138      -47.8141  -27.0344   11.4563 H         1 UNK         0.1055 
    139 H139      -49.2588  -28.5419   10.1461 H         1 UNK         0.0806 
    140 H140      -47.6322  -28.5588    9.4828 H         1 UNK         0.0806 
    141 H141      -48.9170  -27.6606    8.6705 H         1 UNK         0.0806 
    142 H142      -47.0294  -26.0024    8.8305 H         1 UNK         0.3061 
    143 H143      -45.1219  -23.2973   10.1460 H         1 UNK         0.0734 
    144 H144      -43.6028  -25.2564   10.4881 H         1 UNK         0.0832 
    145 H145      -44.1389  -25.9556    8.9672 H         1 UNK         0.0832 
    146 H146      -43.2481  -24.4325    8.9795 H         1 UNK         0.0832 
    147 H147      -45.3648  -24.3411    7.5044 H         1 UNK         0.3156 
    148 H148      -48.4499  -22.8560    6.6194 H         1 UNK         0.0589 
    149 H149      -45.6556  -21.9016    5.8173 H         1 UNK         0.0808 
    150 H150      -47.1584  -21.5985    4.9433 H         1 UNK         0.0808 
    151 H151      -46.9058  -20.8901    6.5278 H         1 UNK         0.0808 
    152 H152      -46.7551  -24.0068    4.8277 H         1 UNK         0.3098 
    153 H153      -48.0482  -26.4557    4.2160 H         1 UNK         0.0720 
    154 H154      -45.6989  -27.0254    3.4089 H         1 UNK         0.0791 
    155 H155      -45.0345  -26.2196    4.8233 H         1 UNK         0.0791 
    156 H156      -45.9173  -25.3047    3.6021 H         1 UNK         0.0791 
    157 H157      -47.0748  -27.8451    6.5195 H         1 UNK         0.3028 
@<TRIPOS>BOND
     1    1    2 1    
     2    1   82 1    
     3    1   83 1    
     4    1   84 1    
     5    2    3 2    
     6    2    4 am   BACKBONE|DICT|INTERRES
     7    4    5 1    
     8    4   85 1    
     9    5    6 1    
    10    5   80 1    
    11    5   86 1    
    12    6    7 1    
    13    6   87 1    
    14    6   88 1    
    15    7    8 1    
    16    8    9 1    
    17    8   89 1    
    18    8   90 1    
    19    9   10 ar   
    20    9   14 ar   
    21   10   11 ar   
    22   10   91 1    
    23   11   12 ar   
    24   11   58 1    
    25   12   13 ar   
    26   12   92 1    
    27   13   14 ar   
    28   13   15 1    
    29   14   93 1    
    30   15   16 1    
    31   15   94 1    
    32   15   95 1    
    33   16   17 1    
    34   17   18 1    
    35   17   96 1    
    36   17   97 1    
    37   18   19 1    
    38   18   22 1    
    39   18   98 1    
    40   19   20 am   BACKBONE|DICT|INTERRES
    41   19   21 2    
    42   20   99 1    
    43   20  100 1    
    44   22   23 am   BACKBONE|DICT|INTERRES
    45   22  101 1    
    46   23   24 2    
    47   23   25 1    
    48   25   26 1    
    49   25   27 1    
    50   25  102 1    
    51   26  103 1    
    52   26  104 1    
    53   26  105 1    
    54   27   28 am   BACKBONE|DICT|INTERRES
    55   27  106 1    
    56   28   29 2    
    57   28   30 1    
    58   30   31 1    
    59   30   32 1    
    60   30  107 1    
    61   31  108 1    
    62   31  109 1    
    63   31  110 1    
    64   32   33 am   BACKBONE|DICT|INTERRES
    65   32  111 1    
    66   33   34 2    
    67   33   35 1    
    68   35   36 1    
    69   35   37 1    
    70   35  112 1    
    71   36  113 1    
    72   36  114 1    
    73   36  115 1    
    74   37   38 am   BACKBONE|DICT|INTERRES
    75   37  116 1    
    76   38   39 2    
    77   38   40 1    
    78   40   41 1    
    79   40   42 1    
    80   40  117 1    
    81   41  118 1    
    82   41  119 1    
    83   41  120 1    
    84   42   43 am   BACKBONE|DICT|INTERRES
    85   42  121 1    
    86   43   44 2    
    87   43   45 1    
    88   45   46 1    
    89   45   47 1    
    90   45  122 1    
    91   46  123 1    
    92   46  124 1    
    93   46  125 1    
    94   47   48 am   BACKBONE|DICT|INTERRES
    95   47  126 1    
    96   48   49 2    
    97   48   50 1    
    98   50   51 1    
    99   50   52 1    
   100   50  127 1    
   101   51  128 1    
   102   51  129 1    
   103   51  130 1    
   104   52   53 am   BACKBONE|DICT|INTERRES
   105   52  131 1    
   106   53   54 2    
   107   53   55 1    
   108   55   56 1    
   109   55   59 1    
   110   55  132 1    
   111   56   57 1    
   112   56  133 1    
   113   56  134 1    
   114   57   58 1    
   115   58  135 1    
   116   58  136 1    
   117   59   60 am   BACKBONE|DICT|INTERRES
   118   59  137 1    
   119   60   61 2    
   120   60   62 1    
   121   62   63 1    
   122   62   64 1    
   123   62  138 1    
   124   63  139 1    
   125   63  140 1    
   126   63  141 1    
   127   64   65 am   BACKBONE|DICT|INTERRES
   128   64  142 1    
   129   65   66 2    
   130   65   67 1    
   131   67   68 1    
   132   67   69 1    
   133   67  143 1    
   134   68  144 1    
   135   68  145 1    
   136   68  146 1    
   137   69   70 am   BACKBONE|DICT|INTERRES
   138   69  147 1    
   139   70   71 2    
   140   70   72 1    
   141   72   73 1    
   142   72   74 1    
   143   72  148 1    
   144   73  149 1    
   145   73  150 1    
   146   73  151 1    
   147   74   75 am   BACKBONE|DICT|INTERRES
   148   74  152 1    
   149   75   76 2    
   150   75   77 1    
   151   77   78 1    
   152   77   79 1    
   153   77  153 1    
   154   78  154 1    
   155   78  155 1    
   156   78  156 1    
   157   79   80 am   BACKBONE|DICT|INTERRES
   158   79  157 1    
   159   80   81 2    
@<TRIPOS>SUBSTRUCTURE
     1 UNK         1 GROUP             0       ****    0 ROOT    
