@<TRIPOS>MOLECULE
3R207
157   159    1
SMALL
USER_CHARGES


@<TRIPOS>ATOM
      1 CA        -43.9813  -28.0434   10.4045 C.3       0 UNK        -0.1975 
      2 C         -44.9839  -28.8736    9.6174 C.2       0 UNK         0.4852 
      3 O         -44.6518  -29.9668    9.1581 O.2       0 UNK        -0.5216 
      4 N         -46.2091  -28.3587    9.4630 N.am      1 UNK        -0.4461 
      5 CA        -47.2968  -28.9746    8.6983 C.3       1 UNK         0.0864 
      6 C6        -48.6723  -28.4288    9.1628 C.3       14 UNK        -0.0898 
      7 S7        -50.0264  -29.6123    8.8799 S.3       14 UNK        -0.2598 
      8 C8        -50.8932  -28.8553    7.4678 C.3       14 UNK         0.0286 
      9 C9        -51.8811  -27.7850    7.9105 C.ar      14 UNK        -0.0844 
     10 C10       -51.6424  -26.4314    7.6474 C.ar      14 UNK        -0.0881 
     11 C11       -52.5764  -25.4592    8.0269 C.ar      14 UNK        -0.0643 
     12 C12       -53.7527  -25.8540    8.6736 C.ar      14 UNK        -0.0930 
     13 C13       -54.0046  -27.2031    8.9364 C.ar      14 UNK        -0.0827 
     14 C14       -53.0657  -28.1624    8.5495 C.ar      14 UNK        -0.1249 
     15 C15       -55.3129  -27.6295    9.5873 C.3       14 UNK         0.0141 
     16 S16       -55.4223  -27.1249   11.3330 S.3       14 UNK        -0.2313 
     17 C17       -57.0494  -27.8336   11.7680 C.3       14 UNK        -0.0915 
     18 CA        -57.0195  -28.8927   12.9052 C.3       13 UNK         0.0968 
     19 C         -56.2021  -30.1747   12.5811 C.2       13 UNK         0.5732 
     20 N         -55.4781  -30.7542   13.5312 N.am      13 UNK        -0.7310 
     21 O         -56.2521  -30.6764   11.4607 O.2       13 UNK        -0.5035 
     22 N         -56.7060  -28.2936   14.2125 N.am      13 UNK        -0.4233 
     23 C         -57.6280  -27.8636   15.0842 C.2       13 UNK         0.4989 
     24 O         -58.8411  -27.9166   14.8696 O.2       13 UNK        -0.4996 
     25 CA        -57.1266  -27.2552   16.4101 C.3       12 UNK         0.0216 
     26 CB        -58.2062  -27.2474   17.5141 C.3       12 UNK        -0.1964 
     27 N         -55.8830  -27.8485   16.9125 N.am      12 UNK        -0.4276 
     28 C         -55.6543  -29.1265   17.2571 C.2       12 UNK         0.5020 
     29 O         -56.5051  -30.0142   17.1885 O.2       12 UNK        -0.5489 
     30 CA        -54.2348  -29.4883   17.7425 C.3       11 UNK         0.0294 
     31 CB        -53.6867  -30.7216   17.0014 C.3       11 UNK        -0.2019 
     32 N         -53.2965  -28.3797   17.5582 N.am      11 UNK        -0.4493 
     33 C         -52.9412  -27.4923   18.4977 C.2       11 UNK         0.4932 
     34 O         -53.2807  -27.5696   19.6781 O.2       11 UNK        -0.5029 
     35 CA        -52.0944  -26.2910   18.0341 C.3       10 UNK         0.0280 
     36 CB        -50.6059  -26.5369   18.3253 C.3       10 UNK        -0.1976 
     37 N         -52.2783  -25.9799   16.6105 N.am      10 UNK        -0.4242 
     38 C         -53.4143  -25.4812   16.0929 C.2       10 UNK         0.5072 
     39 O         -54.3881  -25.1711   16.7786 O.2       10 UNK        -0.5224 
     40 CA        -53.5297  -25.3790   14.5606 C.3       9 UNK         0.0343 
     41 CB        -53.1865  -23.9596   14.0857 C.3       9 UNK        -0.2003 
     42 N         -52.6995  -26.3567   13.8536 N.am      9 UNK        -0.4272 
     43 C         -52.8724  -27.6864   13.9316 C.2       9 UNK         0.4988 
     44 O         -53.8043  -28.2061   14.5476 O.2       9 UNK        -0.5108 
     45 CA        -51.8195  -28.5990   13.2734 C.3       8 UNK         0.0248 
     46 CB        -52.3443  -29.1470   11.9409 C.3       8 UNK        -0.2001 
     47 N         -50.5220  -27.9606   13.0401 N.am      8 UNK        -0.4140 
     48 C         -49.7329  -27.4211   13.9798 C.2       8 UNK         0.5028 
     49 O         -49.9910  -27.4406   15.1832 O.2       8 UNK        -0.5428 
     50 CA        -48.4832  -26.6707   13.4860 C.3       7 UNK         0.0264 
     51 CB        -47.2701  -27.6140   13.4415 C.3       7 UNK        -0.1988 
     52 N         -48.6404  -26.0347   12.1725 N.am      7 UNK        -0.4454 
     53 C         -49.5839  -25.1516   11.8162 C.2       7 UNK         0.5027 
     54 O         -50.4789  -24.7768   12.5739 O.2       7 UNK        -0.5083 
     55 CA        -49.5159  -24.6188   10.3683 C.3       6 UNK         0.0844 
     56 C56       -50.7173  -23.7088   10.0093 C.3       14 UNK        -0.0967 
     57 S57       -50.7373  -23.3331    8.2227 S.3       14 UNK        -0.2604 
     58 C58       -52.3585  -23.9839    7.7010 C.3       14 UNK         0.0134 
     59 N         -48.2418  -23.9473   10.0903 N.am      6 UNK        -0.4116 
     60 C         -47.0483  -24.5244    9.9185 C.2       5 UNK         0.5034 
     61 O         -46.8606  -25.7397   10.0121 O.2       5 UNK        -0.5045 
     62 CA        -45.8819  -23.5824    9.5762 C.3       5 UNK         0.0224 
     63 CB        -44.5266  -24.3119    9.5143 C.3       5 UNK        -0.1978 
     64 N         -46.1208  -22.8857    8.3082 N.am      5 UNK        -0.4737 
     65 C         -46.8745  -21.7832    8.1762 C.2       4 UNK         0.5027 
     66 O         -47.4668  -21.2654    9.1246 O.2       4 UNK        -0.5211 
     67 CA        -46.9903  -21.1313    6.7854 C.3       4 UNK         0.0297 
     68 CB        -46.3181  -19.7477    6.7859 C.3       4 UNK        -0.1993 
     69 N         -46.3978  -21.9397    5.7182 N.am      4 UNK        -0.4486 
     70 C         -47.0429  -22.8888    5.0293 C.2       3 UNK         0.4961 
     71 O         -48.2357  -23.1554    5.1817 O.2       3 UNK        -0.5105 
     72 CA        -46.2254  -23.6932    3.9961 C.3       3 UNK         0.0299 
     73 CB        -44.7448  -23.2611    3.8735 C.3       3 UNK        -0.1972 
     74 N         -46.3155  -25.1367    4.2458 N.am      3 UNK        -0.4305 
     75 C         -46.0005  -25.7665    5.3862 C.2       2 UNK         0.5006 
     76 O         -45.5480  -25.2058    6.3883 O.2       2 UNK        -0.5106 
     77 CA        -46.2068  -27.2832    5.4044 C.3       2 UNK         0.0296 
     78 CB        -44.9723  -28.0150    4.8467 C.3       2 UNK        -0.2002 
     79 N         -46.4488  -27.6876    6.7837 N.am      2 UNK        -0.4032 
     80 C         -47.0984  -28.7894    7.1778 C.2       1 UNK         0.5000 
     81 O         -47.5318  -29.6394    6.3975 O.2       1 UNK        -0.5238 
     82 H82       -43.2250  -27.6338    9.7356 H         1 UNK         0.0889 
     83 H83       -43.4816  -28.6622   11.1494 H         1 UNK         0.0889 
     84 H84       -44.4633  -27.2158   10.9247 H         1 UNK         0.0889 
     85 H85       -46.4019  -27.4202    9.8119 H         1 UNK         0.3028 
     86 H86       -47.2654  -30.0479    8.9001 H         1 UNK         0.0864 
     87 H87       -48.6547  -28.2465   10.2377 H         1 UNK         0.0720 
     88 H88       -48.8995  -27.4662    8.7022 H         1 UNK         0.0720 
     89 H89       -51.4361  -29.6375    6.9352 H         1 UNK         0.0814 
     90 H90       -50.1699  -28.4550    6.7559 H         1 UNK         0.0814 
     91 H91       -50.7380  -26.1309    7.1361 H         1 UNK         0.1469 
     92 H92       -54.4869  -25.1135    8.9607 H         1 UNK         0.1381 
     93 H93       -53.2561  -29.2099    8.7412 H         1 UNK         0.1206 
     94 H94       -56.1457  -27.1929    9.0341 H         1 UNK         0.0813 
     95 H95       -55.4343  -28.7122    9.5243 H         1 UNK         0.0813 
     96 H96       -57.7038  -27.0090   12.0539 H         1 UNK         0.0638 
     97 H97       -57.5097  -28.2661   10.8782 H         1 UNK         0.0638 
     98 H98       -58.0344  -29.2894   12.9637 H         1 UNK         0.0568 
     99 H99       -55.4499  -30.3690   14.4609 H         1 UNK         0.3450 
    100 H100      -54.9678  -31.5946   13.3141 H         1 UNK         0.3450 
    101 H101      -55.7161  -28.2187   14.4340 H         1 UNK         0.2987 
    102 H102      -56.8897  -26.2153   16.1814 H         1 UNK         0.0766 
    103 H103      -58.5414  -28.2560   17.7583 H         1 UNK         0.0798 
    104 H104      -57.8339  -26.7867   18.4291 H         1 UNK         0.0798 
    105 H105      -59.0837  -26.6792   17.2029 H         1 UNK         0.0798 
    106 H106      -55.1151  -27.1945   17.0041 H         1 UNK         0.3198 
    107 H107      -54.3144  -29.7376   18.8027 H         1 UNK         0.0843 
    108 H108      -54.3375  -31.5861   17.1389 H         1 UNK         0.0831 
    109 H109      -52.7013  -31.0002   17.3749 H         1 UNK         0.0831 
    110 H110      -53.5990  -30.5459   15.9291 H         1 UNK         0.0831 
    111 H111      -52.9957  -28.2202   16.6046 H         1 UNK         0.3133 
    112 H112      -52.4116  -25.4200   18.6115 H         1 UNK         0.0566 
    113 H113      -49.9919  -25.6945   18.0063 H         1 UNK         0.0814 
    114 H114      -50.4373  -26.6749   19.3941 H         1 UNK         0.0814 
    115 H115      -50.2373  -27.4314   17.8221 H         1 UNK         0.0814 
    116 H116      -51.5266  -26.2569   15.9862 H         1 UNK         0.3091 
    117 H117      -54.5697  -25.5815   14.2950 H         1 UNK         0.0702 
    118 H118      -53.2881  -23.8674   13.0040 H         1 UNK         0.0785 
    119 H119      -52.1664  -23.6807   14.3524 H         1 UNK         0.0785 
    120 H120      -53.8539  -23.2254   14.5389 H         1 UNK         0.0785 
    121 H121      -51.9062  -25.9852   13.3405 H         1 UNK         0.2998 
    122 H122      -51.6564  -29.4392   13.9511 H         1 UNK         0.0697 
    123 H123      -52.4716  -28.3476   11.2120 H         1 UNK         0.0825 
    124 H124      -53.3128  -29.6305   12.0647 H         1 UNK         0.0825 
    125 H125      -51.6665  -29.8874   11.5166 H         1 UNK         0.0825 
    126 H126      -50.2276  -27.8842   12.0783 H         1 UNK         0.3029 
    127 H127      -48.2784  -25.8776   14.2080 H         1 UNK         0.0897 
    128 H128      -46.3561  -27.0746   13.1918 H         1 UNK         0.0792 
    129 H129      -47.1093  -28.0891   14.4104 H         1 UNK         0.0792 
    130 H130      -47.4017  -28.4088   12.7059 H         1 UNK         0.0792 
    131 H131      -47.9156  -26.2201   11.4849 H         1 UNK         0.3086 
    132 H132      -49.5758  -25.4975    9.7249 H         1 UNK         0.0583 
    133 H133      -51.6603  -24.1817   10.2905 H         1 UNK         0.1020 
    134 H134      -50.6743  -22.7718   10.5675 H         1 UNK         0.1020 
    135 H135      -53.1350  -23.3687    8.1585 H         1 UNK         0.0694 
    136 H136      -52.4565  -23.8478    6.6233 H         1 UNK         0.0694 
    137 H137      -48.2884  -22.9426    9.9569 H         1 UNK         0.2989 
    138 H138      -45.8166  -22.8461   10.3807 H         1 UNK         0.1055 
    139 H139      -44.5234  -25.1123    8.7747 H         1 UNK         0.0806 
    140 H140      -44.2846  -24.7601   10.4784 H         1 UNK         0.0806 
    141 H141      -43.7170  -23.6251    9.2671 H         1 UNK         0.0806 
    142 H142      -45.7501  -23.3327    7.4769 H         1 UNK         0.3061 
    143 H143      -48.0546  -20.9898    6.5842 H         1 UNK         0.0734 
    144 H144      -46.7616  -19.0977    7.5416 H         1 UNK         0.0832 
    145 H145      -45.2511  -19.8156    7.0016 H         1 UNK         0.0832 
    146 H146      -46.4365  -19.2481    5.8242 H         1 UNK         0.0832 
    147 H147      -45.4144  -21.8000    5.5348 H         1 UNK         0.3156 
    148 H148      -46.7009  -23.5159    3.0304 H         1 UNK         0.0589 
    149 H149      -44.1916  -23.4058    4.8024 H         1 UNK         0.0808 
    150 H150      -44.2360  -23.8374    3.1006 H         1 UNK         0.0808 
    151 H151      -44.6585  -22.2115    3.5890 H         1 UNK         0.0808 
    152 H152      -46.7028  -25.6841    3.4896 H         1 UNK         0.3098 
    153 H153      -47.0843  -27.5246    4.8007 H         1 UNK         0.0720 
    154 H154      -45.1187  -29.0953    4.8414 H         1 UNK         0.0791 
    155 H155      -44.0799  -27.8018    5.4367 H         1 UNK         0.0791 
    156 H156      -44.7662  -27.7118    3.8195 H         1 UNK         0.0791 
    157 H157      -46.1435  -27.0108    7.4728 H         1 UNK         0.3028 
@<TRIPOS>BOND
     1    1    2 1    
     2    1   82 1    
     3    1   83 1    
     4    1   84 1    
     5    2    3 2    
     6    2    4 am   BACKBONE|DICT|INTERRES
     7    4    5 1    
     8    4   85 1    
     9    5    6 1    
    10    5   80 1    
    11    5   86 1    
    12    6    7 1    
    13    6   87 1    
    14    6   88 1    
    15    7    8 1    
    16    8    9 1    
    17    8   89 1    
    18    8   90 1    
    19    9   10 ar   
    20    9   14 ar   
    21   10   11 ar   
    22   10   91 1    
    23   11   12 ar   
    24   11   58 1    
    25   12   13 ar   
    26   12   92 1    
    27   13   14 ar   
    28   13   15 1    
    29   14   93 1    
    30   15   16 1    
    31   15   94 1    
    32   15   95 1    
    33   16   17 1    
    34   17   18 1    
    35   17   96 1    
    36   17   97 1    
    37   18   19 1    
    38   18   22 1    
    39   18   98 1    
    40   19   20 am   BACKBONE|DICT|INTERRES
    41   19   21 2    
    42   20   99 1    
    43   20  100 1    
    44   22   23 am   BACKBONE|DICT|INTERRES
    45   22  101 1    
    46   23   24 2    
    47   23   25 1    
    48   25   26 1    
    49   25   27 1    
    50   25  102 1    
    51   26  103 1    
    52   26  104 1    
    53   26  105 1    
    54   27   28 am   BACKBONE|DICT|INTERRES
    55   27  106 1    
    56   28   29 2    
    57   28   30 1    
    58   30   31 1    
    59   30   32 1    
    60   30  107 1    
    61   31  108 1    
    62   31  109 1    
    63   31  110 1    
    64   32   33 am   BACKBONE|DICT|INTERRES
    65   32  111 1    
    66   33   34 2    
    67   33   35 1    
    68   35   36 1    
    69   35   37 1    
    70   35  112 1    
    71   36  113 1    
    72   36  114 1    
    73   36  115 1    
    74   37   38 am   BACKBONE|DICT|INTERRES
    75   37  116 1    
    76   38   39 2    
    77   38   40 1    
    78   40   41 1    
    79   40   42 1    
    80   40  117 1    
    81   41  118 1    
    82   41  119 1    
    83   41  120 1    
    84   42   43 am   BACKBONE|DICT|INTERRES
    85   42  121 1    
    86   43   44 2    
    87   43   45 1    
    88   45   46 1    
    89   45   47 1    
    90   45  122 1    
    91   46  123 1    
    92   46  124 1    
    93   46  125 1    
    94   47   48 am   BACKBONE|DICT|INTERRES
    95   47  126 1    
    96   48   49 2    
    97   48   50 1    
    98   50   51 1    
    99   50   52 1    
   100   50  127 1    
   101   51  128 1    
   102   51  129 1    
   103   51  130 1    
   104   52   53 am   BACKBONE|DICT|INTERRES
   105   52  131 1    
   106   53   54 2    
   107   53   55 1    
   108   55   56 1    
   109   55   59 1    
   110   55  132 1    
   111   56   57 1    
   112   56  133 1    
   113   56  134 1    
   114   57   58 1    
   115   58  135 1    
   116   58  136 1    
   117   59   60 am   BACKBONE|DICT|INTERRES
   118   59  137 1    
   119   60   61 2    
   120   60   62 1    
   121   62   63 1    
   122   62   64 1    
   123   62  138 1    
   124   63  139 1    
   125   63  140 1    
   126   63  141 1    
   127   64   65 am   BACKBONE|DICT|INTERRES
   128   64  142 1    
   129   65   66 2    
   130   65   67 1    
   131   67   68 1    
   132   67   69 1    
   133   67  143 1    
   134   68  144 1    
   135   68  145 1    
   136   68  146 1    
   137   69   70 am   BACKBONE|DICT|INTERRES
   138   69  147 1    
   139   70   71 2    
   140   70   72 1    
   141   72   73 1    
   142   72   74 1    
   143   72  148 1    
   144   73  149 1    
   145   73  150 1    
   146   73  151 1    
   147   74   75 am   BACKBONE|DICT|INTERRES
   148   74  152 1    
   149   75   76 2    
   150   75   77 1    
   151   77   78 1    
   152   77   79 1    
   153   77  153 1    
   154   78  154 1    
   155   78  155 1    
   156   78  156 1    
   157   79   80 am   BACKBONE|DICT|INTERRES
   158   79  157 1    
   159   80   81 2    
@<TRIPOS>SUBSTRUCTURE
     1 UNK         1 GROUP             0       ****    0 ROOT    
