@<TRIPOS>MOLECULE
3R207
157   159    1
SMALL
USER_CHARGES


@<TRIPOS>ATOM
      1 CA        -48.0844  -26.3225    3.6682 C.3       0 UNK        -0.1975 
      2 C         -47.2076  -27.4435    4.2228 C.2       0 UNK         0.4852 
      3 O         -45.9841  -27.3290    4.1768 O.2       0 UNK        -0.5216 
      4 N         -47.7726  -28.5461    4.7352 N.am      1 UNK        -0.4461 
      5 CA        -49.2032  -28.7864    4.9476 C.3       1 UNK         0.0864 
      6 C6        -49.4967  -30.3013    5.0667 C.3       14 UNK        -0.0898 
      7 S7        -51.2364  -30.6994    4.6915 S.3       14 UNK        -0.2598 
      8 C8        -51.6872  -31.7718    6.0921 C.3       14 UNK         0.0286 
      9 C9        -51.9397  -30.9854    7.3709 C.ar      14 UNK        -0.0844 
     10 C10       -51.0014  -30.9902    8.4079 C.ar      14 UNK        -0.0881 
     11 C11       -51.2604  -30.3152    9.6054 C.ar      14 UNK        -0.0643 
     12 C12       -52.4681  -29.6251    9.7585 C.ar      14 UNK        -0.0930 
     13 C13       -53.4090  -29.6053    8.7240 C.ar      14 UNK        -0.0827 
     14 C14       -53.1396  -30.2878    7.5344 C.ar      14 UNK        -0.1249 
     15 C15       -54.7171  -28.8475    8.8870 C.3       14 UNK         0.0141 
     16 S16       -55.9889  -29.8773    9.6754 S.3       14 UNK        -0.2313 
     17 C17       -57.4357  -28.7704    9.5537 C.3       14 UNK        -0.0915 
     18 CA        -57.4544  -27.6514   10.6298 C.3       13 UNK         0.0968 
     19 C         -58.6852  -26.7168   10.4453 C.2       13 UNK         0.5732 
     20 N         -59.5964  -26.6136   11.4056 N.am      13 UNK        -0.7310 
     21 O         -58.8107  -26.0655    9.4109 O.2       13 UNK        -0.5035 
     22 N         -57.2922  -28.1990   11.9850 N.am      13 UNK        -0.4233 
     23 C         -56.8189  -27.5190   13.0351 C.2       13 UNK         0.4989 
     24 O         -56.5108  -26.3261   12.9978 O.2       13 UNK        -0.4996 
     25 CA        -56.6569  -28.2884   14.3609 C.3       12 UNK         0.0216 
     26 CB        -57.1402  -29.7576   14.3169 C.3       12 UNK        -0.1964 
     27 N         -55.2786  -28.2138   14.8554 N.am      12 UNK        -0.4276 
     28 C         -54.1630  -28.6314   14.2409 C.2       12 UNK         0.5020 
     29 O         -54.1433  -29.1729   13.1342 O.2       12 UNK        -0.5489 
     30 CA        -52.8457  -28.3986   15.0053 C.3       11 UNK         0.0294 
     31 CB        -51.6357  -29.0489   14.3101 C.3       11 UNK        -0.2019 
     32 N         -52.5560  -26.9779   15.2038 N.am      11 UNK        -0.4493 
     33 C         -53.1503  -26.1660   16.0875 C.2       11 UNK         0.4932 
     34 O         -54.0955  -26.5070   16.8028 O.2       11 UNK        -0.5029 
     35 CA        -52.5408  -24.7564   16.2087 C.3       10 UNK         0.0280 
     36 CB        -53.2208  -23.8862   17.2863 C.3       10 UNK        -0.1976 
     37 N         -51.0895  -24.8238   16.4202 N.am      10 UNK        -0.4242 
     38 C         -50.4385  -25.4400   17.4215 C.2       10 UNK         0.5072 
     39 O         -50.9926  -25.9426   18.4002 O.2       10 UNK        -0.5224 
     40 CA        -48.9074  -25.5571   17.3072 C.3       9 UNK         0.0343 
     41 CB        -48.5183  -27.0052   16.9655 C.3       9 UNK        -0.2003 
     42 N         -48.3229  -24.6574   16.3094 N.am      9 UNK        -0.4272 
     43 C         -48.1438  -23.3417   16.4936 C.2       9 UNK         0.4988 
     44 O         -48.4011  -22.7558   17.5458 O.2       9 UNK        -0.5108 
     45 CA        -47.6118  -22.5372   15.2959 C.3       8 UNK         0.0248 
     46 CB        -46.0849  -22.6739   15.1876 C.3       8 UNK        -0.2001 
     47 N         -48.2326  -22.9106   14.0212 N.am      8 UNK        -0.4140 
     48 C         -49.5372  -22.7869   13.7348 C.2       8 UNK         0.5028 
     49 O         -50.3760  -22.3497   14.5219 O.2       8 UNK        -0.5428 
     50 CA        -49.9935  -23.2682   12.3495 C.3       7 UNK         0.0264 
     51 CB        -49.6599  -22.2354   11.2613 C.3       7 UNK        -0.1988 
     52 N         -49.4100  -24.5641   12.0052 N.am      7 UNK        -0.4454 
     53 C         -49.7846  -25.7259   12.5598 C.2       7 UNK         0.5027 
     54 O         -50.6944  -25.8299   13.3840 O.2       7 UNK        -0.5083 
     55 CA        -48.9900  -26.9803   12.1498 C.3       6 UNK         0.0844 
     56 C56       -49.5985  -27.6175   10.8770 C.3       14 UNK        -0.0967 
     57 S57       -48.8516  -29.2375   10.4965 S.3       14 UNK        -0.2604 
     58 C58       -50.2517  -30.3755   10.7453 C.3       14 UNK         0.0134 
     59 N         -47.5580  -26.6908   12.0111 N.am      6 UNK        -0.4116 
     60 C         -46.7566  -26.3507   13.0319 C.2       5 UNK         0.5034 
     61 O         -47.1389  -26.2435   14.1961 O.2       5 UNK        -0.5045 
     62 CA        -45.2905  -26.0257   12.7023 C.3       5 UNK         0.0224 
     63 CB        -44.4507  -27.3120   12.6615 C.3       5 UNK        -0.1978 
     64 N         -45.1142  -25.2857   11.4505 N.am      5 UNK        -0.4737 
     65 C         -45.6690  -24.0995   11.1669 C.2       4 UNK         0.5027 
     66 O         -46.4071  -23.4889   11.9402 O.2       4 UNK        -0.5211 
     67 CA        -45.3974  -23.5026    9.7739 C.3       4 UNK         0.0297 
     68 CB        -44.2985  -24.2388    8.9730 C.3       4 UNK        -0.1993 
     69 N         -46.6255  -23.4061    8.9758 N.am      4 UNK        -0.4486 
     70 C         -47.4710  -24.4032    8.6783 C.2       3 UNK         0.4961 
     71 O         -47.3593  -25.5569    9.1024 O.2       3 UNK        -0.5105 
     72 CA        -48.6307  -24.0438    7.7411 C.3       3 UNK         0.0299 
     73 CB        -48.1163  -23.6096    6.3543 C.3       3 UNK        -0.1972 
     74 N         -49.5009  -25.2059    7.5971 N.am      3 UNK        -0.4305 
     75 C         -50.7980  -25.1918    7.2812 C.2       2 UNK         0.5006 
     76 O         -51.4345  -24.1553    7.0826 O.2       2 UNK        -0.5106 
     77 CA        -51.4883  -26.5663    7.1349 C.3       2 UNK         0.0296 
     78 CB        -52.9882  -26.4315    6.8117 C.3       2 UNK        -0.2002 
     79 N         -50.8683  -27.3944    6.0956 N.am      2 UNK        -0.4032 
     80 C         -49.6838  -28.0126    6.1908 C.2       1 UNK         0.5000 
     81 O         -48.9671  -27.9684    7.1928 O.2       1 UNK        -0.5238 
     82 H82       -48.6745  -26.6758    2.8231 H         1 UNK         0.0889 
     83 H83       -47.4674  -25.4959    3.3162 H         1 UNK         0.0889 
     84 H84       -48.7571  -25.9276    4.4278 H         1 UNK         0.0889 
     85 H85       -47.1634  -29.2520    5.1227 H         1 UNK         0.3028 
     86 H86       -49.7350  -28.4116    4.0710 H         1 UNK         0.0864 
     87 H87       -48.8931  -30.8554    4.3458 H         1 UNK         0.0720 
     88 H88       -49.2108  -30.6851    6.0479 H         1 UNK         0.0720 
     89 H89       -50.9117  -32.5246    6.2421 H         1 UNK         0.0814 
     90 H90       -52.5917  -32.3228    5.8301 H         1 UNK         0.0814 
     91 H91       -50.0727  -31.5323    8.2937 H         1 UNK         0.1469 
     92 H92       -52.6869  -29.1165   10.6881 H         1 UNK         0.1381 
     93 H93       -53.8690  -30.2846    6.7358 H         1 UNK         0.1206 
     94 H94       -54.5525  -27.9490    9.4833 H         1 UNK         0.0813 
     95 H95       -55.0828  -28.5144    7.9151 H         1 UNK         0.0813 
     96 H96       -57.4607  -28.3426    8.5496 H         1 UNK         0.0638 
     97 H97       -58.3314  -29.3880    9.6399 H         1 UNK         0.0638 
     98 H98       -56.5882  -27.0150   10.4407 H         1 UNK         0.0568 
     99 H99       -59.5033  -27.1410   12.2582 H         1 UNK         0.3450 
    100 H100      -60.3855  -26.0009   11.2730 H         1 UNK         0.3450 
    101 H101      -57.4995  -29.1802   12.0937 H         1 UNK         0.2987 
    102 H102      -57.2727  -27.7616   15.0913 H         1 UNK         0.0766 
    103 H103      -57.0362  -30.2298   15.2939 H         1 UNK         0.0798 
    104 H104      -56.5745  -30.3582   13.6033 H         1 UNK         0.0798 
    105 H105      -58.1954  -29.8212   14.0478 H         1 UNK         0.0798 
    106 H106      -55.1435  -27.6957   15.7208 H         1 UNK         0.3198 
    107 H107      -52.9549  -28.8678   15.9856 H         1 UNK         0.0843 
    108 H108      -51.4599  -28.6071   13.3295 H         1 UNK         0.0831 
    109 H109      -51.7941  -30.1183   14.1654 H         1 UNK         0.0831 
    110 H110      -50.7264  -28.9322   14.8996 H         1 UNK         0.0831 
    111 H111      -51.8302  -26.5810   14.6083 H         1 UNK         0.3133 
    112 H112      -52.6891  -24.2677   15.2445 H         1 UNK         0.0566 
    113 H113      -52.7762  -22.8920   17.3288 H         1 UNK         0.0814 
    114 H114      -54.2821  -23.7587   17.0696 H         1 UNK         0.0814 
    115 H115      -53.1442  -24.3311   18.2788 H         1 UNK         0.0814 
    116 H116      -50.5309  -24.4318   15.6735 H         1 UNK         0.3091 
    117 H117      -48.4852  -25.3132   18.2844 H         1 UNK         0.0702 
    118 H118      -48.8922  -27.7006   17.7183 H         1 UNK         0.0785 
    119 H119      -48.9288  -27.3146   16.0033 H         1 UNK         0.0785 
    120 H120      -47.4357  -27.1261   16.9222 H         1 UNK         0.0785 
    121 H121      -48.0221  -25.0842   15.4361 H         1 UNK         0.2998 
    122 H122      -47.8459  -21.4858   15.4750 H         1 UNK         0.0697 
    123 H123      -45.7861  -23.7047   14.9973 H         1 UNK         0.0825 
    124 H124      -45.5977  -22.3576   16.1109 H         1 UNK         0.0825 
    125 H125      -45.6868  -22.0563   14.3823 H         1 UNK         0.0825 
    126 H126      -47.6039  -23.2379   13.2888 H         1 UNK         0.3029 
    127 H127      -51.0800  -23.3800   12.3821 H         1 UNK         0.0897 
    128 H128      -50.0892  -22.5238   10.3023 H         1 UNK         0.0792 
    129 H129      -48.5848  -22.1117   11.1281 H         1 UNK         0.0792 
    130 H130      -50.0707  -21.2572   11.5150 H         1 UNK         0.0792 
    131 H131      -48.6094  -24.5595   11.3884 H         1 UNK         0.3086 
    132 H132      -49.0960  -27.6985   12.9659 H         1 UNK         0.0583 
    133 H133      -50.6772  -27.7366   10.9872 H         1 UNK         0.1020 
    134 H134      -49.4578  -26.9683   10.0117 H         1 UNK         0.1020 
    135 H135      -49.8617  -31.3914   10.8233 H         1 UNK         0.0694 
    136 H136      -50.7325  -30.1668   11.7009 H         1 UNK         0.0694 
    137 H137      -47.1822  -26.7065   11.0706 H         1 UNK         0.2989 
    138 H138      -44.9090  -25.3965   13.5087 H         1 UNK         0.1055 
    139 H139      -43.3911  -27.0913   12.5305 H         1 UNK         0.0806 
    140 H140      -44.7603  -27.9725   11.8505 H         1 UNK         0.0806 
    141 H141      -44.5496  -27.8716   13.5930 H         1 UNK         0.0806 
    142 H142      -44.5490  -25.7249   10.7383 H         1 UNK         0.3061 
    143 H143      -45.0536  -22.4815    9.9460 H         1 UNK         0.0734 
    144 H144      -44.0884  -23.7209    8.0371 H         1 UNK         0.0832 
    145 H145      -43.3606  -24.2775    9.5290 H         1 UNK         0.0832 
    146 H146      -44.5829  -25.2612    8.7208 H         1 UNK         0.0832 
    147 H147      -46.8311  -22.4855    8.6130 H         1 UNK         0.3156 
    148 H148      -49.1935  -23.2265    8.1949 H         1 UNK         0.0589 
    149 H149      -47.4724  -24.3700    5.9109 H         1 UNK         0.0808 
    150 H150      -48.9381  -23.4215    5.6631 H         1 UNK         0.0808 
    151 H151      -47.5363  -22.6884    6.4150 H         1 UNK         0.0808 
    152 H152      -49.0457  -26.1044    7.7579 H         1 UNK         0.3098 
    153 H153      -51.3945  -27.0887    8.0897 H         1 UNK         0.0720 
    154 H154      -53.4494  -27.4060    6.6609 H         1 UNK         0.0791 
    155 H155      -53.1571  -25.8468    5.9064 H         1 UNK         0.0791 
    156 H156      -53.5206  -25.9378    7.6256 H         1 UNK         0.0791 
    157 H157      -51.3903  -27.4838    5.2360 H         1 UNK         0.3028 
@<TRIPOS>BOND
     1    1    2 1    
     2    1   82 1    
     3    1   83 1    
     4    1   84 1    
     5    2    3 2    
     6    2    4 am   BACKBONE|DICT|INTERRES
     7    4    5 1    
     8    4   85 1    
     9    5    6 1    
    10    5   80 1    
    11    5   86 1    
    12    6    7 1    
    13    6   87 1    
    14    6   88 1    
    15    7    8 1    
    16    8    9 1    
    17    8   89 1    
    18    8   90 1    
    19    9   10 ar   
    20    9   14 ar   
    21   10   11 ar   
    22   10   91 1    
    23   11   12 ar   
    24   11   58 1    
    25   12   13 ar   
    26   12   92 1    
    27   13   14 ar   
    28   13   15 1    
    29   14   93 1    
    30   15   16 1    
    31   15   94 1    
    32   15   95 1    
    33   16   17 1    
    34   17   18 1    
    35   17   96 1    
    36   17   97 1    
    37   18   19 1    
    38   18   22 1    
    39   18   98 1    
    40   19   20 am   BACKBONE|DICT|INTERRES
    41   19   21 2    
    42   20   99 1    
    43   20  100 1    
    44   22   23 am   BACKBONE|DICT|INTERRES
    45   22  101 1    
    46   23   24 2    
    47   23   25 1    
    48   25   26 1    
    49   25   27 1    
    50   25  102 1    
    51   26  103 1    
    52   26  104 1    
    53   26  105 1    
    54   27   28 am   BACKBONE|DICT|INTERRES
    55   27  106 1    
    56   28   29 2    
    57   28   30 1    
    58   30   31 1    
    59   30   32 1    
    60   30  107 1    
    61   31  108 1    
    62   31  109 1    
    63   31  110 1    
    64   32   33 am   BACKBONE|DICT|INTERRES
    65   32  111 1    
    66   33   34 2    
    67   33   35 1    
    68   35   36 1    
    69   35   37 1    
    70   35  112 1    
    71   36  113 1    
    72   36  114 1    
    73   36  115 1    
    74   37   38 am   BACKBONE|DICT|INTERRES
    75   37  116 1    
    76   38   39 2    
    77   38   40 1    
    78   40   41 1    
    79   40   42 1    
    80   40  117 1    
    81   41  118 1    
    82   41  119 1    
    83   41  120 1    
    84   42   43 am   BACKBONE|DICT|INTERRES
    85   42  121 1    
    86   43   44 2    
    87   43   45 1    
    88   45   46 1    
    89   45   47 1    
    90   45  122 1    
    91   46  123 1    
    92   46  124 1    
    93   46  125 1    
    94   47   48 am   BACKBONE|DICT|INTERRES
    95   47  126 1    
    96   48   49 2    
    97   48   50 1    
    98   50   51 1    
    99   50   52 1    
   100   50  127 1    
   101   51  128 1    
   102   51  129 1    
   103   51  130 1    
   104   52   53 am   BACKBONE|DICT|INTERRES
   105   52  131 1    
   106   53   54 2    
   107   53   55 1    
   108   55   56 1    
   109   55   59 1    
   110   55  132 1    
   111   56   57 1    
   112   56  133 1    
   113   56  134 1    
   114   57   58 1    
   115   58  135 1    
   116   58  136 1    
   117   59   60 am   BACKBONE|DICT|INTERRES
   118   59  137 1    
   119   60   61 2    
   120   60   62 1    
   121   62   63 1    
   122   62   64 1    
   123   62  138 1    
   124   63  139 1    
   125   63  140 1    
   126   63  141 1    
   127   64   65 am   BACKBONE|DICT|INTERRES
   128   64  142 1    
   129   65   66 2    
   130   65   67 1    
   131   67   68 1    
   132   67   69 1    
   133   67  143 1    
   134   68  144 1    
   135   68  145 1    
   136   68  146 1    
   137   69   70 am   BACKBONE|DICT|INTERRES
   138   69  147 1    
   139   70   71 2    
   140   70   72 1    
   141   72   73 1    
   142   72   74 1    
   143   72  148 1    
   144   73  149 1    
   145   73  150 1    
   146   73  151 1    
   147   74   75 am   BACKBONE|DICT|INTERRES
   148   74  152 1    
   149   75   76 2    
   150   75   77 1    
   151   77   78 1    
   152   77   79 1    
   153   77  153 1    
   154   78  154 1    
   155   78  155 1    
   156   78  156 1    
   157   79   80 am   BACKBONE|DICT|INTERRES
   158   79  157 1    
   159   80   81 2    
@<TRIPOS>SUBSTRUCTURE
     1 UNK         1 GROUP             0       ****    0 ROOT    
