@<TRIPOS>MOLECULE
3R207
157   159    1
SMALL
USER_CHARGES


@<TRIPOS>ATOM
      1 CA        -47.1298  -28.4623    0.1949 C.3       0 UNK        -0.1975 
      2 C         -48.0587  -28.9659    1.2902 C.2       0 UNK         0.4852 
      3 O         -48.5231  -30.1047    1.2210 O.2       0 UNK        -0.5216 
      4 N         -48.3325  -28.1269    2.2954 N.am      1 UNK        -0.4461 
      5 CA        -49.2281  -28.4220    3.4146 C.3       1 UNK         0.0864 
      6 C6        -48.5740  -29.3394    4.4843 C.3       14 UNK        -0.0898 
      7 S7        -49.7813  -30.0003    5.6828 S.3       14 UNK        -0.2598 
      8 C8        -49.3395  -29.0928    7.1983 C.3       14 UNK         0.0286 
      9 C9        -50.5844  -28.6947    7.9732 C.ar      14 UNK        -0.0844 
     10 C10       -51.2096  -27.4769    7.6992 C.ar      14 UNK        -0.0881 
     11 C11       -52.3320  -27.0728    8.4269 C.ar      14 UNK        -0.0643 
     12 C12       -52.8510  -27.9141    9.4141 C.ar      14 UNK        -0.0930 
     13 C13       -52.2323  -29.1353    9.6999 C.ar      14 UNK        -0.0827 
     14 C14       -51.1009  -29.5227    8.9739 C.ar      14 UNK        -0.1249 
     15 C15       -52.7733  -30.0228   10.8090 C.3       14 UNK         0.0141 
     16 S16       -52.5313  -29.2432   12.4329 S.3       14 UNK        -0.2313 
     17 C17       -52.8870  -30.6336   13.5566 C.3       14 UNK        -0.0915 
     18 CA        -54.3754  -30.7331   13.9841 C.3       13 UNK         0.0968 
     19 C         -54.5780  -31.9539   14.9296 C.2       13 UNK         0.5732 
     20 N         -54.8518  -31.7635   16.2150 N.am      13 UNK        -0.7310 
     21 O         -54.4854  -33.0955   14.4844 O.2       13 UNK        -0.5035 
     22 N         -54.8929  -29.4504   14.4908 N.am      13 UNK        -0.4233 
     23 C         -56.1848  -29.1746   14.7152 C.2       13 UNK         0.4989 
     24 O         -57.1026  -29.9773   14.5417 O.2       13 UNK        -0.4996 
     25 CA        -56.5133  -27.7572   15.2106 C.3       12 UNK         0.0216 
     26 CB        -56.4477  -27.6955   16.7449 C.3       12 UNK        -0.1964 
     27 N         -55.6406  -26.7309   14.6276 N.am      12 UNK        -0.4276 
     28 C         -55.7381  -26.3088   13.3559 C.2       12 UNK         0.5020 
     29 O         -56.5625  -26.7688   12.5637 O.2       12 UNK        -0.5489 
     30 CA        -54.7732  -25.2121   12.8537 C.3       11 UNK         0.0294 
     31 CB        -55.5074  -24.1372   12.0257 C.3       11 UNK        -0.2019 
     32 N         -53.9377  -24.5833   13.8821 N.am      11 UNK        -0.4493 
     33 C         -54.3100  -23.8623   14.9480 C.2       11 UNK         0.4932 
     34 O         -55.4782  -23.5832   15.2218 O.2       11 UNK        -0.5029 
     35 CA        -53.1607  -23.4376   15.8894 C.3       10 UNK         0.0280 
     36 CB        -53.6678  -22.8678   17.2305 C.3       10 UNK        -0.1976 
     37 N         -52.1880  -24.5174   16.1300 N.am      10 UNK        -0.4242 
     38 C         -52.4595  -25.7584   16.5681 C.2       10 UNK         0.5072 
     39 O         -53.5983  -26.1498   16.8250 O.2       10 UNK        -0.5224 
     40 CA        -51.2968  -26.7559   16.7117 C.3       9 UNK         0.0343 
     41 CB        -51.6294  -28.0807   16.0049 C.3       9 UNK        -0.2003 
     42 N         -50.0291  -26.2449   16.1835 N.am      9 UNK        -0.4272 
     43 C         -49.0654  -25.6931   16.9332 C.2       9 UNK         0.4988 
     44 O         -49.1546  -25.5227   18.1497 O.2       9 UNK        -0.5108 
     45 CA        -47.7821  -25.2514   16.2096 C.3       8 UNK         0.0248 
     46 CB        -46.8646  -26.4572   15.9530 C.3       8 UNK        -0.2001 
     47 N         -48.0241  -24.5414   14.9513 N.am      8 UNK        -0.4140 
     48 C         -48.6610  -23.3658   14.8469 C.2       8 UNK         0.5028 
     49 O         -49.1690  -22.7690   15.7964 O.2       8 UNK        -0.5428 
     50 CA        -48.7666  -22.7624   13.4386 C.3       7 UNK         0.0264 
     51 CB        -47.4385  -22.1186   13.0068 C.3       7 UNK        -0.1988 
     52 N         -49.1740  -23.7605   12.4521 N.am      7 UNK        -0.4454 
     53 C         -50.4172  -24.2529   12.3586 C.2       7 UNK         0.5027 
     54 O         -51.3472  -23.8982   13.0799 O.2       7 UNK        -0.5083 
     55 CA        -50.6493  -25.3490   11.3015 C.3       6 UNK         0.0844 
     56 C56       -50.8960  -24.7192    9.9012 C.3       14 UNK        -0.0967 
     57 S57       -52.6803  -24.5429    9.5497 S.3       14 UNK        -0.2604 
     58 C58       -52.9517  -25.7068    8.1694 C.3       14 UNK         0.0134 
     59 N         -49.5699  -26.3408   11.3021 N.am      6 UNK        -0.4116 
     60 C         -49.2448  -27.1098   12.3547 C.2       5 UNK         0.5034 
     61 O         -49.8254  -27.0756   13.4392 O.2       5 UNK        -0.5045 
     62 CA        -48.0161  -28.0224   12.2063 C.3       5 UNK         0.0224 
     63 CB        -48.4215  -29.3708   11.5919 C.3       5 UNK        -0.1978 
     64 N         -46.9377  -27.4279   11.4128 N.am      5 UNK        -0.4737 
     65 C         -46.3457  -26.2504   11.6576 C.2       4 UNK         0.5027 
     66 O         -46.6005  -25.5436   12.6339 O.2       4 UNK        -0.5211 
     67 CA        -45.3533  -25.7363   10.5991 C.3       4 UNK         0.0297 
     68 CB        -44.7620  -26.8507    9.7057 C.3       4 UNK        -0.1993 
     69 N         -45.9447  -24.6792    9.7674 N.am      4 UNK        -0.4486 
     70 C         -47.0806  -24.7449    9.0545 C.2       3 UNK         0.4961 
     71 O         -47.8351  -25.7212    9.0545 O.2       3 UNK        -0.5105 
     72 CA        -47.4669  -23.4981    8.2289 C.3       3 UNK         0.0299 
     73 CB        -46.2556  -22.6456    7.7866 C.3       3 UNK        -0.1972 
     74 N         -48.3102  -23.8400    7.0745 N.am      3 UNK        -0.4305 
     75 C         -47.9887  -24.6597    6.0626 C.2       2 UNK         0.5006 
     76 O         -46.8817  -25.1839    5.9054 O.2       2 UNK        -0.5106 
     77 CA        -49.0954  -24.9355    5.0403 C.3       2 UNK         0.0296 
     78 CB        -49.1442  -23.8400    3.9606 C.3       2 UNK        -0.2002 
     79 N         -48.8242  -26.2299    4.4230 N.am      2 UNK        -0.4032 
     80 C         -49.7488  -27.0927    3.9857 C.2       1 UNK         0.5000 
     81 O         -50.9587  -26.8598    3.9889 O.2       1 UNK        -0.5238 
     82 H82       -46.7947  -27.4419    0.3797 H         1 UNK         0.0889 
     83 H83       -47.6398  -28.4824   -0.7678 H         1 UNK         0.0889 
     84 H84       -46.2494  -29.1008    0.1275 H         1 UNK         0.0889 
     85 H85       -47.9615  -27.1867    2.2711 H         1 UNK         0.3028 
     86 H86       -50.0970  -28.9452    3.0076 H         1 UNK         0.0864 
     87 H87       -48.1211  -30.2037    3.9967 H         1 UNK         0.0720 
     88 H88       -47.7529  -28.8349    4.9960 H         1 UNK         0.0720 
     89 H89       -48.6886  -29.7153    7.8140 H         1 UNK         0.0814 
     90 H90       -48.7650  -28.1960    6.9603 H         1 UNK         0.0814 
     91 H91       -50.8062  -26.8326    6.9314 H         1 UNK         0.1469 
     92 H92       -53.7139  -27.6011    9.9861 H         1 UNK         0.1381 
     93 H93       -50.6149  -30.4638    9.1926 H         1 UNK         0.1206 
     94 H94       -52.2791  -30.9952   10.7924 H         1 UNK         0.0813 
     95 H95       -53.8364  -30.2077   10.6492 H         1 UNK         0.0813 
     96 H96       -52.2526  -30.5104   14.4359 H         1 UNK         0.0638 
     97 H97       -52.5595  -31.5610   13.0834 H         1 UNK         0.0638 
     98 H98       -54.9526  -30.9592   13.0856 H         1 UNK         0.0568 
     99 H99       -54.9833  -32.5629   16.8142 H         1 UNK         0.3450 
    100 H100      -54.9331  -30.8326   16.5890 H         1 UNK         0.3450 
    101 H101      -54.2092  -28.7250   14.6401 H         1 UNK         0.2987 
    102 H102      -57.5403  -27.5332   14.9135 H         1 UNK         0.0766 
    103 H103      -56.6722  -26.6941   17.1130 H         1 UNK         0.0798 
    104 H104      -55.4645  -27.9781   17.1222 H         1 UNK         0.0798 
    105 H105      -57.1735  -28.3762   17.1920 H         1 UNK         0.0798 
    106 H106      -54.9521  -26.3093   15.2438 H         1 UNK         0.3198 
    107 H107      -54.0775  -25.7206   12.1844 H         1 UNK         0.0843 
    108 H108      -54.8142  -23.3837   11.6519 H         1 UNK         0.0831 
    109 H109      -56.2744  -23.6292   12.6108 H         1 UNK         0.0831 
    110 H110      -55.9987  -24.5783   11.1576 H         1 UNK         0.0831 
    111 H111      -52.9345  -24.6458   13.7202 H         1 UNK         0.3133 
    112 H112      -52.6177  -22.6441   15.3739 H         1 UNK         0.0566 
    113 H113      -52.8402  -22.5456   17.8623 H         1 UNK         0.0814 
    114 H114      -54.3089  -22.0001   17.0701 H         1 UNK         0.0814 
    115 H115      -54.2488  -23.6038   17.7875 H         1 UNK         0.0814 
    116 H116      -51.2244  -24.2933   15.9187 H         1 UNK         0.3091 
    117 H117      -51.1948  -26.9697   17.7775 H         1 UNK         0.0702 
    118 H118      -52.4980  -28.5623   16.4556 H         1 UNK         0.0785 
    119 H119      -50.8005  -28.7858   16.0672 H         1 UNK         0.0785 
    120 H120      -51.8525  -27.9194   14.9510 H         1 UNK         0.0785 
    121 H121      -49.8736  -26.3804   15.1859 H         1 UNK         0.2998 
    122 H122      -47.2533  -24.5622   16.8713 H         1 UNK         0.0697 
    123 H123      -47.3380  -27.1904   15.3007 H         1 UNK         0.0825 
    124 H124      -46.6163  -26.9641   16.8865 H         1 UNK         0.0825 
    125 H125      -45.9261  -26.1524   15.4892 H         1 UNK         0.0825 
    126 H126      -47.6123  -24.9449   14.1122 H         1 UNK         0.3029 
    127 H127      -49.5270  -21.9784   13.4691 H         1 UNK         0.0897 
    128 H128      -47.5311  -21.6337   12.0348 H         1 UNK         0.0792 
    129 H129      -47.1278  -21.3545   13.7206 H         1 UNK         0.0792 
    130 H130      -46.6313  -22.8490   12.9410 H         1 UNK         0.0792 
    131 H131      -48.4428  -24.1695   11.8876 H         1 UNK         0.3086 
    132 H132      -51.5420  -25.9020   11.6032 H         1 UNK         0.0583 
    133 H133      -50.4255  -23.7394    9.7978 H         1 UNK         0.1020 
    134 H134      -50.4355  -25.3203    9.1198 H         1 UNK         0.1020 
    135 H135      -54.0244  -25.8207    8.0077 H         1 UNK         0.0694 
    136 H136      -52.5495  -25.2670    7.2554 H         1 UNK         0.0694 
    137 H137      -48.9963  -26.3918   10.4646 H         1 UNK         0.2989 
    138 H138      -47.6246  -28.2079   13.2076 H         1 UNK         0.1055 
    139 H139      -49.2482  -29.8208   12.1446 H         1 UNK         0.0806 
    140 H140      -47.5950  -30.0811   11.6101 H         1 UNK         0.0806 
    141 H141      -48.7455  -29.2577   10.5575 H         1 UNK         0.0806 
    142 H142      -46.6892  -27.9055   10.5588 H         1 UNK         0.3061 
    143 H143      -44.5289  -25.2817   11.1508 H         1 UNK         0.0734 
    144 H144      -43.9657  -26.4578    9.0734 H         1 UNK         0.0832 
    145 H145      -44.3252  -27.6495   10.3068 H         1 UNK         0.0832 
    146 H146      -45.5074  -27.2970    9.0463 H         1 UNK         0.0832 
    147 H147      -45.4193  -23.8171    9.7298 H         1 UNK         0.3156 
    148 H148      -48.0851  -22.8814    8.8827 H         1 UNK         0.0589 
    149 H149      -45.5202  -23.2363    7.2385 H         1 UNK         0.0808 
    150 H150      -46.5680  -21.8263    7.1389 H         1 UNK         0.0808 
    151 H151      -45.7494  -22.1935    8.6400 H         1 UNK         0.0808 
    152 H152      -49.2489  -23.4678    7.1006 H         1 UNK         0.3098 
    153 H153      -50.0517  -24.9712    5.5666 H         1 UNK         0.0720 
    154 H154      -49.9352  -24.0335    3.2358 H         1 UNK         0.0791 
    155 H155      -48.2015  -23.7694    3.4162 H         1 UNK         0.0791 
    156 H156      -49.3417  -22.8621    4.4013 H         1 UNK         0.0791 
    157 H157      -47.8490  -26.5017    4.4629 H         1 UNK         0.3028 
@<TRIPOS>BOND
     1    1    2 1    
     2    1   82 1    
     3    1   83 1    
     4    1   84 1    
     5    2    3 2    
     6    2    4 am   BACKBONE|DICT|INTERRES
     7    4    5 1    
     8    4   85 1    
     9    5    6 1    
    10    5   80 1    
    11    5   86 1    
    12    6    7 1    
    13    6   87 1    
    14    6   88 1    
    15    7    8 1    
    16    8    9 1    
    17    8   89 1    
    18    8   90 1    
    19    9   10 ar   
    20    9   14 ar   
    21   10   11 ar   
    22   10   91 1    
    23   11   12 ar   
    24   11   58 1    
    25   12   13 ar   
    26   12   92 1    
    27   13   14 ar   
    28   13   15 1    
    29   14   93 1    
    30   15   16 1    
    31   15   94 1    
    32   15   95 1    
    33   16   17 1    
    34   17   18 1    
    35   17   96 1    
    36   17   97 1    
    37   18   19 1    
    38   18   22 1    
    39   18   98 1    
    40   19   20 am   BACKBONE|DICT|INTERRES
    41   19   21 2    
    42   20   99 1    
    43   20  100 1    
    44   22   23 am   BACKBONE|DICT|INTERRES
    45   22  101 1    
    46   23   24 2    
    47   23   25 1    
    48   25   26 1    
    49   25   27 1    
    50   25  102 1    
    51   26  103 1    
    52   26  104 1    
    53   26  105 1    
    54   27   28 am   BACKBONE|DICT|INTERRES
    55   27  106 1    
    56   28   29 2    
    57   28   30 1    
    58   30   31 1    
    59   30   32 1    
    60   30  107 1    
    61   31  108 1    
    62   31  109 1    
    63   31  110 1    
    64   32   33 am   BACKBONE|DICT|INTERRES
    65   32  111 1    
    66   33   34 2    
    67   33   35 1    
    68   35   36 1    
    69   35   37 1    
    70   35  112 1    
    71   36  113 1    
    72   36  114 1    
    73   36  115 1    
    74   37   38 am   BACKBONE|DICT|INTERRES
    75   37  116 1    
    76   38   39 2    
    77   38   40 1    
    78   40   41 1    
    79   40   42 1    
    80   40  117 1    
    81   41  118 1    
    82   41  119 1    
    83   41  120 1    
    84   42   43 am   BACKBONE|DICT|INTERRES
    85   42  121 1    
    86   43   44 2    
    87   43   45 1    
    88   45   46 1    
    89   45   47 1    
    90   45  122 1    
    91   46  123 1    
    92   46  124 1    
    93   46  125 1    
    94   47   48 am   BACKBONE|DICT|INTERRES
    95   47  126 1    
    96   48   49 2    
    97   48   50 1    
    98   50   51 1    
    99   50   52 1    
   100   50  127 1    
   101   51  128 1    
   102   51  129 1    
   103   51  130 1    
   104   52   53 am   BACKBONE|DICT|INTERRES
   105   52  131 1    
   106   53   54 2    
   107   53   55 1    
   108   55   56 1    
   109   55   59 1    
   110   55  132 1    
   111   56   57 1    
   112   56  133 1    
   113   56  134 1    
   114   57   58 1    
   115   58  135 1    
   116   58  136 1    
   117   59   60 am   BACKBONE|DICT|INTERRES
   118   59  137 1    
   119   60   61 2    
   120   60   62 1    
   121   62   63 1    
   122   62   64 1    
   123   62  138 1    
   124   63  139 1    
   125   63  140 1    
   126   63  141 1    
   127   64   65 am   BACKBONE|DICT|INTERRES
   128   64  142 1    
   129   65   66 2    
   130   65   67 1    
   131   67   68 1    
   132   67   69 1    
   133   67  143 1    
   134   68  144 1    
   135   68  145 1    
   136   68  146 1    
   137   69   70 am   BACKBONE|DICT|INTERRES
   138   69  147 1    
   139   70   71 2    
   140   70   72 1    
   141   72   73 1    
   142   72   74 1    
   143   72  148 1    
   144   73  149 1    
   145   73  150 1    
   146   73  151 1    
   147   74   75 am   BACKBONE|DICT|INTERRES
   148   74  152 1    
   149   75   76 2    
   150   75   77 1    
   151   77   78 1    
   152   77   79 1    
   153   77  153 1    
   154   78  154 1    
   155   78  155 1    
   156   78  156 1    
   157   79   80 am   BACKBONE|DICT|INTERRES
   158   79  157 1    
   159   80   81 2    
@<TRIPOS>SUBSTRUCTURE
     1 UNK         1 GROUP             0       ****    0 ROOT    
