@<TRIPOS>MOLECULE
3R207
157   159    1
SMALL
USER_CHARGES


@<TRIPOS>ATOM
      1 CA        -44.8182  -27.9413    5.5848 C.3       0 UNK        -0.1975 
      2 C         -46.1477  -27.4343    5.0460 C.2       0 UNK         0.4852 
      3 O         -46.1657  -26.6659    4.0832 O.2       0 UNK        -0.5216 
      4 N         -47.2586  -27.8663    5.6561 N.am      1 UNK        -0.4461 
      5 CA        -48.6187  -27.4015    5.3629 C.3       1 UNK         0.0864 
      6 C6        -49.6834  -28.4012    5.8863 C.3       14 UNK        -0.0898 
      7 S7        -49.5663  -28.7547    7.6718 S.3       14 UNK        -0.2598 
      8 C8        -50.7966  -30.0863    7.8299 C.3       14 UNK         0.0286 
      9 C9        -51.0398  -30.4232    9.2924 C.ar      14 UNK        -0.0844 
     10 C10       -50.0955  -31.1652   10.0058 C.ar      14 UNK        -0.0881 
     11 C11       -50.2800  -31.4306   11.3659 C.ar      14 UNK        -0.0643 
     12 C12       -51.4289  -30.9631   12.0095 C.ar      14 UNK        -0.0930 
     13 C13       -52.3856  -30.2290   11.3023 C.ar      14 UNK        -0.0827 
     14 C14       -52.1919  -29.9708    9.9427 C.ar      14 UNK        -0.1249 
     15 C15       -53.5948  -29.6596   12.0228 C.3       14 UNK         0.0141 
     16 S16       -55.0973  -30.6357   11.7397 S.3       14 UNK        -0.2313 
     17 C17       -56.2007  -29.9232   13.0078 C.3       14 UNK        -0.0915 
     18 CA        -57.0460  -28.7299   12.4862 C.3       13 UNK         0.0968 
     19 C         -58.2367  -28.4178   13.4413 C.2       13 UNK         0.5732 
     20 N         -58.3726  -27.2177   13.9938 N.am      13 UNK        -0.7310 
     21 O         -59.0730  -29.2871   13.6767 O.2       13 UNK        -0.5035 
     22 N         -56.2070  -27.5595   12.1820 N.am      13 UNK        -0.4233 
     23 C         -56.5102  -26.6276   11.2694 C.2       13 UNK         0.4989 
     24 O         -57.4819  -26.7103   10.5152 O.2       13 UNK        -0.4996 
     25 CA        -55.5793  -25.3970   11.1779 C.3       12 UNK         0.0216 
     26 CB        -56.2785  -24.1747   10.5465 C.3       12 UNK        -0.1964 
     27 N         -54.9491  -25.0104   12.4469 N.am      12 UNK        -0.4276 
     28 C         -55.5482  -24.7437   13.6158 C.2       12 UNK         0.5020 
     29 O         -56.7640  -24.8171   13.8079 O.2       12 UNK        -0.5489 
     30 CA        -54.6087  -24.3616   14.7750 C.3       11 UNK         0.0294 
     31 CB        -55.2808  -23.3610   15.7328 C.3       11 UNK        -0.2019 
     32 N         -54.0790  -25.4802   15.5690 N.am      11 UNK        -0.4493 
     33 C         -53.8111  -26.7478   15.2157 C.2       11 UNK         0.4932 
     34 O         -54.0912  -27.2669   14.1350 O.2       11 UNK        -0.5029 
     35 CA        -53.0222  -27.5496   16.2601 C.3       10 UNK         0.0280 
     36 CB        -52.9847  -29.0603   15.9684 C.3       10 UNK        -0.1976 
     37 N         -51.6543  -27.0408   16.2791 N.am      10 UNK        -0.4242 
     38 C         -51.1977  -26.0834   17.0948 C.2       10 UNK         0.5072 
     39 O         -51.8684  -25.5645   17.9882 O.2       10 UNK        -0.5224 
     40 CA        -49.7640  -25.5996   16.8382 C.3       9 UNK         0.0343 
     41 CB        -48.7355  -26.7001   17.1523 C.3       9 UNK        -0.2003 
     42 N         -49.5985  -25.1490   15.4562 N.am      9 UNK        -0.4272 
     43 C         -50.0110  -23.9635   14.9841 C.2       9 UNK         0.4988 
     44 O         -50.5588  -23.1018   15.6720 O.2       9 UNK        -0.5108 
     45 CA        -49.7533  -23.6829   13.4937 C.3       8 UNK         0.0248 
     46 CB        -48.3540  -23.0790   13.3004 C.3       8 UNK        -0.2001 
     47 N         -49.8841  -24.8867   12.6711 N.am      8 UNK        -0.4140 
     48 C         -51.0624  -25.4340   12.3370 C.2       8 UNK         0.5028 
     49 O         -52.1501  -24.9159   12.5884 O.2       8 UNK        -0.5428 
     50 CA        -51.0449  -26.7805   11.5934 C.3       7 UNK         0.0264 
     51 CB        -51.1946  -26.5264   10.0869 C.3       7 UNK        -0.1988 
     52 N         -49.8519  -27.5978   11.8399 N.am      7 UNK        -0.4454 
     53 C         -49.4591  -28.0442   13.0430 C.2       7 UNK         0.5027 
     54 O         -50.1444  -27.9309   14.0603 O.2       7 UNK        -0.5083 
     55 CA        -48.0266  -28.6098   13.1881 C.3       6 UNK         0.0844 
     56 C56       -48.0023  -30.1081   13.6118 C.3       14 UNK        -0.0967 
     57 S57       -47.6647  -31.3059   12.2689 S.3       14 UNK        -0.2604 
     58 C58       -49.2322  -32.2204   12.1324 C.3       14 UNK         0.0134 
     59 N         -47.1089  -28.3082   12.0798 N.am      6 UNK        -0.4116 
     60 C         -46.7846  -27.0972   11.6080 C.2       5 UNK         0.5034 
     61 O         -47.2663  -26.0465   12.0422 O.2       5 UNK        -0.5045 
     62 CA        -45.7873  -27.0525   10.4395 C.3       5 UNK         0.0224 
     63 CB        -45.9392  -28.2308    9.4540 C.3       5 UNK        -0.1978 
     64 N         -45.9613  -25.7919    9.7251 N.am      5 UNK        -0.4737 
     65 C         -45.0150  -25.1207    9.0619 C.2       4 UNK         0.5027 
     66 O         -43.8508  -25.5105    8.9630 O.2       4 UNK        -0.5211 
     67 CA        -45.4317  -23.7997    8.3876 C.3       4 UNK         0.0297 
     68 CB        -44.9743  -23.7638    6.9179 C.3       4 UNK        -0.1993 
     69 N         -46.8838  -23.6017    8.4254 N.am      4 UNK        -0.4486 
     70 C         -47.5387  -22.7396    9.2164 C.2       3 UNK         0.4961 
     71 O         -46.9790  -21.9861   10.0129 O.2       3 UNK        -0.5105 
     72 CA        -49.0713  -22.7006    9.0656 C.3       3 UNK         0.0299 
     73 CB        -49.7092  -21.4119    9.6174 C.3       3 UNK        -0.1972 
     74 N         -49.4104  -22.8642    7.6542 N.am      3 UNK        -0.4305 
     75 C         -50.3946  -23.6256    7.1654 C.2       2 UNK         0.5006 
     76 O         -51.2932  -24.1188    7.8460 O.2       2 UNK        -0.5106 
     77 CA        -50.3388  -23.9336    5.6549 C.3       2 UNK         0.0296 
     78 CB        -49.4491  -22.9580    4.8492 C.3       2 UNK        -0.2002 
     79 N         -49.9258  -25.3197    5.3853 N.am      2 UNK        -0.4032 
     80 C         -48.8496  -25.9601    5.8753 C.2       1 UNK         0.5000 
     81 O         -48.0620  -25.4620    6.6868 O.2       1 UNK        -0.5238 
     82 H82       -44.3289  -27.1606    6.1673 H         1 UNK         0.0889 
     83 H83       -44.1587  -28.2200    4.7634 H         1 UNK         0.0889 
     84 H84       -44.9472  -28.8155    6.2225 H         1 UNK         0.0889 
     85 H85       -47.1851  -28.4701    6.4619 H         1 UNK         0.3028 
     86 H86       -48.7180  -27.3615    4.2758 H         1 UNK         0.0864 
     87 H87       -49.5789  -29.3457    5.3497 H         1 UNK         0.0720 
     88 H88       -50.6922  -28.0485    5.6650 H         1 UNK         0.0720 
     89 H89       -50.4476  -30.9722    7.2972 H         1 UNK         0.0814 
     90 H90       -51.7277  -29.7802    7.3503 H         1 UNK         0.0814 
     91 H91       -49.2001  -31.5132    9.5087 H         1 UNK         0.1469 
     92 H92       -51.5709  -31.1549   13.0641 H         1 UNK         0.1381 
     93 H93       -52.9251  -29.3895    9.4005 H         1 UNK         0.1206 
     94 H94       -53.7687  -28.6377   11.6881 H         1 UNK         0.0813 
     95 H95       -53.3966  -29.6064   13.0912 H         1 UNK         0.0813 
     96 H96       -55.6242  -29.6327   13.8873 H         1 UNK         0.0638 
     97 H97       -56.8493  -30.7379   13.3350 H         1 UNK         0.0638 
     98 H98       -57.5130  -29.0574   11.5556 H         1 UNK         0.0568 
     99 H99       -59.1583  -27.0483   14.6004 H         1 UNK         0.3450 
    100 H100      -57.7126  -26.4661   13.8112 H         1 UNK         0.3450 
    101 H101      -55.4181  -27.4028   12.8055 H         1 UNK         0.2987 
    102 H102      -54.7630  -25.6904   10.5163 H         1 UNK         0.0766 
    103 H103      -55.5958  -23.3296   10.4582 H         1 UNK         0.0798 
    104 H104      -57.1360  -23.8531   11.1388 H         1 UNK         0.0798 
    105 H105      -56.6404  -24.4009    9.5427 H         1 UNK         0.0798 
    106 H106      -53.9267  -24.9843   12.4426 H         1 UNK         0.3198 
    107 H107      -53.7467  -23.8521   14.3415 H         1 UNK         0.0843 
    108 H108      -56.1024  -23.8215   16.2831 H         1 UNK         0.0831 
    109 H109      -55.6915  -22.5111   15.1859 H         1 UNK         0.0831 
    110 H110      -54.5705  -22.9637   16.4581 H         1 UNK         0.0831 
    111 H111      -53.7583  -25.2173   16.4915 H         1 UNK         0.3133 
    112 H112      -53.5022  -27.4084   17.2309 H         1 UNK         0.0566 
    113 H113      -52.5382  -29.6070   16.7988 H         1 UNK         0.0814 
    114 H114      -53.9882  -29.4600   15.8185 H         1 UNK         0.0814 
    115 H115      -52.3981  -29.2833   15.0777 H         1 UNK         0.0814 
    116 H116      -51.0543  -27.3657   15.5214 H         1 UNK         0.3091 
    117 H117      -49.5685  -24.7579   17.5064 H         1 UNK         0.0702 
    118 H118      -47.7160  -26.3315   17.0370 H         1 UNK         0.0785 
    119 H119      -48.8509  -27.5698   16.5044 H         1 UNK         0.0785 
    120 H120      -48.8391  -27.0456   18.1818 H         1 UNK         0.0785 
    121 H121      -49.1999  -25.8107   14.8070 H         1 UNK         0.2998 
    122 H122      -50.4889  -22.9491   13.1568 H         1 UNK         0.0697 
    123 H123      -47.5677  -23.7617   13.6252 H         1 UNK         0.0825 
    124 H124      -48.2438  -22.1570   13.8727 H         1 UNK         0.0825 
    125 H125      -48.1703  -22.8345   12.2557 H         1 UNK         0.0825 
    126 H126      -49.0224  -25.3554   12.4028 H         1 UNK         0.3029 
    127 H127      -51.9084  -27.3431   11.9467 H         1 UNK         0.0897 
    128 H128      -50.3160  -26.0339    9.6687 H         1 UNK         0.0792 
    129 H129      -52.0547  -25.8883    9.8787 H         1 UNK         0.0792 
    130 H130      -51.3500  -27.4501    9.5373 H         1 UNK         0.0792 
    131 H131      -49.2435  -27.7573   11.0510 H         1 UNK         0.3086 
    132 H132      -47.6215  -28.0537   14.0365 H         1 UNK         0.0583 
    133 H133      -47.2034  -30.2447   14.3424 H         1 UNK         0.1020 
    134 H134      -48.9109  -30.3923   14.1470 H         1 UNK         0.1020 
    135 H135      -49.0445  -33.1573   11.6059 H         1 UNK         0.0694 
    136 H136      -49.5881  -32.4961   13.1263 H         1 UNK         0.0694 
    137 H137      -46.6977  -29.1227   11.6455 H         1 UNK         0.2989 
    138 H138      -44.7874  -27.0794   10.8782 H         1 UNK         0.1055 
    139 H139      -45.7166  -29.1880    9.9266 H         1 UNK         0.0806 
    140 H140      -45.2497  -28.1303    8.6164 H         1 UNK         0.0806 
    141 H141      -46.9489  -28.2855    9.0471 H         1 UNK         0.0806 
    142 H142      -46.8693  -25.3607    9.8301 H         1 UNK         0.3061 
    143 H143      -44.9248  -22.9940    8.9223 H         1 UNK         0.0734 
    144 H144      -45.2469  -22.8223    6.4412 H         1 UNK         0.0832 
    145 H145      -43.8909  -23.8628    6.8389 H         1 UNK         0.0832 
    146 H146      -45.4195  -24.5734    6.3381 H         1 UNK         0.0832 
    147 H147      -47.4183  -24.2264    7.8173 H         1 UNK         0.3156 
    148 H148      -49.4581  -23.5477    9.6363 H         1 UNK         0.0589 
    149 H149      -49.3307  -20.5259    9.1068 H         1 UNK         0.0808 
    150 H150      -50.7932  -21.4286    9.5032 H         1 UNK         0.0808 
    151 H151      -49.4994  -21.2940   10.6812 H         1 UNK         0.0808 
    152 H152      -48.7231  -22.5124    7.0016 H         1 UNK         0.3098 
    153 H153      -51.3605  -23.8312    5.2860 H         1 UNK         0.0720 
    154 H154      -49.5522  -23.1356    3.7786 H         1 UNK         0.0791 
    155 H155      -48.3908  -23.0618    5.0930 H         1 UNK         0.0791 
    156 H156      -49.7362  -21.9203    5.0258 H         1 UNK         0.0791 
    157 H157      -50.5328  -25.8296    4.7590 H         1 UNK         0.3028 
@<TRIPOS>BOND
     1    1    2 1    
     2    1   82 1    
     3    1   83 1    
     4    1   84 1    
     5    2    3 2    
     6    2    4 am   BACKBONE|DICT|INTERRES
     7    4    5 1    
     8    4   85 1    
     9    5    6 1    
    10    5   80 1    
    11    5   86 1    
    12    6    7 1    
    13    6   87 1    
    14    6   88 1    
    15    7    8 1    
    16    8    9 1    
    17    8   89 1    
    18    8   90 1    
    19    9   10 ar   
    20    9   14 ar   
    21   10   11 ar   
    22   10   91 1    
    23   11   12 ar   
    24   11   58 1    
    25   12   13 ar   
    26   12   92 1    
    27   13   14 ar   
    28   13   15 1    
    29   14   93 1    
    30   15   16 1    
    31   15   94 1    
    32   15   95 1    
    33   16   17 1    
    34   17   18 1    
    35   17   96 1    
    36   17   97 1    
    37   18   19 1    
    38   18   22 1    
    39   18   98 1    
    40   19   20 am   BACKBONE|DICT|INTERRES
    41   19   21 2    
    42   20   99 1    
    43   20  100 1    
    44   22   23 am   BACKBONE|DICT|INTERRES
    45   22  101 1    
    46   23   24 2    
    47   23   25 1    
    48   25   26 1    
    49   25   27 1    
    50   25  102 1    
    51   26  103 1    
    52   26  104 1    
    53   26  105 1    
    54   27   28 am   BACKBONE|DICT|INTERRES
    55   27  106 1    
    56   28   29 2    
    57   28   30 1    
    58   30   31 1    
    59   30   32 1    
    60   30  107 1    
    61   31  108 1    
    62   31  109 1    
    63   31  110 1    
    64   32   33 am   BACKBONE|DICT|INTERRES
    65   32  111 1    
    66   33   34 2    
    67   33   35 1    
    68   35   36 1    
    69   35   37 1    
    70   35  112 1    
    71   36  113 1    
    72   36  114 1    
    73   36  115 1    
    74   37   38 am   BACKBONE|DICT|INTERRES
    75   37  116 1    
    76   38   39 2    
    77   38   40 1    
    78   40   41 1    
    79   40   42 1    
    80   40  117 1    
    81   41  118 1    
    82   41  119 1    
    83   41  120 1    
    84   42   43 am   BACKBONE|DICT|INTERRES
    85   42  121 1    
    86   43   44 2    
    87   43   45 1    
    88   45   46 1    
    89   45   47 1    
    90   45  122 1    
    91   46  123 1    
    92   46  124 1    
    93   46  125 1    
    94   47   48 am   BACKBONE|DICT|INTERRES
    95   47  126 1    
    96   48   49 2    
    97   48   50 1    
    98   50   51 1    
    99   50   52 1    
   100   50  127 1    
   101   51  128 1    
   102   51  129 1    
   103   51  130 1    
   104   52   53 am   BACKBONE|DICT|INTERRES
   105   52  131 1    
   106   53   54 2    
   107   53   55 1    
   108   55   56 1    
   109   55   59 1    
   110   55  132 1    
   111   56   57 1    
   112   56  133 1    
   113   56  134 1    
   114   57   58 1    
   115   58  135 1    
   116   58  136 1    
   117   59   60 am   BACKBONE|DICT|INTERRES
   118   59  137 1    
   119   60   61 2    
   120   60   62 1    
   121   62   63 1    
   122   62   64 1    
   123   62  138 1    
   124   63  139 1    
   125   63  140 1    
   126   63  141 1    
   127   64   65 am   BACKBONE|DICT|INTERRES
   128   64  142 1    
   129   65   66 2    
   130   65   67 1    
   131   67   68 1    
   132   67   69 1    
   133   67  143 1    
   134   68  144 1    
   135   68  145 1    
   136   68  146 1    
   137   69   70 am   BACKBONE|DICT|INTERRES
   138   69  147 1    
   139   70   71 2    
   140   70   72 1    
   141   72   73 1    
   142   72   74 1    
   143   72  148 1    
   144   73  149 1    
   145   73  150 1    
   146   73  151 1    
   147   74   75 am   BACKBONE|DICT|INTERRES
   148   74  152 1    
   149   75   76 2    
   150   75   77 1    
   151   77   78 1    
   152   77   79 1    
   153   77  153 1    
   154   78  154 1    
   155   78  155 1    
   156   78  156 1    
   157   79   80 am   BACKBONE|DICT|INTERRES
   158   79  157 1    
   159   80   81 2    
@<TRIPOS>SUBSTRUCTURE
     1 UNK         1 GROUP             0       ****    0 ROOT    
