@<TRIPOS>MOLECULE
3R207
157   159    1
SMALL
USER_CHARGES


@<TRIPOS>ATOM
      1 CA        -53.1290  -25.3913    3.4198 C.3       0 UNK        -0.1975 
      2 C         -52.8108  -26.2353    4.6445 C.2       0 UNK         0.4852 
      3 O         -53.7194  -26.5982    5.3924 O.2       0 UNK        -0.5216 
      4 N         -51.5253  -26.5353    4.8707 N.am      1 UNK        -0.4461 
      5 CA        -51.0010  -27.3721    5.9609 C.3       1 UNK         0.0864 
      6 C6        -49.6062  -27.9491    5.5871 C.3       14 UNK        -0.0898 
      7 S7        -49.7459  -29.2126    4.2738 S.3       14 UNK        -0.2598 
      8 C8        -49.2778  -30.7602    5.1330 C.3       14 UNK         0.0286 
      9 C9        -49.9021  -30.8998    6.5180 C.ar      14 UNK        -0.0844 
     10 C10       -49.0843  -31.0649    7.6403 C.ar      14 UNK        -0.0881 
     11 C11       -49.6357  -31.1173    8.9250 C.ar      14 UNK        -0.0643 
     12 C12       -51.0225  -31.0176    9.0758 C.ar      14 UNK        -0.0930 
     13 C13       -51.8538  -30.8565    7.9618 C.ar      14 UNK        -0.0827 
     14 C14       -51.2873  -30.8236    6.6849 C.ar      14 UNK        -0.1249 
     15 C15       -53.3605  -30.7009    8.1257 C.3       14 UNK         0.0141 
     16 S16       -53.7896  -29.2035    9.0747 S.3       14 UNK        -0.2313 
     17 C17       -53.9488  -29.8707   10.7685 C.3       14 UNK        -0.0915 
     18 CA        -55.3648  -29.6161   11.3645 C.3       13 UNK         0.0968 
     19 C         -55.6369  -30.4427   12.6610 C.2       13 UNK         0.5732 
     20 N         -56.4164  -29.9430   13.6129 N.am      13 UNK        -0.7310 
     21 O         -55.1716  -31.5724   12.7936 O.2       13 UNK        -0.5035 
     22 N         -55.6883  -28.1789   11.4638 N.am      13 UNK        -0.4233 
     23 C         -55.0648  -27.2944   12.2518 C.2       13 UNK         0.4989 
     24 O         -54.1456  -27.5783   13.0245 O.2       13 UNK        -0.4996 
     25 CA        -55.5728  -25.8497   12.1894 C.3       12 UNK         0.0216 
     26 CB        -56.9130  -25.7059   12.9379 C.3       12 UNK        -0.1964 
     27 N         -54.5570  -25.0059   12.8056 N.am      12 UNK        -0.4276 
     28 C         -54.4641  -23.6732   12.7579 C.2       12 UNK         0.5020 
     29 O         -55.2460  -22.9521   12.1353 O.2       12 UNK        -0.5489 
     30 CA        -53.2912  -23.0541   13.5423 C.3       11 UNK         0.0294 
     31 CB        -53.4864  -21.5579   13.8653 C.3       11 UNK        -0.2019 
     32 N         -52.9577  -23.8300   14.7437 N.am      11 UNK        -0.4493 
     33 C         -53.7039  -24.0152   15.8447 C.2       11 UNK         0.4932 
     34 O         -54.7809  -23.4575   16.0547 O.2       11 UNK        -0.5029 
     35 CA        -53.1688  -25.0145   16.8851 C.3       10 UNK         0.0280 
     36 CB        -53.7632  -26.4095   16.6274 C.3       10 UNK        -0.1976 
     37 N         -51.7077  -25.1043   16.8443 N.am      10 UNK        -0.4242 
     38 C         -50.8729  -24.4927   17.6963 C.2       10 UNK         0.5072 
     39 O         -51.2404  -23.8686   18.6928 O.2       10 UNK        -0.5224 
     40 CA        -49.3663  -24.5741   17.3765 C.3       9 UNK         0.0343 
     41 CB        -48.7420  -25.8182   18.0285 C.3       9 UNK        -0.2003 
     42 N         -49.0832  -24.5888   15.9386 N.am      9 UNK        -0.4272 
     43 C         -49.3575  -23.5830   15.0951 C.2       9 UNK         0.4988 
     44 O         -49.7569  -22.4773   15.4602 O.2       9 UNK        -0.5108 
     45 CA        -49.1916  -23.8518   13.5879 C.3       8 UNK         0.0248 
     46 CB        -47.8882  -23.2154   13.0804 C.3       8 UNK        -0.2001 
     47 N         -49.2329  -25.2628   13.1770 N.am      8 UNK        -0.4140 
     48 C         -50.2154  -26.1427   13.4234 C.2       8 UNK         0.5028 
     49 O         -51.1883  -25.8874   14.1333 O.2       8 UNK        -0.5428 
     50 CA        -50.0945  -27.5472   12.8136 C.3       7 UNK         0.0264 
     51 CB        -50.8079  -27.5975   11.4566 C.3       7 UNK        -0.1988 
     52 N         -48.7028  -27.9545   12.6189 N.am      7 UNK        -0.4454 
     53 C         -48.1018  -28.9777   13.2423 C.2       7 UNK         0.5027 
     54 O         -48.6431  -29.6606   14.1133 O.2       7 UNK        -0.5083 
     55 CA        -46.6556  -29.3241   12.8155 C.3       6 UNK         0.0844 
     56 C56       -46.6228  -30.5200   11.8299 C.3       14 UNK        -0.0967 
     57 S57       -47.3345  -30.1442   10.1855 S.3       14 UNK        -0.2604 
     58 C58       -48.7470  -31.2974   10.1517 C.3       14 UNK         0.0134 
     59 N         -45.9163  -28.1784   12.2829 N.am      6 UNK        -0.4116 
     60 C         -45.5141  -27.1151   12.9893 C.2       5 UNK         0.5034 
     61 O         -45.6527  -27.0077   14.2079 O.2       5 UNK        -0.5045 
     62 CA        -44.8680  -25.9591   12.2005 C.3       5 UNK         0.0224 
     63 CB        -43.3356  -26.0665   12.2606 C.3       5 UNK        -0.1978 
     64 N         -45.2862  -25.8309   10.7946 N.am      5 UNK        -0.4737 
     65 C         -46.5493  -25.7197   10.3619 C.2       4 UNK         0.5027 
     66 O         -47.5321  -25.8557   11.0908 O.2       4 UNK        -0.5211 
     67 CA        -46.7494  -25.4627    8.8629 C.3       4 UNK         0.0297 
     68 CB        -46.7906  -26.7959    8.0983 C.3       4 UNK        -0.1993 
     69 N         -47.9909  -24.7183    8.6267 N.am      4 UNK        -0.4486 
     70 C         -48.1323  -23.4039    8.8615 C.2       3 UNK         0.4961 
     71 O         -47.2053  -22.6871    9.2422 O.2       3 UNK        -0.5105 
     72 CA        -49.5048  -22.7457    8.6115 C.3       3 UNK         0.0299 
     73 CB        -49.4340  -21.8133    7.3899 C.3       3 UNK        -0.1972 
     74 N         -50.5923  -23.7013    8.4023 N.am      3 UNK        -0.4305 
     75 C         -51.3306  -24.2583    9.3717 C.2       2 UNK         0.5006 
     76 O         -51.2154  -23.9837   10.5658 O.2       2 UNK        -0.5106 
     77 CA        -52.3872  -25.2980    8.9412 C.3       2 UNK         0.0296 
     78 CB        -53.7754  -24.6438    8.8611 C.3       2 UNK        -0.2002 
     79 N         -52.1240  -25.9992    7.6770 N.am      2 UNK        -0.4032 
     80 C         -51.0040  -26.6485    7.3287 C.2       1 UNK         0.5000 
     81 O         -49.9944  -26.6578    8.0304 O.2       1 UNK        -0.5238 
     82 H82       -52.2328  -25.1400    2.8529 H         1 UNK         0.0889 
     83 H83       -53.6129  -24.4622    3.7199 H         1 UNK         0.0889 
     84 H84       -53.8073  -25.9311    2.7596 H         1 UNK         0.0889 
     85 H85       -50.8277  -26.1971    4.2231 H         1 UNK         0.3028 
     86 H86       -51.6881  -28.2092    6.0909 H         1 UNK         0.0864 
     87 H87       -49.1055  -28.3920    6.4488 H         1 UNK         0.0720 
     88 H88       -48.9412  -27.1549    5.2443 H         1 UNK         0.0720 
     89 H89       -49.5773  -31.6107    4.5194 H         1 UNK         0.0814 
     90 H90       -48.1893  -30.7981    5.1978 H         1 UNK         0.0814 
     91 H91       -48.0117  -31.1310    7.5199 H         1 UNK         0.1469 
     92 H92       -51.4555  -31.0514   10.0650 H         1 UNK         0.1381 
     93 H93       -51.9192  -30.6947    5.8166 H         1 UNK         0.1206 
     94 H94       -53.8398  -30.6223    7.1487 H         1 UNK         0.0813 
     95 H95       -53.7795  -31.5943    8.5897 H         1 UNK         0.0813 
     96 H96       -53.1754  -29.4275   11.3956 H         1 UNK         0.0638 
     97 H97       -53.7319  -30.9390   10.7488 H         1 UNK         0.0638 
     98 H98       -56.0836  -30.0192   10.6505 H         1 UNK         0.0568 
     99 H99       -56.8153  -29.0239   13.5184 H         1 UNK         0.3450 
    100 H100      -56.5959  -30.4907   14.4393 H         1 UNK         0.3450 
    101 H101      -56.4466  -27.8641   10.8765 H         1 UNK         0.2987 
    102 H102      -55.6918  -25.5596   11.1439 H         1 UNK         0.0766 
    103 H103      -57.2888  -24.6838   12.8917 H         1 UNK         0.0798 
    104 H104      -56.8148  -25.9756   13.9905 H         1 UNK         0.0798 
    105 H105      -57.6812  -26.3470   12.5042 H         1 UNK         0.0798 
    106 H106      -53.8490  -25.5359   13.3039 H         1 UNK         0.3198 
    107 H107      -52.4247  -23.1337   12.8850 H         1 UNK         0.0843 
    108 H108      -54.3885  -21.3819   14.4515 H         1 UNK         0.0831 
    109 H109      -53.5770  -20.9721   12.9498 H         1 UNK         0.0831 
    110 H110      -52.6380  -21.1600   14.4222 H         1 UNK         0.0831 
    111 H111      -52.1438  -24.4325   14.6380 H         1 UNK         0.3133 
    112 H112      -53.5004  -24.6806   17.8704 H         1 UNK         0.0566 
    113 H113      -53.4482  -27.1206   17.3910 H         1 UNK         0.0814 
    114 H114      -54.8536  -26.3795   16.6420 H         1 UNK         0.0814 
    115 H115      -53.4616  -26.8062   15.6567 H         1 UNK         0.0814 
    116 H116      -51.3158  -25.5691   16.0298 H         1 UNK         0.3091 
    117 H117      -48.8899  -23.6880   17.8015 H         1 UNK         0.0702 
    118 H118      -47.6628  -25.8470   17.8760 H         1 UNK         0.0785 
    119 H119      -49.1634  -26.7405   17.6265 H         1 UNK         0.0785 
    120 H120      -48.9160  -25.8222   19.1055 H         1 UNK         0.0785 
    121 H121      -48.7409  -25.4545   15.5476 H         1 UNK         0.2998 
    122 H122      -50.0234  -23.3559   13.0852 H         1 UNK         0.0697 
    123 H123      -47.0119  -23.7039   13.5064 H         1 UNK         0.0825 
    124 H124      -47.8361  -22.1588   13.3468 H         1 UNK         0.0825 
    125 H125      -47.8148  -23.2741   11.9947 H         1 UNK         0.0825 
    126 H126      -48.5173  -25.5383   12.5057 H         1 UNK         0.3029 
    127 H127      -50.6060  -28.2362   13.4891 H         1 UNK         0.0897 
    128 H128      -50.7788  -28.5985   11.0261 H         1 UNK         0.0792 
    129 H129      -50.3496  -26.9155   10.7394 H         1 UNK         0.0792 
    130 H130      -51.8558  -27.3177   11.5620 H         1 UNK         0.0792 
    131 H131      -48.1749  -27.4198   11.9334 H         1 UNK         0.3086 
    132 H132      -46.1371  -29.6407   13.7232 H         1 UNK         0.0583 
    133 H133      -45.5892  -30.8358   11.6794 H         1 UNK         0.1020 
    134 H134      -47.1230  -31.3860   12.2682 H         1 UNK         0.1020 
    135 H135      -48.3742  -32.3223   10.1697 H         1 UNK         0.0694 
    136 H136      -49.3290  -31.1577   11.0644 H         1 UNK         0.0694 
    137 H137      -45.7749  -28.1700   11.2833 H         1 UNK         0.2989 
    138 H138      -45.1614  -25.0366   12.7046 H         1 UNK         0.1055 
    139 H139      -42.9879  -26.1377   13.2925 H         1 UNK         0.0806 
    140 H140      -42.8573  -25.1905   11.8220 H         1 UNK         0.0806 
    141 H141      -42.9719  -26.9491   11.7329 H         1 UNK         0.0806 
    142 H142      -44.5417  -25.7354   10.1181 H         1 UNK         0.3061 
    143 H143      -45.9116  -24.8711    8.4876 H         1 UNK         0.0734 
    144 H144      -45.8381  -27.3214    8.1744 H         1 UNK         0.0832 
    145 H145      -47.5577  -27.4642    8.4922 H         1 UNK         0.0832 
    146 H146      -46.9928  -26.6421    7.0385 H         1 UNK         0.0832 
    147 H147      -48.8087  -25.2823    8.4032 H         1 UNK         0.3156 
    148 H148      -49.7331  -22.1352    9.4878 H         1 UNK         0.0589 
    149 H149      -49.1976  -22.3605    6.4764 H         1 UNK         0.0808 
    150 H150      -50.3776  -21.2898    7.2347 H         1 UNK         0.0808 
    151 H151      -48.6631  -21.0527    7.5220 H         1 UNK         0.0808 
    152 H152      -50.7602  -23.9954    7.4517 H         1 UNK         0.3098 
    153 H153      -52.4250  -26.0588    9.7196 H         1 UNK         0.0720 
    154 H154      -54.5561  -25.3893    8.7080 H         1 UNK         0.0791 
    155 H155      -53.8336  -23.9227    8.0450 H         1 UNK         0.0791 
    156 H156      -54.0132  -24.1113    9.7824 H         1 UNK         0.0791 
    157 H157      -52.9008  -26.0691    7.0241 H         1 UNK         0.3028 
@<TRIPOS>BOND
     1    1    2 1    
     2    1   82 1    
     3    1   83 1    
     4    1   84 1    
     5    2    3 2    
     6    2    4 am   BACKBONE|DICT|INTERRES
     7    4    5 1    
     8    4   85 1    
     9    5    6 1    
    10    5   80 1    
    11    5   86 1    
    12    6    7 1    
    13    6   87 1    
    14    6   88 1    
    15    7    8 1    
    16    8    9 1    
    17    8   89 1    
    18    8   90 1    
    19    9   10 ar   
    20    9   14 ar   
    21   10   11 ar   
    22   10   91 1    
    23   11   12 ar   
    24   11   58 1    
    25   12   13 ar   
    26   12   92 1    
    27   13   14 ar   
    28   13   15 1    
    29   14   93 1    
    30   15   16 1    
    31   15   94 1    
    32   15   95 1    
    33   16   17 1    
    34   17   18 1    
    35   17   96 1    
    36   17   97 1    
    37   18   19 1    
    38   18   22 1    
    39   18   98 1    
    40   19   20 am   BACKBONE|DICT|INTERRES
    41   19   21 2    
    42   20   99 1    
    43   20  100 1    
    44   22   23 am   BACKBONE|DICT|INTERRES
    45   22  101 1    
    46   23   24 2    
    47   23   25 1    
    48   25   26 1    
    49   25   27 1    
    50   25  102 1    
    51   26  103 1    
    52   26  104 1    
    53   26  105 1    
    54   27   28 am   BACKBONE|DICT|INTERRES
    55   27  106 1    
    56   28   29 2    
    57   28   30 1    
    58   30   31 1    
    59   30   32 1    
    60   30  107 1    
    61   31  108 1    
    62   31  109 1    
    63   31  110 1    
    64   32   33 am   BACKBONE|DICT|INTERRES
    65   32  111 1    
    66   33   34 2    
    67   33   35 1    
    68   35   36 1    
    69   35   37 1    
    70   35  112 1    
    71   36  113 1    
    72   36  114 1    
    73   36  115 1    
    74   37   38 am   BACKBONE|DICT|INTERRES
    75   37  116 1    
    76   38   39 2    
    77   38   40 1    
    78   40   41 1    
    79   40   42 1    
    80   40  117 1    
    81   41  118 1    
    82   41  119 1    
    83   41  120 1    
    84   42   43 am   BACKBONE|DICT|INTERRES
    85   42  121 1    
    86   43   44 2    
    87   43   45 1    
    88   45   46 1    
    89   45   47 1    
    90   45  122 1    
    91   46  123 1    
    92   46  124 1    
    93   46  125 1    
    94   47   48 am   BACKBONE|DICT|INTERRES
    95   47  126 1    
    96   48   49 2    
    97   48   50 1    
    98   50   51 1    
    99   50   52 1    
   100   50  127 1    
   101   51  128 1    
   102   51  129 1    
   103   51  130 1    
   104   52   53 am   BACKBONE|DICT|INTERRES
   105   52  131 1    
   106   53   54 2    
   107   53   55 1    
   108   55   56 1    
   109   55   59 1    
   110   55  132 1    
   111   56   57 1    
   112   56  133 1    
   113   56  134 1    
   114   57   58 1    
   115   58  135 1    
   116   58  136 1    
   117   59   60 am   BACKBONE|DICT|INTERRES
   118   59  137 1    
   119   60   61 2    
   120   60   62 1    
   121   62   63 1    
   122   62   64 1    
   123   62  138 1    
   124   63  139 1    
   125   63  140 1    
   126   63  141 1    
   127   64   65 am   BACKBONE|DICT|INTERRES
   128   64  142 1    
   129   65   66 2    
   130   65   67 1    
   131   67   68 1    
   132   67   69 1    
   133   67  143 1    
   134   68  144 1    
   135   68  145 1    
   136   68  146 1    
   137   69   70 am   BACKBONE|DICT|INTERRES
   138   69  147 1    
   139   70   71 2    
   140   70   72 1    
   141   72   73 1    
   142   72   74 1    
   143   72  148 1    
   144   73  149 1    
   145   73  150 1    
   146   73  151 1    
   147   74   75 am   BACKBONE|DICT|INTERRES
   148   74  152 1    
   149   75   76 2    
   150   75   77 1    
   151   77   78 1    
   152   77   79 1    
   153   77  153 1    
   154   78  154 1    
   155   78  155 1    
   156   78  156 1    
   157   79   80 am   BACKBONE|DICT|INTERRES
   158   79  157 1    
   159   80   81 2    
@<TRIPOS>SUBSTRUCTURE
     1 UNK         1 GROUP             0       ****    0 ROOT    
