@<TRIPOS>MOLECULE
3R207
157   159    1
SMALL
USER_CHARGES


@<TRIPOS>ATOM
      1 CA        -47.0359  -23.7860   10.7277 C.3       0 UNK        -0.1975 
      2 C         -46.6352  -25.2389   10.5262 C.2       0 UNK         0.4852 
      3 O         -45.5495  -25.6372   10.9495 O.2       0 UNK        -0.5216 
      4 N         -47.5074  -26.0275    9.8853 N.am      1 UNK        -0.4461 
      5 CA        -47.3774  -27.4647    9.6222 C.3       1 UNK         0.0864 
      6 C6        -48.6428  -28.0353    8.9312 C.3       14 UNK        -0.0898 
      7 S7        -50.1769  -27.7114    9.8611 S.3       14 UNK        -0.2598 
      8 C8        -51.3467  -28.7660    8.9545 C.3       14 UNK         0.0286 
      9 C9        -52.7302  -28.1384    8.9270 C.ar      14 UNK        -0.0844 
     10 C10       -53.1466  -27.4090    7.8099 C.ar      14 UNK        -0.0881 
     11 C11       -54.4094  -26.8095    7.7818 C.ar      14 UNK        -0.0643 
     12 C12       -55.2718  -26.9783    8.8702 C.ar      14 UNK        -0.0930 
     13 C13       -54.8710  -27.7155    9.9897 C.ar      14 UNK        -0.0827 
     14 C14       -53.5948  -28.2866   10.0146 C.ar      14 UNK        -0.1249 
     15 C15       -55.8207  -27.9313   11.1603 C.3       14 UNK         0.0141 
     16 S16       -56.4004  -26.3654   11.8884 S.3       14 UNK        -0.2313 
     17 C17       -56.6662  -26.8936   13.6127 C.3       14 UNK        -0.0915 
     18 CA        -55.4069  -26.6048   14.4822 C.3       13 UNK         0.0968 
     19 C         -55.3916  -25.2066   15.1694 C.2       13 UNK         0.5732 
     20 N         -54.3418  -24.8975   15.9167 N.am      13 UNK        -0.7310 
     21 O         -56.3093  -24.4013   15.0301 O.2       13 UNK        -0.5035 
     22 N         -55.0868  -27.7186   15.3824 N.am      13 UNK        -0.4233 
     23 C         -55.7445  -28.0560   16.5000 C.2       13 UNK         0.4989 
     24 O         -56.7179  -27.4418   16.9410 O.2       13 UNK        -0.4996 
     25 CA        -55.2279  -29.3113   17.2352 C.3       12 UNK         0.0216 
     26 CB        -56.2086  -29.8381   18.3050 C.3       12 UNK        -0.1964 
     27 N         -54.8338  -30.3818   16.3096 N.am      12 UNK        -0.4276 
     28 C         -55.6071  -30.9779   15.3847 C.2       12 UNK         0.5020 
     29 O         -56.8196  -30.7841   15.2805 O.2       12 UNK        -0.5489 
     30 CA        -54.9155  -31.9458   14.3980 C.3       11 UNK         0.0294 
     31 CB        -55.5763  -31.9232   13.0024 C.3       11 UNK        -0.2019 
     32 N         -53.4628  -31.7528   14.2770 N.am      11 UNK        -0.4493 
     33 C         -52.8228  -30.6393   13.8924 C.2       11 UNK         0.4932 
     34 O         -53.3794  -29.5896   13.5644 O.2       11 UNK        -0.5029 
     35 CA        -51.2880  -30.6994   13.9387 C.3       10 UNK         0.0280 
     36 CB        -50.7039  -30.5697   12.5227 C.3       10 UNK        -0.1976 
     37 N         -50.7308  -29.6445   14.7864 N.am      10 UNK        -0.4242 
     38 C         -51.0471  -29.3997   16.0682 C.2       10 UNK         0.5072 
     39 O         -51.8134  -30.0992   16.7345 O.2       10 UNK        -0.5224 
     40 CA        -50.4130  -28.1492   16.7123 C.3       9 UNK         0.0343 
     41 CB        -49.1752  -28.5379   17.5363 C.3       9 UNK        -0.2003 
     42 N         -50.0431  -27.1145   15.7366 N.am      9 UNK        -0.4272 
     43 C         -50.9284  -26.4361   14.9929 C.2       9 UNK         0.4988 
     44 O         -52.1469  -26.5469   15.1403 O.2       9 UNK        -0.5108 
     45 CA        -50.3576  -25.5195   13.8931 C.3       8 UNK         0.0248 
     46 CB        -49.2583  -26.2234   13.0783 C.3       8 UNK        -0.2001 
     47 N         -51.4210  -25.1092   12.9735 N.am      8 UNK        -0.4140 
     48 C         -52.1617  -24.0024   13.1041 C.2       8 UNK         0.5028 
     49 O         -51.9258  -23.1076   13.9191 O.2       8 UNK        -0.5428 
     50 CA        -53.3866  -23.9065   12.1756 C.3       7 UNK         0.0264 
     51 CB        -54.1710  -22.5852   12.3256 C.3       7 UNK        -0.1988 
     52 N         -53.0772  -24.1885   10.7688 N.am      7 UNK        -0.4454 
     53 C         -52.3081  -23.4602    9.9454 C.2       7 UNK         0.5027 
     54 O         -51.7045  -22.4371   10.2790 O.2       7 UNK        -0.5083 
     55 CA        -52.2643  -23.9482    8.4830 C.3       6 UNK         0.0844 
     56 C56       -53.6274  -23.7195    7.7778 C.3       14 UNK        -0.0967 
     57 S57       -53.7094  -24.6118    6.1876 S.3       14 UNK        -0.2604 
     58 C58       -54.8492  -25.9856    6.5758 C.3       14 UNK         0.0134 
     59 N         -51.1677  -23.3247    7.7353 N.am      6 UNK        -0.4116 
     60 C         -49.8858  -23.6896    7.8264 C.2       5 UNK         0.5034 
     61 O         -49.4791  -24.6062    8.5424 O.2       5 UNK        -0.5045 
     62 CA        -48.8822  -22.9001    6.9784 C.3       5 UNK         0.0224 
     63 CB        -48.4388  -21.6094    7.6897 C.3       5 UNK        -0.1978 
     64 N         -47.7251  -23.7537    6.7112 N.am      5 UNK        -0.4737 
     65 C         -46.9643  -23.6961    5.6138 C.2       4 UNK         0.5027 
     66 O         -47.0792  -22.8244    4.7499 O.2       4 UNK        -0.5211 
     67 CA        -45.9282  -24.8232    5.4492 C.3       4 UNK         0.0297 
     68 CB        -45.1178  -24.7191    4.1386 C.3       4 UNK        -0.1993 
     69 N         -45.0395  -24.9694    6.6083 N.am      4 UNK        -0.4486 
     70 C         -44.1310  -24.0896    7.0624 C.2       3 UNK         0.4961 
     71 O         -43.9658  -22.9701    6.5772 O.2       3 UNK        -0.5105 
     72 CA        -43.2294  -24.5189    8.2423 C.3       3 UNK         0.0299 
     73 CB        -43.2654  -23.4909    9.3863 C.3       3 UNK        -0.1972 
     74 N         -43.5481  -25.8471    8.7760 N.am      3 UNK        -0.4305 
     75 C         -43.1148  -27.0065    8.2564 C.2       2 UNK         0.5006 
     76 O         -42.3185  -27.0793    7.3201 O.2       2 UNK        -0.5106 
     77 CA        -43.6921  -28.3090    8.8483 C.3       2 UNK         0.0296 
     78 CB        -42.7340  -28.8921    9.8995 C.3       2 UNK        -0.2002 
     79 N         -45.0255  -28.1534    9.4415 N.am      2 UNK        -0.4032 
     80 C         -46.1183  -27.7462    8.7793 C.2       1 UNK         0.5000 
     81 O         -46.1331  -27.5147    7.5681 O.2       1 UNK        -0.5238 
     82 H82       -46.7013  -23.4338   11.7029 H         1 UNK         0.0889 
     83 H83       -48.1170  -23.6561   10.6790 H         1 UNK         0.0889 
     84 H84       -46.5798  -23.1611    9.9623 H         1 UNK         0.0889 
     85 H85       -48.3642  -25.6106    9.5204 H         1 UNK         0.3028 
     86 H86       -47.2683  -27.9642   10.5870 H         1 UNK         0.0864 
     87 H87       -48.7664  -27.6047    7.9352 H         1 UNK         0.0720 
     88 H88       -48.5432  -29.1138    8.7944 H         1 UNK         0.0720 
     89 H89       -51.3864  -29.7498    9.4241 H         1 UNK         0.0814 
     90 H90       -50.9926  -28.9266    7.9349 H         1 UNK         0.0814 
     91 H91       -52.4788  -27.2850    6.9681 H         1 UNK         0.1469 
     92 H92       -56.2584  -26.5354    8.8509 H         1 UNK         0.1381 
     93 H93       -53.2735  -28.8554   10.8773 H         1 UNK         0.1206 
     94 H94       -56.6806  -28.5148   10.8292 H         1 UNK         0.0813 
     95 H95       -55.3253  -28.5229   11.9318 H         1 UNK         0.0813 
     96 H96       -56.9030  -27.9592   13.6113 H         1 UNK         0.0638 
     97 H97       -57.5586  -26.4073   14.0096 H         1 UNK         0.0638 
     98 H98       -54.5451  -26.5899   13.8148 H         1 UNK         0.0568 
     99 H99       -53.5441  -25.5262   15.9292 H         1 UNK         0.3450 
    100 H100      -54.2957  -24.0014   16.3732 H         1 UNK         0.3450 
    101 H101      -54.3012  -28.2859   15.0866 H         1 UNK         0.2987 
    102 H102      -54.3157  -29.0038   17.7489 H         1 UNK         0.0766 
    103 H103      -56.4015  -29.0800   19.0651 H         1 UNK         0.0798 
    104 H104      -55.8058  -30.7124   18.8161 H         1 UNK         0.0798 
    105 H105      -57.1704  -30.1154   17.8725 H         1 UNK         0.0798 
    106 H106      -53.8411  -30.5953   16.3062 H         1 UNK         0.3198 
    107 H107      -55.0567  -32.9445   14.8140 H         1 UNK         0.0843 
    108 H108      -55.5359  -30.9310   12.5527 H         1 UNK         0.0831 
    109 H109      -56.6271  -32.2101   13.0595 H         1 UNK         0.0831 
    110 H110      -55.0900  -32.6205   12.3204 H         1 UNK         0.0831 
    111 H111      -52.9000  -32.5456   14.5557 H         1 UNK         0.3133 
    112 H112      -50.9747  -31.6580   14.3569 H         1 UNK         0.0566 
    113 H113      -49.6171  -30.6548   12.5269 H         1 UNK         0.0814 
    114 H114      -50.9647  -29.6123   12.0702 H         1 UNK         0.0814 
    115 H115      -51.0877  -31.3531   11.8677 H         1 UNK         0.0814 
    116 H116      -50.1048  -28.9971   14.3342 H         1 UNK         0.3091 
    117 H117      -51.1550  -27.7225   17.3908 H         1 UNK         0.0702 
    118 H118      -48.7641  -27.6778   18.0652 H         1 UNK         0.0785 
    119 H119      -48.3868  -28.9573   16.9099 H         1 UNK         0.0785 
    120 H120      -49.4274  -29.2875   18.2880 H         1 UNK         0.0785 
    121 H121      -49.0563  -26.9593   15.5888 H         1 UNK         0.2998 
    122 H122      -49.9247  -24.6408   14.3754 H         1 UNK         0.0697 
    123 H123      -49.5764  -27.2054   12.7269 H         1 UNK         0.0825 
    124 H124      -48.3458  -26.3576   13.6597 H         1 UNK         0.0825 
    125 H125      -48.9930  -25.6321   12.2042 H         1 UNK         0.0825 
    126 H126      -51.7050  -25.7973   12.2913 H         1 UNK         0.3029 
    127 H127      -54.0551  -24.7040   12.4936 H         1 UNK         0.0897 
    128 H128      -53.5621  -21.7171   12.0718 H         1 UNK         0.0792 
    129 H129      -54.5120  -22.4525   13.3533 H         1 UNK         0.0792 
    130 H130      -55.0560  -22.5754   11.6895 H         1 UNK         0.0792 
    131 H131      -53.5129  -25.0204   10.3918 H         1 UNK         0.3086 
    132 H132      -52.0697  -25.0210    8.5251 H         1 UNK         0.0583 
    133 H133      -54.4642  -24.0400    8.4012 H         1 UNK         0.1020 
    134 H134      -53.7920  -22.6564    7.5929 H         1 UNK         0.1020 
    135 H135      -55.8479  -25.5744    6.7311 H         1 UNK         0.0694 
    136 H136      -54.9191  -26.6410    5.7069 H         1 UNK         0.0694 
    137 H137      -51.4183  -22.5424    7.1499 H         1 UNK         0.2989 
    138 H138      -49.3652  -22.6449    6.0321 H         1 UNK         0.1055 
    139 H139      -47.9817  -21.8155    8.6566 H         1 UNK         0.0806 
    140 H140      -49.2888  -20.9496    7.8679 H         1 UNK         0.0806 
    141 H141      -47.7177  -21.0533    7.0904 H         1 UNK         0.0806 
    142 H142      -47.6157  -24.5267    7.3555 H         1 UNK         0.3061 
    143 H143      -46.5018  -25.7499    5.3950 H         1 UNK         0.0734 
    144 H144      -44.5396  -23.7961    4.0880 H         1 UNK         0.0832 
    145 H145      -44.4263  -25.5549    4.0324 H         1 UNK         0.0832 
    146 H146      -45.7784  -24.7337    3.2709 H         1 UNK         0.0832 
    147 H147      -45.1275  -25.8605    7.0874 H         1 UNK         0.3156 
    148 H148      -42.2073  -24.5375    7.8584 H         1 UNK         0.0589 
    149 H149      -42.5877  -23.7721   10.1924 H         1 UNK         0.0808 
    150 H150      -42.9577  -22.5040    9.0381 H         1 UNK         0.0808 
    151 H151      -44.2623  -23.3884    9.8100 H         1 UNK         0.0808 
    152 H152      -44.1951  -25.8756    9.5607 H         1 UNK         0.3098 
    153 H153      -43.7796  -29.0258    8.0292 H         1 UNK         0.0720 
    154 H154      -41.7390  -29.0446    9.4788 H         1 UNK         0.0791 
    155 H155      -43.0818  -29.8598   10.2615 H         1 UNK         0.0791 
    156 H156      -42.6263  -28.2292   10.7592 H         1 UNK         0.0791 
    157 H157      -45.0843  -28.2563   10.4450 H         1 UNK         0.3028 
@<TRIPOS>BOND
     1    1    2 1    
     2    1   82 1    
     3    1   83 1    
     4    1   84 1    
     5    2    3 2    
     6    2    4 am   BACKBONE|DICT|INTERRES
     7    4    5 1    
     8    4   85 1    
     9    5    6 1    
    10    5   80 1    
    11    5   86 1    
    12    6    7 1    
    13    6   87 1    
    14    6   88 1    
    15    7    8 1    
    16    8    9 1    
    17    8   89 1    
    18    8   90 1    
    19    9   10 ar   
    20    9   14 ar   
    21   10   11 ar   
    22   10   91 1    
    23   11   12 ar   
    24   11   58 1    
    25   12   13 ar   
    26   12   92 1    
    27   13   14 ar   
    28   13   15 1    
    29   14   93 1    
    30   15   16 1    
    31   15   94 1    
    32   15   95 1    
    33   16   17 1    
    34   17   18 1    
    35   17   96 1    
    36   17   97 1    
    37   18   19 1    
    38   18   22 1    
    39   18   98 1    
    40   19   20 am   BACKBONE|DICT|INTERRES
    41   19   21 2    
    42   20   99 1    
    43   20  100 1    
    44   22   23 am   BACKBONE|DICT|INTERRES
    45   22  101 1    
    46   23   24 2    
    47   23   25 1    
    48   25   26 1    
    49   25   27 1    
    50   25  102 1    
    51   26  103 1    
    52   26  104 1    
    53   26  105 1    
    54   27   28 am   BACKBONE|DICT|INTERRES
    55   27  106 1    
    56   28   29 2    
    57   28   30 1    
    58   30   31 1    
    59   30   32 1    
    60   30  107 1    
    61   31  108 1    
    62   31  109 1    
    63   31  110 1    
    64   32   33 am   BACKBONE|DICT|INTERRES
    65   32  111 1    
    66   33   34 2    
    67   33   35 1    
    68   35   36 1    
    69   35   37 1    
    70   35  112 1    
    71   36  113 1    
    72   36  114 1    
    73   36  115 1    
    74   37   38 am   BACKBONE|DICT|INTERRES
    75   37  116 1    
    76   38   39 2    
    77   38   40 1    
    78   40   41 1    
    79   40   42 1    
    80   40  117 1    
    81   41  118 1    
    82   41  119 1    
    83   41  120 1    
    84   42   43 am   BACKBONE|DICT|INTERRES
    85   42  121 1    
    86   43   44 2    
    87   43   45 1    
    88   45   46 1    
    89   45   47 1    
    90   45  122 1    
    91   46  123 1    
    92   46  124 1    
    93   46  125 1    
    94   47   48 am   BACKBONE|DICT|INTERRES
    95   47  126 1    
    96   48   49 2    
    97   48   50 1    
    98   50   51 1    
    99   50   52 1    
   100   50  127 1    
   101   51  128 1    
   102   51  129 1    
   103   51  130 1    
   104   52   53 am   BACKBONE|DICT|INTERRES
   105   52  131 1    
   106   53   54 2    
   107   53   55 1    
   108   55   56 1    
   109   55   59 1    
   110   55  132 1    
   111   56   57 1    
   112   56  133 1    
   113   56  134 1    
   114   57   58 1    
   115   58  135 1    
   116   58  136 1    
   117   59   60 am   BACKBONE|DICT|INTERRES
   118   59  137 1    
   119   60   61 2    
   120   60   62 1    
   121   62   63 1    
   122   62   64 1    
   123   62  138 1    
   124   63  139 1    
   125   63  140 1    
   126   63  141 1    
   127   64   65 am   BACKBONE|DICT|INTERRES
   128   64  142 1    
   129   65   66 2    
   130   65   67 1    
   131   67   68 1    
   132   67   69 1    
   133   67  143 1    
   134   68  144 1    
   135   68  145 1    
   136   68  146 1    
   137   69   70 am   BACKBONE|DICT|INTERRES
   138   69  147 1    
   139   70   71 2    
   140   70   72 1    
   141   72   73 1    
   142   72   74 1    
   143   72  148 1    
   144   73  149 1    
   145   73  150 1    
   146   73  151 1    
   147   74   75 am   BACKBONE|DICT|INTERRES
   148   74  152 1    
   149   75   76 2    
   150   75   77 1    
   151   77   78 1    
   152   77   79 1    
   153   77  153 1    
   154   78  154 1    
   155   78  155 1    
   156   78  156 1    
   157   79   80 am   BACKBONE|DICT|INTERRES
   158   79  157 1    
   159   80   81 2    
@<TRIPOS>SUBSTRUCTURE
     1 UNK         1 GROUP             0       ****    0 ROOT    
