@<TRIPOS>MOLECULE
3R207
157   159    1
SMALL
USER_CHARGES


@<TRIPOS>ATOM
      1 CA        -43.8053  -25.6719    6.9191 C.3       0 UNK        -0.1975 
      2 C         -44.5301  -26.7376    6.1106 C.2       0 UNK         0.4852 
      3 O         -43.9776  -27.2359    5.1298 O.2       0 UNK        -0.5216 
      4 N         -45.7634  -27.0883    6.5022 N.am      1 UNK        -0.4461 
      5 CA        -46.5821  -28.1226    5.8509 C.3       1 UNK         0.0864 
      6 C6        -47.6587  -28.6738    6.8216 C.3       14 UNK        -0.0898 
      7 S7        -48.9964  -27.4873    7.2223 S.3       14 UNK        -0.2598 
      8 C8        -50.5071  -28.4733    6.9478 C.3       14 UNK         0.0286 
      9 C9        -50.9189  -29.2420    8.1985 C.ar      14 UNK        -0.0844 
     10 C10       -50.0792  -30.2262    8.7245 C.ar      14 UNK        -0.0881 
     11 C11       -50.4070  -30.8921    9.9065 C.ar      14 UNK        -0.0643 
     12 C12       -51.6280  -30.6214   10.5292 C.ar      14 UNK        -0.0930 
     13 C13       -52.5027  -29.6704    9.9924 C.ar      14 UNK        -0.0827 
     14 C14       -52.1361  -28.9728    8.8352 C.ar      14 UNK        -0.1249 
     15 C15       -53.8479  -29.4166   10.6585 C.3       14 UNK         0.0141 
     16 S16       -53.6654  -28.5004   12.2184 S.3       14 UNK        -0.2313 
     17 C17       -55.3687  -28.5551   12.8736 C.3       14 UNK        -0.0915 
     18 CA        -56.0269  -27.1555   12.9864 C.3       13 UNK         0.0968 
     19 C         -57.5239  -27.2862   13.3810 C.2       13 UNK         0.5732 
     20 N         -57.8949  -27.1402   14.6470 N.am      13 UNK        -0.7310 
     21 O         -58.3660  -27.5213   12.5173 O.2       13 UNK        -0.5035 
     22 N         -55.2538  -26.2515   13.8501 N.am      13 UNK        -0.4233 
     23 C         -55.3859  -24.9200   13.8690 C.2       13 UNK         0.4989 
     24 O         -56.2053  -24.3011   13.1854 O.2       13 UNK        -0.4996 
     25 CA        -54.4229  -24.1596   14.7997 C.3       12 UNK         0.0216 
     26 CB        -54.4829  -22.6262   14.6299 C.3       12 UNK        -0.1964 
     27 N         -54.5721  -24.5466   16.2045 N.am      12 UNK        -0.4276 
     28 C         -55.6495  -24.3911   16.9870 C.2       12 UNK         0.5020 
     29 O         -56.6921  -23.8369   16.6336 O.2       12 UNK        -0.5489 
     30 CA        -55.5243  -24.9627   18.4149 C.3       11 UNK         0.0294 
     31 CB        -56.8609  -24.9554   19.1884 C.3       11 UNK        -0.2019 
     32 N         -54.9166  -26.3009   18.4370 N.am      11 UNK        -0.4493 
     33 C         -55.3762  -27.4009   17.8207 C.2       11 UNK         0.4932 
     34 O         -56.4136  -27.4389   17.1571 O.2       11 UNK        -0.5029 
     35 CA        -54.4888  -28.6560   17.9441 C.3       10 UNK         0.0280 
     36 CB        -55.0468  -29.8611   17.1584 C.3       10 UNK        -0.1976 
     37 N         -53.0883  -28.4104   17.5679 N.am      10 UNK        -0.4242 
     38 C         -52.6448  -27.8812   16.4171 C.2       10 UNK         0.5072 
     39 O         -53.3782  -27.4770   15.5142 O.2       10 UNK        -0.5224 
     40 CA        -51.1179  -27.8128   16.2494 C.3       9 UNK         0.0343 
     41 CB        -50.5721  -29.1782   15.8004 C.3       9 UNK        -0.2003 
     42 N         -50.7067  -26.7886   15.2839 N.am      9 UNK        -0.4272 
     43 C         -50.8334  -25.4669   15.4826 C.2       9 UNK         0.4988 
     44 O         -51.3160  -24.9819   16.5082 O.2       9 UNK        -0.5108 
     45 CA        -50.3314  -24.5093   14.3842 C.3       8 UNK         0.0248 
     46 CB        -49.0270  -23.8274   14.8276 C.3       8 UNK        -0.2001 
     47 N         -50.1158  -25.1691   13.0945 N.am      8 UNK        -0.4140 
     48 C         -51.0906  -25.4231   12.2076 C.2       8 UNK         0.5028 
     49 O         -52.2470  -25.0276   12.3461 O.2       8 UNK        -0.5428 
     50 CA        -50.7390  -26.2272   10.9384 C.3       7 UNK         0.0264 
     51 CB        -50.7510  -25.2953    9.7173 C.3       7 UNK        -0.1988 
     52 N         -49.4681  -26.9630   10.9850 N.am      7 UNK        -0.4454 
     53 C         -49.1670  -27.9146   11.8843 C.2       7 UNK         0.5027 
     54 O         -49.9434  -28.2746   12.7679 O.2       7 UNK        -0.5083 
     55 CA        -47.7215  -28.4699   11.8882 C.3       6 UNK         0.0844 
     56 C56       -47.5711  -29.8024   11.1114 C.3       14 UNK        -0.0967 
     57 S57       -48.4645  -31.2009   11.8849 S.3       14 UNK        -0.2604 
     58 C58       -49.4331  -31.8979   10.5039 C.3       14 UNK         0.0134 
     59 N         -46.7288  -27.4804   11.4491 N.am      6 UNK        -0.4116 
     60 C         -46.5152  -26.2885   12.0253 C.2       5 UNK         0.5034 
     61 O         -47.1466  -25.8767   12.9988 O.2       5 UNK        -0.5045 
     62 CA        -45.4546  -25.3732   11.3922 C.3       5 UNK         0.0224 
     63 CB        -44.3027  -26.1354   10.6957 C.3       5 UNK        -0.1978 
     64 N         -46.0763  -24.3887   10.4974 N.am      5 UNK        -0.4737 
     65 C         -46.7366  -24.6401    9.3603 C.2       4 UNK         0.5027 
     66 O         -46.8548  -25.7635    8.8652 O.2       4 UNK        -0.5211 
     67 CA        -47.3323  -23.4300    8.6338 C.3       4 UNK         0.0297 
     68 CB        -46.2236  -22.5828    7.9787 C.3       4 UNK        -0.1993 
     69 N         -48.2659  -23.9015    7.6130 N.am      4 UNK        -0.4486 
     70 C         -49.2304  -23.1703    7.0411 C.2       3 UNK         0.4961 
     71 O         -49.4672  -21.9996    7.3429 O.2       3 UNK        -0.5105 
     72 CA        -50.0054  -23.8461    5.8984 C.3       3 UNK         0.0299 
     73 CB        -51.0247  -22.9052    5.2203 C.3       3 UNK        -0.1972 
     74 N         -49.0262  -24.3430    4.9342 N.am      3 UNK        -0.4305 
     75 C         -49.2405  -25.2271    3.9516 C.2       2 UNK         0.5006 
     76 O         -50.3413  -25.6959    3.6621 O.2       2 UNK        -0.5106 
     77 CA        -47.9837  -25.7144    3.2137 C.3       2 UNK         0.0296 
     78 CB        -47.2248  -24.5610    2.5319 C.3       2 UNK        -0.2002 
     79 N         -47.1167  -26.3847    4.1820 N.am      2 UNK        -0.4032 
     80 C         -47.2123  -27.6809    4.5081 C.2       1 UNK         0.5000 
     81 O         -47.8150  -28.5126    3.8258 O.2       1 UNK        -0.5238 
     82 H82       -43.5548  -24.8232    6.2835 H         1 UNK         0.0889 
     83 H83       -42.8798  -26.0772    7.3270 H         1 UNK         0.0889 
     84 H84       -44.4060  -25.3068    7.7489 H         1 UNK         0.0889 
     85 H85       -46.1755  -26.6618    7.3305 H         1 UNK         0.3028 
     86 H86       -45.9175  -28.9549    5.6082 H         1 UNK         0.0864 
     87 H87       -47.1880  -28.9832    7.7555 H         1 UNK         0.0720 
     88 H88       -48.0908  -29.5804    6.3956 H         1 UNK         0.0720 
     89 H89       -50.3680  -29.1610    6.1128 H         1 UNK         0.0814 
     90 H90       -51.3029  -27.7908    6.6461 H         1 UNK         0.0814 
     91 H91       -49.1464  -30.4548    8.2329 H         1 UNK         0.1469 
     92 H92       -51.8930  -31.1417   11.4394 H         1 UNK         0.1381 
     93 H93       -52.8004  -28.2221    8.4295 H         1 UNK         0.1206 
     94 H94       -54.5114  -28.8620    9.9933 H         1 UNK         0.0813 
     95 H95       -54.3331  -30.3739   10.8547 H         1 UNK         0.0813 
     96 H96       -55.3335  -29.0334   13.8528 H         1 UNK         0.0638 
     97 H97       -55.9715  -29.2090   12.2408 H         1 UNK         0.0638 
     98 H98       -56.0167  -26.7181   11.9861 H         1 UNK         0.0568 
     99 H99       -58.8701  -27.2220   14.8832 H         1 UNK         0.3450 
    100 H100      -57.2105  -27.0223   15.3870 H         1 UNK         0.3450 
    101 H101      -54.5527  -26.6955   14.4437 H         1 UNK         0.2987 
    102 H102      -53.4207  -24.4740   14.5180 H         1 UNK         0.0766 
    103 H103      -55.4669  -22.2254   14.8747 H         1 UNK         0.0798 
    104 H104      -54.2650  -22.3446   13.5990 H         1 UNK         0.0798 
    105 H105      -53.7488  -22.1289   15.2636 H         1 UNK         0.0798 
    106 H106      -53.7810  -25.0463   16.5905 H         1 UNK         0.3198 
    107 H107      -54.8365  -24.3017   18.9449 H         1 UNK         0.0843 
    108 H108      -57.6220  -25.5557   18.6889 H         1 UNK         0.0831 
    109 H109      -57.2548  -23.9421   19.2765 H         1 UNK         0.0831 
    110 H110      -56.7376  -25.3429   20.1996 H         1 UNK         0.0831 
    111 H111      -54.0425  -26.3772   18.9395 H         1 UNK         0.3133 
    112 H112      -54.4860  -28.9262   19.0011 H         1 UNK         0.0566 
    113 H113      -55.0835  -29.6613   16.0879 H         1 UNK         0.0814 
    114 H114      -54.4373  -30.7515   17.3112 H         1 UNK         0.0814 
    115 H115      -56.0607  -30.1035   17.4793 H         1 UNK         0.0814 
    116 H116      -52.4003  -28.6992   18.2500 H         1 UNK         0.3091 
    117 H117      -50.6733  -27.5588   17.2139 H         1 UNK         0.0702 
    118 H118      -49.4937  -29.1461   15.6437 H         1 UNK         0.0785 
    119 H119      -51.0353  -29.5065   14.8684 H         1 UNK         0.0785 
    120 H120      -50.7689  -29.9475   16.5479 H         1 UNK         0.0785 
    121 H121      -50.3842  -27.1281   14.3831 H         1 UNK         0.2998 
    122 H122      -51.0856  -23.7296   14.2589 H         1 UNK         0.0697 
    123 H123      -48.2419  -24.5545   15.0376 H         1 UNK         0.0825 
    124 H124      -49.1818  -23.2470   15.7382 H         1 UNK         0.0825 
    125 H125      -48.6556  -23.1419   14.0657 H         1 UNK         0.0825 
    126 H126      -49.1783  -25.5135   12.9146 H         1 UNK         0.3029 
    127 H127      -51.5313  -26.9658   10.8101 H         1 UNK         0.0897 
    128 H128      -51.6840  -24.7328    9.6615 H         1 UNK         0.0792 
    129 H129      -50.6683  -25.8538    8.7880 H         1 UNK         0.0792 
    130 H130      -49.9386  -24.5712    9.7621 H         1 UNK         0.0792 
    131 H131      -48.7741  -26.7208   10.2901 H         1 UNK         0.3086 
    132 H132      -47.4816  -28.6791   12.9332 H         1 UNK         0.0583 
    133 H133      -47.8650  -29.6707   10.0722 H         1 UNK         0.1020 
    134 H134      -46.5186  -30.0884   11.0794 H         1 UNK         0.1020 
    135 H135      -48.7482  -32.2710    9.7408 H         1 UNK         0.0694 
    136 H136      -49.9857  -32.7661   10.8658 H         1 UNK         0.0694 
    137 H137      -46.2074  -27.6976   10.6125 H         1 UNK         0.2989 
    138 H138      -45.0144  -24.8084   12.2161 H         1 UNK         0.1055 
    139 H139      -43.8220  -26.8283   11.3877 H         1 UNK         0.0806 
    140 H140      -43.5329  -25.4449   10.3511 H         1 UNK         0.0806 
    141 H141      -44.6314  -26.7143    9.8330 H         1 UNK         0.0806 
    142 H142      -46.0441  -23.4325   10.8248 H         1 UNK         0.3061 
    143 H143      -47.8753  -22.8282    9.3657 H         1 UNK         0.0734 
    144 H144      -46.6328  -21.6915    7.5030 H         1 UNK         0.0832 
    145 H145      -45.4939  -22.2430    8.7146 H         1 UNK         0.0832 
    146 H146      -45.6822  -23.1461    7.2182 H         1 UNK         0.0832 
    147 H147      -48.1813  -24.8900    7.4018 H         1 UNK         0.3156 
    148 H148      -50.5407  -24.6968    6.3253 H         1 UNK         0.0589 
    149 H149      -51.6032  -23.4218    4.4549 H         1 UNK         0.0808 
    150 H150      -51.7371  -22.5128    5.9471 H         1 UNK         0.0808 
    151 H151      -50.5328  -22.0531    4.7499 H         1 UNK         0.0808 
    152 H152      -48.0876  -23.9989    5.0785 H         1 UNK         0.3098 
    153 H153      -48.2948  -26.4174    2.4378 H         1 UNK         0.0720 
    154 H154      -46.3828  -24.9384    1.9512 H         1 UNK         0.0791 
    155 H155      -46.8335  -23.8365    3.2465 H         1 UNK         0.0791 
    156 H156      -47.8758  -24.0222    1.8420 H         1 UNK         0.0791 
    157 H157      -46.5701  -25.8001    4.7954 H         1 UNK         0.3028 
@<TRIPOS>BOND
     1    1    2 1    
     2    1   82 1    
     3    1   83 1    
     4    1   84 1    
     5    2    3 2    
     6    2    4 am   BACKBONE|DICT|INTERRES
     7    4    5 1    
     8    4   85 1    
     9    5    6 1    
    10    5   80 1    
    11    5   86 1    
    12    6    7 1    
    13    6   87 1    
    14    6   88 1    
    15    7    8 1    
    16    8    9 1    
    17    8   89 1    
    18    8   90 1    
    19    9   10 ar   
    20    9   14 ar   
    21   10   11 ar   
    22   10   91 1    
    23   11   12 ar   
    24   11   58 1    
    25   12   13 ar   
    26   12   92 1    
    27   13   14 ar   
    28   13   15 1    
    29   14   93 1    
    30   15   16 1    
    31   15   94 1    
    32   15   95 1    
    33   16   17 1    
    34   17   18 1    
    35   17   96 1    
    36   17   97 1    
    37   18   19 1    
    38   18   22 1    
    39   18   98 1    
    40   19   20 am   BACKBONE|DICT|INTERRES
    41   19   21 2    
    42   20   99 1    
    43   20  100 1    
    44   22   23 am   BACKBONE|DICT|INTERRES
    45   22  101 1    
    46   23   24 2    
    47   23   25 1    
    48   25   26 1    
    49   25   27 1    
    50   25  102 1    
    51   26  103 1    
    52   26  104 1    
    53   26  105 1    
    54   27   28 am   BACKBONE|DICT|INTERRES
    55   27  106 1    
    56   28   29 2    
    57   28   30 1    
    58   30   31 1    
    59   30   32 1    
    60   30  107 1    
    61   31  108 1    
    62   31  109 1    
    63   31  110 1    
    64   32   33 am   BACKBONE|DICT|INTERRES
    65   32  111 1    
    66   33   34 2    
    67   33   35 1    
    68   35   36 1    
    69   35   37 1    
    70   35  112 1    
    71   36  113 1    
    72   36  114 1    
    73   36  115 1    
    74   37   38 am   BACKBONE|DICT|INTERRES
    75   37  116 1    
    76   38   39 2    
    77   38   40 1    
    78   40   41 1    
    79   40   42 1    
    80   40  117 1    
    81   41  118 1    
    82   41  119 1    
    83   41  120 1    
    84   42   43 am   BACKBONE|DICT|INTERRES
    85   42  121 1    
    86   43   44 2    
    87   43   45 1    
    88   45   46 1    
    89   45   47 1    
    90   45  122 1    
    91   46  123 1    
    92   46  124 1    
    93   46  125 1    
    94   47   48 am   BACKBONE|DICT|INTERRES
    95   47  126 1    
    96   48   49 2    
    97   48   50 1    
    98   50   51 1    
    99   50   52 1    
   100   50  127 1    
   101   51  128 1    
   102   51  129 1    
   103   51  130 1    
   104   52   53 am   BACKBONE|DICT|INTERRES
   105   52  131 1    
   106   53   54 2    
   107   53   55 1    
   108   55   56 1    
   109   55   59 1    
   110   55  132 1    
   111   56   57 1    
   112   56  133 1    
   113   56  134 1    
   114   57   58 1    
   115   58  135 1    
   116   58  136 1    
   117   59   60 am   BACKBONE|DICT|INTERRES
   118   59  137 1    
   119   60   61 2    
   120   60   62 1    
   121   62   63 1    
   122   62   64 1    
   123   62  138 1    
   124   63  139 1    
   125   63  140 1    
   126   63  141 1    
   127   64   65 am   BACKBONE|DICT|INTERRES
   128   64  142 1    
   129   65   66 2    
   130   65   67 1    
   131   67   68 1    
   132   67   69 1    
   133   67  143 1    
   134   68  144 1    
   135   68  145 1    
   136   68  146 1    
   137   69   70 am   BACKBONE|DICT|INTERRES
   138   69  147 1    
   139   70   71 2    
   140   70   72 1    
   141   72   73 1    
   142   72   74 1    
   143   72  148 1    
   144   73  149 1    
   145   73  150 1    
   146   73  151 1    
   147   74   75 am   BACKBONE|DICT|INTERRES
   148   74  152 1    
   149   75   76 2    
   150   75   77 1    
   151   77   78 1    
   152   77   79 1    
   153   77  153 1    
   154   78  154 1    
   155   78  155 1    
   156   78  156 1    
   157   79   80 am   BACKBONE|DICT|INTERRES
   158   79  157 1    
   159   80   81 2    
@<TRIPOS>SUBSTRUCTURE
     1 UNK         1 GROUP             0       ****    0 ROOT    
