@<TRIPOS>MOLECULE
3R207
157   159    1
SMALL
USER_CHARGES


@<TRIPOS>ATOM
      1 CA        -49.9832  -28.9217    0.6668 C.3       0 UNK        -0.1975 
      2 C         -49.7164  -28.7403    2.1544 C.2       0 UNK         0.4852 
      3 O         -48.6998  -28.1460    2.5155 O.2       0 UNK        -0.5216 
      4 N         -50.6225  -29.2563    2.9990 N.am      1 UNK        -0.4461 
      5 CA        -50.6280  -29.1956    4.4695 C.3       1 UNK         0.0864 
      6 C6        -49.3601  -29.8121    5.1301 C.3       14 UNK        -0.0898 
      7 S7        -49.2362  -31.6225    4.9324 S.3       14 UNK        -0.2598 
      8 C8        -50.7075  -32.2725    5.8098 C.3       14 UNK         0.0286 
      9 C9        -51.0781  -31.5051    7.0765 C.ar      14 UNK        -0.0844 
     10 C10       -50.1414  -31.3206    8.0998 C.ar      14 UNK        -0.0881 
     11 C11       -50.4737  -30.5882    9.2432 C.ar      14 UNK        -0.0643 
     12 C12       -51.7619  -30.0680    9.3731 C.ar      14 UNK        -0.0930 
     13 C13       -52.7150  -30.2636    8.3716 C.ar      14 UNK        -0.0827 
     14 C14       -52.3674  -30.9796    7.2229 C.ar      14 UNK        -0.1249 
     15 C15       -54.1148  -29.6966    8.5486 C.3       14 UNK         0.0141 
     16 S16       -54.9169  -30.4280   10.0076 S.3       14 UNK        -0.2313 
     17 C17       -56.3599  -29.3383   10.2341 C.3       14 UNK        -0.0915 
     18 CA        -56.0467  -27.9182   10.8047 C.3       13 UNK         0.0968 
     19 C         -57.3538  -27.1129   11.0740 C.2       13 UNK         0.5732 
     20 N         -57.4959  -26.3971   12.1829 N.am      13 UNK        -0.7310 
     21 O         -58.2542  -27.1076   10.2374 O.2       13 UNK        -0.5035 
     22 N         -55.0628  -27.8852   11.9038 N.am      13 UNK        -0.4233 
     23 C         -55.1204  -28.5591   13.0601 C.2       13 UNK         0.4989 
     24 O         -55.9962  -29.3742   13.3520 O.2       13 UNK        -0.4996 
     25 CA        -54.0168  -28.2393   14.0881 C.3       12 UNK         0.0216 
     26 CB        -52.7385  -29.0358   13.7757 C.3       12 UNK        -0.1964 
     27 N         -53.6806  -26.8135   14.2177 N.am      12 UNK        -0.4276 
     28 C         -54.5570  -25.8233   14.4452 C.2       12 UNK         0.5020 
     29 O         -55.7801  -25.9767   14.4617 O.2       12 UNK        -0.5489 
     30 CA        -53.9570  -24.4325   14.7179 C.3       11 UNK         0.0294 
     31 CB        -55.0164  -23.3105   14.7240 C.3       11 UNK        -0.2019 
     32 N         -53.1637  -24.3960   15.9527 N.am      11 UNK        -0.4493 
     33 C         -53.5640  -24.7429   17.1877 C.2       11 UNK         0.4932 
     34 O         -54.7057  -25.1148   17.4649 O.2       11 UNK        -0.5029 
     35 CA        -52.5115  -24.6411   18.3110 C.3       10 UNK         0.0280 
     36 CB        -52.9348  -25.3823   19.5974 C.3       10 UNK        -0.1976 
     37 N         -51.1662  -25.0620   17.9064 N.am      10 UNK        -0.4242 
     38 C         -50.7801  -26.2408   17.3968 C.2       10 UNK         0.5072 
     39 O         -51.5528  -27.1718   17.1628 O.2       10 UNK        -0.5224 
     40 CA        -49.2683  -26.4027   17.1141 C.3       9 UNK         0.0343 
     41 CB        -48.9458  -27.7227   16.3887 C.3       9 UNK        -0.2003 
     42 N         -48.7029  -25.2889   16.3440 N.am      9 UNK        -0.4272 
     43 C         -48.4716  -24.0489   16.7988 C.2       9 UNK         0.4988 
     44 O         -48.6496  -23.7114   17.9701 O.2       9 UNK        -0.5108 
     45 CA        -48.0335  -22.9888   15.7741 C.3       8 UNK         0.0248 
     46 CB        -46.5035  -22.9736   15.6338 C.3       8 UNK        -0.2001 
     47 N         -48.6559  -23.1534   14.4557 N.am      8 UNK        -0.4140 
     48 C         -49.9769  -23.1156   14.2174 C.2       8 UNK         0.5028 
     49 O         -50.8292  -22.9194   15.0850 O.2       8 UNK        -0.5428 
     50 CA        -50.4270  -23.3994   12.7748 C.3       7 UNK         0.0264 
     51 CB        -50.1453  -22.2043   11.8506 C.3       7 UNK        -0.1988 
     52 N         -49.7996  -24.6072   12.2415 N.am      7 UNK        -0.4454 
     53 C         -50.0031  -25.8500   12.7049 C.2       7 UNK         0.5027 
     54 O         -50.8553  -26.1377   13.5484 O.2       7 UNK        -0.5083 
     55 CA        -49.0774  -26.9488   12.1432 C.3       6 UNK         0.0844 
     56 C56       -49.6778  -27.5686   10.8580 C.3       14 UNK        -0.0967 
     57 S57       -48.5616  -28.7852   10.0707 S.3       14 UNK        -0.2604 
     58 C58       -49.4413  -30.3548   10.3338 C.3       14 UNK         0.0134 
     59 N         -47.7215  -26.4363   11.9282 N.am      6 UNK        -0.4116 
     60 C         -46.8435  -26.1304   12.8905 C.2       5 UNK         0.5034 
     61 O         -47.0724  -26.2539   14.0921 O.2       5 UNK        -0.5045 
     62 CA        -45.4914  -25.5583   12.4299 C.3       5 UNK         0.0224 
     63 CB        -44.5132  -26.6946   12.0926 C.3       5 UNK        -0.1978 
     64 N         -45.6185  -24.6627   11.2756 N.am      5 UNK        -0.4737 
     65 C         -46.2424  -23.4768   11.3098 C.2       4 UNK         0.5027 
     66 O         -46.7183  -22.9887   12.3336 O.2       4 UNK        -0.5211 
     67 CA        -46.4194  -22.7409    9.9687 C.3       4 UNK         0.0297 
     68 CB        -45.1892  -21.8711    9.6672 C.3       4 UNK        -0.1993 
     69 N         -46.6877  -23.6310    8.8306 N.am      4 UNK        -0.4486 
     70 C         -47.7107  -24.4942    8.7589 C.2       3 UNK         0.4961 
     71 O         -48.5309  -24.6479    9.6659 O.2       3 UNK        -0.5105 
     72 CA        -47.7848  -25.3668    7.4925 C.3       3 UNK         0.0299 
     73 CB        -46.6294  -26.3831    7.4686 C.3       3 UNK        -0.1972 
     74 N         -49.0470  -26.1040    7.3975 N.am      3 UNK        -0.4305 
     75 C         -50.2467  -25.5628    7.1428 C.2       2 UNK         0.5006 
     76 O         -50.4243  -24.3698    6.8874 O.2       2 UNK        -0.5106 
     77 CA        -51.4375  -26.5440    7.1645 C.3       2 UNK         0.0296 
     78 CB        -52.7823  -25.8854    6.7899 C.3       2 UNK        -0.2002 
     79 N         -51.1905  -27.7392    6.3468 N.am      2 UNK        -0.4032 
     80 C         -50.9284  -27.7862    5.0288 C.2       1 UNK         0.5000 
     81 O         -50.9378  -26.7988    4.2890 O.2       1 UNK        -0.5238 
     82 H82       -50.9043  -29.4735    0.4797 H         1 UNK         0.0889 
     83 H83       -49.1620  -29.4672    0.2025 H         1 UNK         0.0889 
     84 H84       -50.0656  -27.9503    0.1800 H         1 UNK         0.0889 
     85 H85       -51.4329  -29.7100    2.6014 H         1 UNK         0.3028 
     86 H86       -51.4910  -29.7932    4.7612 H         1 UNK         0.0864 
     87 H87       -48.4519  -29.3667    4.7244 H         1 UNK         0.0720 
     88 H88       -49.3077  -29.5965    6.1968 H         1 UNK         0.0720 
     89 H89       -50.5258  -33.3158    6.0708 H         1 UNK         0.0814 
     90 H90       -51.5444  -32.2808    5.1099 H         1 UNK         0.0814 
     91 H91       -49.1441  -31.7254    7.9918 H         1 UNK         0.1469 
     92 H92       -52.0393  -29.5235   10.2637 H         1 UNK         0.1381 
     93 H93       -53.1033  -31.1307    6.4446 H         1 UNK         0.1206 
     94 H94       -54.0427  -28.6150    8.6646 H         1 UNK         0.0813 
     95 H95       -54.7317  -29.8799    7.6676 H         1 UNK         0.0813 
     96 H96       -56.8736  -29.2557    9.2746 H         1 UNK         0.0638 
     97 H97       -57.0518  -29.8615   10.8962 H         1 UNK         0.0638 
     98 H98       -55.5621  -27.3613   10.0030 H         1 UNK         0.0568 
     99 H99       -56.7852  -26.3823   12.9098 H         1 UNK         0.3450 
    100 H100      -58.3488  -25.8790   12.3180 H         1 UNK         0.3450 
    101 H101      -54.3143  -27.2187   11.7903 H         1 UNK         0.2987 
    102 H102      -54.3844  -28.5619   15.0642 H         1 UNK         0.0766 
    103 H103      -52.9502  -30.1033   13.6997 H         1 UNK         0.0798 
    104 H104      -51.9917  -28.9078   14.5602 H         1 UNK         0.0798 
    105 H105      -52.2889  -28.7238   12.8330 H         1 UNK         0.0798 
    106 H106      -52.6894  -26.5840   14.2074 H         1 UNK         0.3198 
    107 H107      -53.2728  -24.2293   13.8971 H         1 UNK         0.0843 
    108 H108      -55.5694  -23.2920   13.7841 H         1 UNK         0.0831 
    109 H109      -54.5544  -22.3312   14.8484 H         1 UNK         0.0831 
    110 H110      -55.7440  -23.4426   15.5255 H         1 UNK         0.0831 
    111 H111      -52.2100  -24.0595   15.8355 H         1 UNK         0.3133 
    112 H112      -52.4341  -23.5803   18.5532 H         1 UNK         0.0566 
    113 H113      -52.1900  -25.2685   20.3851 H         1 UNK         0.0814 
    114 H114      -53.0746  -26.4492   19.4192 H         1 UNK         0.0814 
    115 H115      -53.8757  -24.9906   19.9859 H         1 UNK         0.0814 
    116 H116      -50.4289  -24.3750   18.0451 H         1 UNK         0.3091 
    117 H117      -48.7689  -26.4300   18.0846 H         1 UNK         0.0702 
    118 H118      -47.8724  -27.8437   16.2422 H         1 UNK         0.0785 
    119 H119      -49.4254  -27.7685   15.4104 H         1 UNK         0.0785 
    120 H120      -49.2913  -28.5829   16.9635 H         1 UNK         0.0785 
    121 H121      -48.4670  -25.4920   15.3786 H         1 UNK         0.2998 
    122 H122      -48.3475  -22.0161   16.1580 H         1 UNK         0.0697 
    123 H123      -46.1258  -23.9162   15.2380 H         1 UNK         0.0825 
    124 H124      -46.0243  -22.8102   16.6000 H         1 UNK         0.0825 
    125 H125      -46.1733  -22.1748   14.9695 H         1 UNK         0.0825 
    126 H126      -48.0212  -23.2665   13.6678 H         1 UNK         0.3029 
    127 H127      -51.5038  -23.5617   12.7781 H         1 UNK         0.0897 
    128 H128      -49.0853  -21.9570   11.8105 H         1 UNK         0.0792 
    129 H129      -50.6723  -21.3145   12.1973 H         1 UNK         0.0792 
    130 H130      -50.4793  -22.4039   10.8320 H         1 UNK         0.0792 
    131 H131      -49.1458  -24.4865   11.4715 H         1 UNK         0.3086 
    132 H132      -49.0149  -27.7374   12.8962 H         1 UNK         0.0583 
    133 H133      -50.6329  -28.0349   11.0930 H         1 UNK         0.1020 
    134 H134      -49.9004  -26.7957   10.1223 H         1 UNK         0.1020 
    135 H135      -48.7130  -31.1672   10.3345 H         1 UNK         0.0694 
    136 H136      -49.9088  -30.3657   11.3197 H         1 UNK         0.0694 
    137 H137      -47.4699  -26.2546   10.9678 H         1 UNK         0.2989 
    138 H138      -45.0765  -24.9836   13.2609 H         1 UNK         0.1055 
    139 H139      -44.8640  -27.2978   11.2540 H         1 UNK         0.0806 
    140 H140      -43.5264  -26.3067   11.8388 H         1 UNK         0.0806 
    141 H141      -44.3864  -27.3643   12.9446 H         1 UNK         0.0806 
    142 H142      -45.2489  -24.9865   10.3936 H         1 UNK         0.3061 
    143 H143      -47.2833  -22.0815   10.0733 H         1 UNK         0.0734 
    144 H144      -44.2935  -22.4742    9.5134 H         1 UNK         0.0832 
    145 H145      -45.3417  -21.2607    8.7770 H         1 UNK         0.0832 
    146 H146      -44.9836  -21.1883   10.4931 H         1 UNK         0.0832 
    147 H147      -46.0525  -23.5674    8.0476 H         1 UNK         0.3156 
    148 H148      -47.7022  -24.7139    6.6212 H         1 UNK         0.0589 
    149 H149      -46.6726  -27.0104    6.5777 H         1 UNK         0.0808 
    150 H150      -45.6593  -25.8850    7.4583 H         1 UNK         0.0808 
    151 H151      -46.6487  -27.0398    8.3394 H         1 UNK         0.0808 
    152 H152      -49.0036  -27.0866    7.6230 H         1 UNK         0.3098 
    153 H153      -51.5258  -26.8923    8.1946 H         1 UNK         0.0720 
    154 H154      -53.0162  -25.0648    7.4691 H         1 UNK         0.0791 
    155 H155      -53.6038  -26.5993    6.8493 H         1 UNK         0.0791 
    156 H156      -52.7669  -25.4752    5.7797 H         1 UNK         0.0791 
    157 H157      -51.1860  -28.6127    6.8578 H         1 UNK         0.3028 
@<TRIPOS>BOND
     1    1    2 1    
     2    1   82 1    
     3    1   83 1    
     4    1   84 1    
     5    2    3 2    
     6    2    4 am   BACKBONE|DICT|INTERRES
     7    4    5 1    
     8    4   85 1    
     9    5    6 1    
    10    5   80 1    
    11    5   86 1    
    12    6    7 1    
    13    6   87 1    
    14    6   88 1    
    15    7    8 1    
    16    8    9 1    
    17    8   89 1    
    18    8   90 1    
    19    9   10 ar   
    20    9   14 ar   
    21   10   11 ar   
    22   10   91 1    
    23   11   12 ar   
    24   11   58 1    
    25   12   13 ar   
    26   12   92 1    
    27   13   14 ar   
    28   13   15 1    
    29   14   93 1    
    30   15   16 1    
    31   15   94 1    
    32   15   95 1    
    33   16   17 1    
    34   17   18 1    
    35   17   96 1    
    36   17   97 1    
    37   18   19 1    
    38   18   22 1    
    39   18   98 1    
    40   19   20 am   BACKBONE|DICT|INTERRES
    41   19   21 2    
    42   20   99 1    
    43   20  100 1    
    44   22   23 am   BACKBONE|DICT|INTERRES
    45   22  101 1    
    46   23   24 2    
    47   23   25 1    
    48   25   26 1    
    49   25   27 1    
    50   25  102 1    
    51   26  103 1    
    52   26  104 1    
    53   26  105 1    
    54   27   28 am   BACKBONE|DICT|INTERRES
    55   27  106 1    
    56   28   29 2    
    57   28   30 1    
    58   30   31 1    
    59   30   32 1    
    60   30  107 1    
    61   31  108 1    
    62   31  109 1    
    63   31  110 1    
    64   32   33 am   BACKBONE|DICT|INTERRES
    65   32  111 1    
    66   33   34 2    
    67   33   35 1    
    68   35   36 1    
    69   35   37 1    
    70   35  112 1    
    71   36  113 1    
    72   36  114 1    
    73   36  115 1    
    74   37   38 am   BACKBONE|DICT|INTERRES
    75   37  116 1    
    76   38   39 2    
    77   38   40 1    
    78   40   41 1    
    79   40   42 1    
    80   40  117 1    
    81   41  118 1    
    82   41  119 1    
    83   41  120 1    
    84   42   43 am   BACKBONE|DICT|INTERRES
    85   42  121 1    
    86   43   44 2    
    87   43   45 1    
    88   45   46 1    
    89   45   47 1    
    90   45  122 1    
    91   46  123 1    
    92   46  124 1    
    93   46  125 1    
    94   47   48 am   BACKBONE|DICT|INTERRES
    95   47  126 1    
    96   48   49 2    
    97   48   50 1    
    98   50   51 1    
    99   50   52 1    
   100   50  127 1    
   101   51  128 1    
   102   51  129 1    
   103   51  130 1    
   104   52   53 am   BACKBONE|DICT|INTERRES
   105   52  131 1    
   106   53   54 2    
   107   53   55 1    
   108   55   56 1    
   109   55   59 1    
   110   55  132 1    
   111   56   57 1    
   112   56  133 1    
   113   56  134 1    
   114   57   58 1    
   115   58  135 1    
   116   58  136 1    
   117   59   60 am   BACKBONE|DICT|INTERRES
   118   59  137 1    
   119   60   61 2    
   120   60   62 1    
   121   62   63 1    
   122   62   64 1    
   123   62  138 1    
   124   63  139 1    
   125   63  140 1    
   126   63  141 1    
   127   64   65 am   BACKBONE|DICT|INTERRES
   128   64  142 1    
   129   65   66 2    
   130   65   67 1    
   131   67   68 1    
   132   67   69 1    
   133   67  143 1    
   134   68  144 1    
   135   68  145 1    
   136   68  146 1    
   137   69   70 am   BACKBONE|DICT|INTERRES
   138   69  147 1    
   139   70   71 2    
   140   70   72 1    
   141   72   73 1    
   142   72   74 1    
   143   72  148 1    
   144   73  149 1    
   145   73  150 1    
   146   73  151 1    
   147   74   75 am   BACKBONE|DICT|INTERRES
   148   74  152 1    
   149   75   76 2    
   150   75   77 1    
   151   77   78 1    
   152   77   79 1    
   153   77  153 1    
   154   78  154 1    
   155   78  155 1    
   156   78  156 1    
   157   79   80 am   BACKBONE|DICT|INTERRES
   158   79  157 1    
   159   80   81 2    
@<TRIPOS>SUBSTRUCTURE
     1 UNK         1 GROUP             0       ****    0 ROOT    
