@<TRIPOS>MOLECULE
3R207
157   159    1
SMALL
USER_CHARGES


@<TRIPOS>ATOM
      1 CA        -52.9785  -23.6123    8.0732 C.3       0 UNK        -0.1975 
      2 C         -51.8657  -24.6359    7.9038 C.2       0 UNK         0.4852 
      3 O         -50.9780  -24.7201    8.7513 O.2       0 UNK        -0.5216 
      4 N         -51.9195  -25.4339    6.8303 N.am      1 UNK        -0.4461 
      5 CA        -50.8967  -26.4244    6.4773 C.3       1 UNK         0.0864 
      6 C6        -51.4025  -27.4219    5.4056 C.3       14 UNK        -0.0898 
      7 S7        -52.9256  -28.3029    5.8970 S.3       14 UNK        -0.2598 
      8 C8        -52.3440  -30.0167    6.1023 C.3       14 UNK         0.0286 
      9 C9        -51.8114  -30.2665    7.5049 C.ar      14 UNK        -0.0844 
     10 C10       -50.4741  -30.0068    7.8142 C.ar      14 UNK        -0.0881 
     11 C11       -49.9841  -30.2343    9.1050 C.ar      14 UNK        -0.0643 
     12 C12       -50.8452  -30.7467   10.0840 C.ar      14 UNK        -0.0930 
     13 C13       -52.1831  -31.0272    9.7832 C.ar      14 UNK        -0.0827 
     14 C14       -52.6570  -30.7819    8.4910 C.ar      14 UNK        -0.1249 
     15 C15       -53.1218  -31.6113   10.8350 C.3       14 UNK         0.0141 
     16 S16       -54.3924  -30.4012   11.3068 S.3       14 UNK        -0.2313 
     17 C17       -55.4509  -31.3068   12.4796 C.3       14 UNK        -0.0915 
     18 CA        -55.4174  -30.7550   13.9369 C.3       13 UNK         0.0968 
     19 C         -54.2486  -31.2747   14.8153 C.2       13 UNK         0.5732 
     20 N         -53.9604  -30.6297   15.9395 N.am      13 UNK        -0.7310 
     21 O         -53.6072  -32.2735   14.4991 O.2       13 UNK        -0.5035 
     22 N         -55.5727  -29.2924   14.0197 N.am      13 UNK        -0.4233 
     23 C         -56.7359  -28.6343   13.9818 C.2       13 UNK         0.4989 
     24 O         -57.8277  -29.1889   13.8399 O.2       13 UNK        -0.4996 
     25 CA        -56.6672  -27.0976   14.1299 C.3       12 UNK         0.0216 
     26 CB        -58.0282  -26.4676   14.4969 C.3       12 UNK        -0.1964 
     27 N         -55.6171  -26.6370   15.0521 N.am      12 UNK        -0.4276 
     28 C         -55.4838  -26.9541   16.3490 C.2       12 UNK         0.5020 
     29 O         -56.2815  -27.6692   16.9573 O.2       12 UNK        -0.5489 
     30 CA        -54.2604  -26.4078   17.1080 C.3       11 UNK         0.0294 
     31 CB        -53.5510  -27.5120   17.9175 C.3       11 UNK        -0.2019 
     32 N         -53.2696  -25.7380   16.2550 N.am      11 UNK        -0.4493 
     33 C         -52.5451  -24.6833   16.6586 C.2       11 UNK         0.4932 
     34 O         -52.7386  -24.0910   17.7214 O.2       11 UNK        -0.5029 
     35 CA        -51.3820  -24.2168   15.7661 C.3       10 UNK         0.0280 
     36 CB        -50.1088  -25.0226   16.0685 C.3       10 UNK        -0.1976 
     37 N         -51.6627  -24.2541   14.3306 N.am      10 UNK        -0.4242 
     38 C         -52.4737  -23.3869   13.7071 C.2       10 UNK         0.5072 
     39 O         -53.1590  -22.5434   14.2864 O.2       10 UNK        -0.5224 
     40 CA        -52.5028  -23.4526   12.1739 C.3       9 UNK         0.0343 
     41 CB        -51.2671  -22.7541   11.5814 C.3       9 UNK        -0.2003 
     42 N         -52.5661  -24.8348   11.7041 N.am      9 UNK        -0.4272 
     43 C         -53.7016  -25.5401   11.6214 C.2       9 UNK         0.4988 
     44 O         -54.8170  -25.0693   11.8419 O.2       9 UNK        -0.5108 
     45 CA        -53.5785  -27.0289   11.2613 C.3       8 UNK         0.0248 
     46 CB        -53.5299  -27.2246    9.7368 C.3       8 UNK        -0.2001 
     47 N         -52.4179  -27.6782   11.8745 N.am      8 UNK        -0.4140 
     48 C         -52.2196  -27.8238   13.1920 C.2       8 UNK         0.5028 
     49 O         -53.0499  -27.5162   14.0454 O.2       8 UNK        -0.5428 
     50 CA        -50.8495  -28.3551   13.6488 C.3       7 UNK         0.0264 
     51 CB        -50.9245  -29.8497   13.9854 C.3       7 UNK        -0.1988 
     52 N         -49.7664  -28.1232   12.6897 N.am      7 UNK        -0.4454 
     53 C         -49.3588  -26.9200   12.2623 C.2       7 UNK         0.5027 
     54 O         -49.8800  -25.8549   12.6077 O.2       7 UNK        -0.5083 
     55 CA        -48.2361  -26.9402   11.2062 C.3       6 UNK         0.0844 
     56 C56       -48.8428  -27.1863    9.7978 C.3       14 UNK        -0.0967 
     57 S57       -47.8705  -28.3838    8.8324 S.3       14 UNK        -0.2604 
     58 C58       -48.5143  -29.9846    9.4349 C.3       14 UNK         0.0134 
     59 N         -47.4127  -25.7258   11.2576 N.am      6 UNK        -0.4116 
     60 C         -46.6869  -25.3547   12.3232 C.2       5 UNK         0.5034 
     61 O         -46.5511  -26.0505   13.3331 O.2       5 UNK        -0.5045 
     62 CA        -45.9999  -23.9771   12.2438 C.3       5 UNK         0.0224 
     63 CB        -45.2426  -23.6122   13.5386 C.3       5 UNK        -0.1978 
     64 N         -45.1119  -23.8256   11.0852 N.am      5 UNK        -0.4737 
     65 C         -44.0834  -24.6031   10.7168 C.2       4 UNK         0.5027 
     66 O         -43.7581  -25.6342   11.3068 O.2       4 UNK        -0.5211 
     67 CA        -43.2711  -24.1377    9.4857 C.3       4 UNK         0.0297 
     68 CB        -42.3173  -25.2285    8.9622 C.3       4 UNK        -0.1993 
     69 N         -44.1118  -23.6799    8.3750 N.am      4 UNK        -0.4486 
     70 C         -44.7597  -22.5094    8.2988 C.2       3 UNK         0.4961 
     71 O         -44.7012  -21.6445    9.1730 O.2       3 UNK        -0.5105 
     72 CA        -45.6521  -22.2705    7.0665 C.3       3 UNK         0.0299 
     73 CB        -44.9416  -21.3474    6.0634 C.3       3 UNK        -0.1972 
     74 N         -46.0749  -23.4959    6.3785 N.am      3 UNK        -0.4305 
     75 C         -46.8565  -24.4481    6.9061 C.2       2 UNK         0.5006 
     76 O         -47.2838  -24.4300    8.0637 O.2       2 UNK        -0.5106 
     77 CA        -47.1516  -25.6495    5.9940 C.3       2 UNK         0.0296 
     78 CB        -46.0422  -26.7064    6.1276 C.3       2 UNK        -0.2002 
     79 N         -48.4456  -26.2525    6.3169 N.am      2 UNK        -0.4032 
     80 C         -49.6229  -25.7101    5.9781 C.2       1 UNK         0.5000 
     81 O         -49.7300  -24.7063    5.2659 O.2       1 UNK        -0.5238 
     82 H82       -53.4958  -23.7729    9.0184 H         1 UNK         0.0889 
     83 H83       -53.7127  -23.6715    7.2701 H         1 UNK         0.0889 
     84 H84       -52.5616  -22.6057    8.0800 H         1 UNK         0.0889 
     85 H85       -52.6673  -25.3258    6.1608 H         1 UNK         0.3028 
     86 H86       -50.6500  -26.9876    7.3795 H         1 UNK         0.0864 
     87 H87       -50.6240  -28.1484    5.1669 H         1 UNK         0.0720 
     88 H88       -51.6159  -26.8988    4.4712 H         1 UNK         0.0720 
     89 H89       -53.1802  -30.6888    5.9035 H         1 UNK         0.0814 
     90 H90       -51.5877  -30.2578    5.3541 H         1 UNK         0.0814 
     91 H91       -49.8111  -29.6322    7.0472 H         1 UNK         0.1469 
     92 H92       -50.4669  -30.9522   11.0748 H         1 UNK         0.1381 
     93 H93       -53.6916  -30.9913    8.2553 H         1 UNK         0.1206 
     94 H94       -52.5729  -31.9269   11.7231 H         1 UNK         0.0813 
     95 H95       -53.6039  -32.5035   10.4330 H         1 UNK         0.0813 
     96 H96       -56.4706  -31.2284   12.1003 H         1 UNK         0.0638 
     97 H97       -55.2171  -32.3721   12.4488 H         1 UNK         0.0638 
     98 H98       -56.2845  -31.1934   14.4341 H         1 UNK         0.0568 
     99 H99       -54.5209  -29.8483   16.2398 H         1 UNK         0.3450 
    100 H100      -53.2165  -30.9751   16.5240 H         1 UNK         0.3450 
    101 H101      -54.7126  -28.7645   14.1291 H         1 UNK         0.2987 
    102 H102      -56.3940  -26.7224   13.1441 H         1 UNK         0.0766 
    103 H103      -57.9569  -25.3819   14.5628 H         1 UNK         0.0798 
    104 H104      -58.7822  -26.6950   13.7423 H         1 UNK         0.0798 
    105 H105      -58.4016  -26.8385   15.4519 H         1 UNK         0.0798 
    106 H106      -54.8859  -26.0820   14.6296 H         1 UNK         0.3198 
    107 H107      -54.6765  -25.6870   17.8151 H         1 UNK         0.0843 
    108 H108      -53.0701  -28.2391   17.2629 H         1 UNK         0.0831 
    109 H109      -54.2482  -28.0528   18.5587 H         1 UNK         0.0831 
    110 H110      -52.7829  -27.0926   18.5674 H         1 UNK         0.0831 
    111 H111      -53.0366  -26.2126   15.3845 H         1 UNK         0.3133 
    112 H112      -51.1727  -23.1766   16.0260 H         1 UNK         0.0566 
    113 H113      -50.2569  -26.0892   15.9120 H         1 UNK         0.0814 
    114 H114      -49.8061  -24.8906   17.1081 H         1 UNK         0.0814 
    115 H115      -49.2733  -24.7033   15.4446 H         1 UNK         0.0814 
    116 H116      -51.1024  -24.8857   13.7643 H         1 UNK         0.3091 
    117 H117      -53.3880  -22.9131   11.8296 H         1 UNK         0.0702 
    118 H118      -51.3290  -22.6954   10.4955 H         1 UNK         0.0785 
    119 H119      -50.3424  -23.2742   11.8339 H         1 UNK         0.0785 
    120 H120      -51.1799  -21.7323   11.9532 H         1 UNK         0.0785 
    121 H121      -51.6805  -25.2948   11.5336 H         1 UNK         0.2998 
    122 H122      -54.4779  -27.5175   11.6392 H         1 UNK         0.0697 
    123 H123      -52.5555  -26.9633    9.3283 H         1 UNK         0.0825 
    124 H124      -54.2790  -26.6147    9.2299 H         1 UNK         0.0825 
    125 H125      -53.7249  -28.2594    9.4603 H         1 UNK         0.0825 
    126 H126      -51.7019  -28.0092   11.2472 H         1 UNK         0.3029 
    127 H127      -50.5851  -27.8246   14.5627 H         1 UNK         0.0897 
    128 H128      -49.9437  -30.2626   14.2218 H         1 UNK         0.0792 
    129 H129      -51.5502  -30.0070   14.8623 H         1 UNK         0.0792 
    130 H130      -51.3536  -30.4329   13.1718 H         1 UNK         0.0792 
    131 H131      -49.2766  -28.9428   12.3627 H         1 UNK         0.3086 
    132 H132      -47.5772  -27.7708   11.4691 H         1 UNK         0.0583 
    133 H133      -49.8729  -27.5466    9.8281 H         1 UNK         0.1020 
    134 H134      -48.8973  -26.2515    9.2386 H         1 UNK         0.1020 
    135 H135      -47.9236  -30.7827    8.9835 H         1 UNK         0.0694 
    136 H136      -48.3405  -30.0502   10.5094 H         1 UNK         0.0694 
    137 H137      -47.4555  -25.1146   10.4528 H         1 UNK         0.2989 
    138 H138      -46.8022  -23.2477   12.1187 H         1 UNK         0.1055 
    139 H139      -44.8254  -22.6067   13.4845 H         1 UNK         0.0806 
    140 H140      -44.4235  -24.3047   13.7366 H         1 UNK         0.0806 
    141 H141      -45.9083  -23.6393   14.4024 H         1 UNK         0.0806 
    142 H142      -45.2635  -22.9955   10.5195 H         1 UNK         0.3061 
    143 H143      -42.6586  -23.2967    9.8176 H         1 UNK         0.0734 
    144 H144      -41.6157  -25.5413    9.7368 H         1 UNK         0.0832 
    145 H145      -42.8608  -26.1165    8.6367 H         1 UNK         0.0832 
    146 H146      -41.7239  -24.8690    8.1214 H         1 UNK         0.0832 
    147 H147      -44.2537  -24.3378    7.6232 H         1 UNK         0.3156 
    148 H148      -46.5538  -21.7634    7.4165 H         1 UNK         0.0589 
    149 H149      -44.0406  -21.8088    5.6569 H         1 UNK         0.0808 
    150 H150      -45.5939  -21.0884    5.2291 H         1 UNK         0.0808 
    151 H151      -44.6418  -20.4118    6.5382 H         1 UNK         0.0808 
    152 H152      -45.7592  -23.6046    5.4248 H         1 UNK         0.3098 
    153 H153      -47.1800  -25.3098    4.9562 H         1 UNK         0.0720 
    154 H154      -46.2706  -27.6008    5.5475 H         1 UNK         0.0791 
    155 H155      -45.0899  -26.3206    5.7620 H         1 UNK         0.0791 
    156 H156      -45.8897  -27.0077    7.1644 H         1 UNK         0.0791 
    157 H157      -48.4214  -27.0477    6.9413 H         1 UNK         0.3028 
@<TRIPOS>BOND
     1    1    2 1    
     2    1   82 1    
     3    1   83 1    
     4    1   84 1    
     5    2    3 2    
     6    2    4 am   BACKBONE|DICT|INTERRES
     7    4    5 1    
     8    4   85 1    
     9    5    6 1    
    10    5   80 1    
    11    5   86 1    
    12    6    7 1    
    13    6   87 1    
    14    6   88 1    
    15    7    8 1    
    16    8    9 1    
    17    8   89 1    
    18    8   90 1    
    19    9   10 ar   
    20    9   14 ar   
    21   10   11 ar   
    22   10   91 1    
    23   11   12 ar   
    24   11   58 1    
    25   12   13 ar   
    26   12   92 1    
    27   13   14 ar   
    28   13   15 1    
    29   14   93 1    
    30   15   16 1    
    31   15   94 1    
    32   15   95 1    
    33   16   17 1    
    34   17   18 1    
    35   17   96 1    
    36   17   97 1    
    37   18   19 1    
    38   18   22 1    
    39   18   98 1    
    40   19   20 am   BACKBONE|DICT|INTERRES
    41   19   21 2    
    42   20   99 1    
    43   20  100 1    
    44   22   23 am   BACKBONE|DICT|INTERRES
    45   22  101 1    
    46   23   24 2    
    47   23   25 1    
    48   25   26 1    
    49   25   27 1    
    50   25  102 1    
    51   26  103 1    
    52   26  104 1    
    53   26  105 1    
    54   27   28 am   BACKBONE|DICT|INTERRES
    55   27  106 1    
    56   28   29 2    
    57   28   30 1    
    58   30   31 1    
    59   30   32 1    
    60   30  107 1    
    61   31  108 1    
    62   31  109 1    
    63   31  110 1    
    64   32   33 am   BACKBONE|DICT|INTERRES
    65   32  111 1    
    66   33   34 2    
    67   33   35 1    
    68   35   36 1    
    69   35   37 1    
    70   35  112 1    
    71   36  113 1    
    72   36  114 1    
    73   36  115 1    
    74   37   38 am   BACKBONE|DICT|INTERRES
    75   37  116 1    
    76   38   39 2    
    77   38   40 1    
    78   40   41 1    
    79   40   42 1    
    80   40  117 1    
    81   41  118 1    
    82   41  119 1    
    83   41  120 1    
    84   42   43 am   BACKBONE|DICT|INTERRES
    85   42  121 1    
    86   43   44 2    
    87   43   45 1    
    88   45   46 1    
    89   45   47 1    
    90   45  122 1    
    91   46  123 1    
    92   46  124 1    
    93   46  125 1    
    94   47   48 am   BACKBONE|DICT|INTERRES
    95   47  126 1    
    96   48   49 2    
    97   48   50 1    
    98   50   51 1    
    99   50   52 1    
   100   50  127 1    
   101   51  128 1    
   102   51  129 1    
   103   51  130 1    
   104   52   53 am   BACKBONE|DICT|INTERRES
   105   52  131 1    
   106   53   54 2    
   107   53   55 1    
   108   55   56 1    
   109   55   59 1    
   110   55  132 1    
   111   56   57 1    
   112   56  133 1    
   113   56  134 1    
   114   57   58 1    
   115   58  135 1    
   116   58  136 1    
   117   59   60 am   BACKBONE|DICT|INTERRES
   118   59  137 1    
   119   60   61 2    
   120   60   62 1    
   121   62   63 1    
   122   62   64 1    
   123   62  138 1    
   124   63  139 1    
   125   63  140 1    
   126   63  141 1    
   127   64   65 am   BACKBONE|DICT|INTERRES
   128   64  142 1    
   129   65   66 2    
   130   65   67 1    
   131   67   68 1    
   132   67   69 1    
   133   67  143 1    
   134   68  144 1    
   135   68  145 1    
   136   68  146 1    
   137   69   70 am   BACKBONE|DICT|INTERRES
   138   69  147 1    
   139   70   71 2    
   140   70   72 1    
   141   72   73 1    
   142   72   74 1    
   143   72  148 1    
   144   73  149 1    
   145   73  150 1    
   146   73  151 1    
   147   74   75 am   BACKBONE|DICT|INTERRES
   148   74  152 1    
   149   75   76 2    
   150   75   77 1    
   151   77   78 1    
   152   77   79 1    
   153   77  153 1    
   154   78  154 1    
   155   78  155 1    
   156   78  156 1    
   157   79   80 am   BACKBONE|DICT|INTERRES
   158   79  157 1    
   159   80   81 2    
@<TRIPOS>SUBSTRUCTURE
     1 UNK         1 GROUP             0       ****    0 ROOT    
