@<TRIPOS>MOLECULE
3R207
157   159    1
SMALL
USER_CHARGES


@<TRIPOS>ATOM
      1 CA        -47.6012  -30.1286    6.2658 C.3       0 UNK        -0.1975 
      2 C         -48.3057  -29.0761    5.4213 C.2       0 UNK         0.4852 
      3 O         -48.6004  -29.3256    4.2520 O.2       0 UNK        -0.5216 
      4 N         -48.5710  -27.9025    6.0025 N.am      1 UNK        -0.4461 
      5 CA        -49.1651  -26.7410    5.3450 C.3       1 UNK         0.0864 
      6 C6        -50.7134  -26.8286    5.2260 C.3       14 UNK        -0.0898 
      7 S7        -51.6080  -26.8360    6.8205 S.3       14 UNK        -0.2598 
      8 C8        -52.1501  -28.5688    6.9758 C.3       14 UNK         0.0286 
      9 C9        -51.8649  -29.0936    8.3738 C.ar      14 UNK        -0.0844 
     10 C10       -50.5890  -29.5669    8.6815 C.ar      14 UNK        -0.0881 
     11 C11       -50.2824  -30.0150    9.9671 C.ar      14 UNK        -0.0643 
     12 C12       -51.2729  -30.0058   10.9519 C.ar      14 UNK        -0.0930 
     13 C13       -52.5597  -29.5437   10.6551 C.ar      14 UNK        -0.0827 
     14 C14       -52.8530  -29.0913    9.3637 C.ar      14 UNK        -0.1249 
     15 C15       -53.6134  -29.4877   11.7480 C.3       14 UNK         0.0141 
     16 S16       -54.7577  -30.8950   11.6674 S.3       14 UNK        -0.2313 
     17 C17       -55.4746  -30.8610   13.3457 C.3       14 UNK        -0.0915 
     18 CA        -56.7468  -29.9783   13.4564 C.3       13 UNK         0.0968 
     19 C         -57.5374  -30.2840   14.7637 C.2       13 UNK         0.5732 
     20 N         -57.7913  -29.3261   15.6485 N.am      13 UNK        -0.7310 
     21 O         -57.9477  -31.4229   14.9756 O.2       13 UNK        -0.5035 
     22 N         -56.4343  -28.5524   13.2747 N.am      13 UNK        -0.4233 
     23 C         -57.2916  -27.6437   12.7931 C.2       13 UNK         0.4989 
     24 O         -58.4060  -27.9309   12.3509 O.2       13 UNK        -0.4996 
     25 CA        -56.8345  -26.1680   12.8054 C.3       12 UNK         0.0216 
     26 CB        -58.0210  -25.1813   12.7785 C.3       12 UNK        -0.1964 
     27 N         -55.9207  -25.8267   13.9032 N.am      12 UNK        -0.4276 
     28 C         -56.1220  -25.9872   15.2186 C.2       12 UNK         0.5020 
     29 O         -57.1350  -26.4874   15.7127 O.2       12 UNK        -0.5489 
     30 CA        -54.9636  -25.5442   16.1309 C.3       11 UNK         0.0294 
     31 CB        -55.4898  -24.8864   17.4188 C.3       11 UNK        -0.2019 
     32 N         -54.0168  -26.6050   16.5002 N.am      11 UNK        -0.4493 
     33 C         -53.5615  -27.6323   15.7658 C.2       11 UNK         0.4932 
     34 O         -53.9693  -27.9453   14.6472 O.2       11 UNK        -0.5029 
     35 CA        -52.3767  -28.3888   16.3809 C.3       10 UNK         0.0280 
     36 CB        -52.0812  -29.7258   15.6773 C.3       10 UNK        -0.1976 
     37 N         -51.2070  -27.5236   16.2667 N.am      10 UNK        -0.4242 
     38 C         -50.7570  -26.7055   17.2254 C.2       10 UNK         0.5072 
     39 O         -51.2061  -26.6770   18.3720 O.2       10 UNK        -0.5224 
     40 CA        -49.6558  -25.7157   16.8145 C.3       9 UNK         0.0343 
     41 CB        -48.3282  -26.4408   16.5357 C.3       9 UNK        -0.2003 
     42 N         -50.0457  -24.9238   15.6453 N.am      9 UNK        -0.4272 
     43 C         -51.0022  -23.9817   15.6418 C.2       9 UNK         0.4988 
     44 O         -51.6416  -23.6461   16.6387 O.2       9 UNK        -0.5108 
     45 CA        -51.2961  -23.2945   14.2991 C.3       8 UNK         0.0248 
     46 CB        -50.3407  -22.1110   14.0741 C.3       8 UNK        -0.2001 
     47 N         -51.1920  -24.2367   13.1836 N.am      8 UNK        -0.4140 
     48 C         -52.1928  -25.0420   12.7970 C.2       8 UNK         0.5028 
     49 O         -53.3356  -24.9739   13.2498 O.2       8 UNK        -0.5428 
     50 CA        -51.8960  -26.0978   11.7185 C.3       7 UNK         0.0264 
     51 CB        -52.4055  -25.6091   10.3554 C.3       7 UNK        -0.1988 
     52 N         -50.4840  -26.4699   11.6037 N.am      7 UNK        -0.4454 
     53 C         -49.7692  -27.0845   12.5580 C.2       7 UNK         0.5027 
     54 O         -50.2544  -27.4903   13.6140 O.2       7 UNK        -0.5083 
     55 CA        -48.2400  -27.1776   12.3624 C.3       6 UNK         0.0844 
     56 C56       -47.7471  -28.6241   12.0950 C.3       14 UNK        -0.0967 
     57 S57       -47.6967  -29.1181   10.3351 S.3       14 UNK        -0.2604 
     58 C58       -48.8768  -30.5026   10.2726 C.3       14 UNK         0.0134 
     59 N         -47.7041  -26.2017   11.4065 N.am      6 UNK        -0.4116 
     60 C         -47.7621  -24.8693   11.5364 C.2       5 UNK         0.5034 
     61 O         -48.2932  -24.3135   12.4997 O.2       5 UNK        -0.5045 
     62 CA        -47.2097  -24.0145   10.3800 C.3       5 UNK         0.0224 
     63 CB        -46.4291  -22.7837   10.8856 C.3       5 UNK        -0.1978 
     64 N         -46.4379  -24.7643    9.3785 N.am      5 UNK        -0.4737 
     65 C         -45.2424  -25.3572    9.5246 C.2       4 UNK         0.5027 
     66 O         -44.6134  -25.3994   10.5812 O.2       4 UNK        -0.5211 
     67 CA        -44.6524  -26.0189    8.2693 C.3       4 UNK         0.0297 
     68 CB        -45.1829  -27.4532    8.1114 C.3       4 UNK        -0.1993 
     69 N         -44.9630  -25.2448    7.0653 N.am      4 UNK        -0.4486 
     70 C         -44.2483  -24.1938    6.6377 C.2       3 UNK         0.4961 
     71 O         -43.1962  -23.8219    7.1585 O.2       3 UNK        -0.5105 
     72 CA        -44.7950  -23.4214    5.4223 C.3       3 UNK         0.0299 
     73 CB        -44.2225  -23.9985    4.1176 C.3       3 UNK        -0.1972 
     74 N         -46.2586  -23.4206    5.3516 N.am      3 UNK        -0.4305 
     75 C         -47.0628  -22.7589    6.1973 C.2       2 UNK         0.5006 
     76 O         -46.6563  -22.0098    7.0853 O.2       2 UNK        -0.5106 
     77 CA        -48.5792  -22.9873    6.0468 C.3       2 UNK         0.0296 
     78 CB        -49.2064  -21.8790    5.1856 C.3       2 UNK        -0.2002 
     79 N         -48.9459  -24.2984    5.4947 N.am      2 UNK        -0.4032 
     80 C         -48.6634  -25.4766    6.0687 C.2       1 UNK         0.5000 
     81 O         -48.0064  -25.5843    7.1113 O.2       1 UNK        -0.5238 
     82 H82       -47.3547  -29.7578    7.2604 H         1 UNK         0.0889 
     83 H83       -46.6743  -30.4370    5.7830 H         1 UNK         0.0889 
     84 H84       -48.2357  -31.0073    6.3778 H         1 UNK         0.0889 
     85 H85       -48.2784  -27.7088    6.9520 H         1 UNK         0.3028 
     86 H86       -48.7533  -26.6874    4.3347 H         1 UNK         0.0864 
     87 H87       -50.9881  -27.7104    4.6461 H         1 UNK         0.0720 
     88 H88       -51.0900  -25.9858    4.6446 H         1 UNK         0.0720 
     89 H89       -51.6420  -29.1996    6.2452 H         1 UNK         0.0814 
     90 H90       -53.2154  -28.6342    6.7500 H         1 UNK         0.0814 
     91 H91       -49.8230  -29.5664    7.9225 H         1 UNK         0.1469 
     92 H92       -51.0392  -30.3434   11.9523 H         1 UNK         0.1381 
     93 H93       -53.8427  -28.7188    9.1372 H         1 UNK         0.1206 
     94 H94       -54.1804  -28.5601   11.6668 H         1 UNK         0.0813 
     95 H95       -53.1257  -29.4677   12.7215 H         1 UNK         0.0813 
     96 H96       -54.7212  -30.5455   14.0679 H         1 UNK         0.0638 
     97 H97       -55.7062  -31.8981   13.5948 H         1 UNK         0.0638 
     98 H98       -57.4138  -30.2818   12.6475 H         1 UNK         0.0568 
     99 H99       -58.3116  -29.5579   16.4789 H         1 UNK         0.3450 
    100 H100      -57.4880  -28.3673   15.5020 H         1 UNK         0.3450 
    101 H101      -55.5523  -28.2386   13.6740 H         1 UNK         0.2987 
    102 H102      -56.2638  -26.0257   11.8865 H         1 UNK         0.0766 
    103 H103      -57.6766  -24.1474   12.7575 H         1 UNK         0.0798 
    104 H104      -58.6643  -25.3029   13.6508 H         1 UNK         0.0798 
    105 H105      -58.6397  -25.3316   11.8929 H         1 UNK         0.0798 
    106 H106      -54.9993  -25.4849   13.6184 H         1 UNK         0.3198 
    107 H107      -54.3906  -24.7833   15.5991 H         1 UNK         0.0843 
    108 H108      -55.9984  -25.6070   18.0605 H         1 UNK         0.0831 
    109 H109      -56.2035  -24.0938   17.1894 H         1 UNK         0.0831 
    110 H110      -54.6809  -24.4344   17.9935 H         1 UNK         0.0831 
    111 H111      -53.5610  -26.4691   17.3923 H         1 UNK         0.3133 
    112 H112      -52.6068  -28.6011   17.4270 H         1 UNK         0.0566 
    113 H113      -51.2630  -30.2538   16.1668 H         1 UNK         0.0814 
    114 H114      -52.9515  -30.3818   15.7028 H         1 UNK         0.0814 
    115 H115      -51.8026  -29.5827   14.6333 H         1 UNK         0.0814 
    116 H116      -50.8098  -27.4500   15.3302 H         1 UNK         0.3091 
    117 H117      -49.4954  -25.0283   17.6480 H         1 UNK         0.0702 
    118 H118      -47.5359  -25.7352   16.2846 H         1 UNK         0.0785 
    119 H119      -48.4144  -27.1541   15.7159 H         1 UNK         0.0785 
    120 H120      -47.9991  -26.9966   17.4148 H         1 UNK         0.0785 
    121 H121      -49.5724  -25.1284   14.7778 H         1 UNK         0.2998 
    122 H122      -52.3128  -22.8972   14.3409 H         1 UNK         0.0697 
    123 H123      -49.2959  -22.4232   14.0702 H         1 UNK         0.0825 
    124 H124      -50.4529  -21.3674   14.8641 H         1 UNK         0.0825 
    125 H125      -50.5445  -21.6109   13.1272 H         1 UNK         0.0825 
    126 H126      -50.2767  -24.3343   12.7560 H         1 UNK         0.3029 
    127 H127      -52.4496  -26.9924   12.0010 H         1 UNK         0.0897 
    128 H128      -53.4677  -25.3640   10.3985 H         1 UNK         0.0792 
    129 H129      -52.2853  -26.3769    9.5947 H         1 UNK         0.0792 
    130 H130      -51.8757  -24.7173   10.0188 H         1 UNK         0.0792 
    131 H131      -50.0107  -26.1968   10.7554 H         1 UNK         0.3086 
    132 H132      -47.8238  -26.8919   13.3307 H         1 UNK         0.0583 
    133 H133      -46.7247  -28.7136   12.4656 H         1 UNK         0.1020 
    134 H134      -48.3178  -29.3477   12.6805 H         1 UNK         0.1020 
    135 H135      -48.5627  -31.1899    9.4857 H         1 UNK         0.0694 
    136 H136      -48.8466  -31.0746   11.2010 H         1 UNK         0.0694 
    137 H137      -47.2681  -26.5869   10.5812 H         1 UNK         0.2989 
    138 H138      -48.0882  -23.6425    9.8503 H         1 UNK         0.1055 
    139 H139      -47.0606  -22.1468   11.5064 H         1 UNK         0.0806 
    140 H140      -46.0740  -22.1735   10.0547 H         1 UNK         0.0806 
    141 H141      -45.5661  -23.0678   11.4882 H         1 UNK         0.0806 
    142 H142      -46.9029  -24.8768    8.4801 H         1 UNK         0.3061 
    143 H143      -43.5684  -26.0725    8.3940 H         1 UNK         0.0734 
    144 H144      -44.7516  -27.9431    7.2384 H         1 UNK         0.0832 
    145 H145      -44.9272  -28.0595    8.9816 H         1 UNK         0.0832 
    146 H146      -46.2673  -27.4771    8.0083 H         1 UNK         0.0832 
    147 H147      -45.8423  -25.4497    6.6105 H         1 UNK         0.3156 
    148 H148      -44.4602  -22.3855    5.5110 H         1 UNK         0.0589 
    149 H149      -44.5336  -25.0320    3.9597 H         1 UNK         0.0808 
    150 H150      -44.5385  -23.4153    3.2524 H         1 UNK         0.0808 
    151 H151      -43.1316  -23.9862    4.1326 H         1 UNK         0.0808 
    152 H152      -46.6821  -23.9874    4.6319 H         1 UNK         0.3098 
    153 H153      -49.0117  -22.9250    7.0478 H         1 UNK         0.0720 
    154 H154      -50.2928  -21.9649    5.1568 H         1 UNK         0.0791 
    155 H155      -48.8384  -21.9068    4.1592 H         1 UNK         0.0791 
    156 H156      -48.9731  -20.8922    5.5886 H         1 UNK         0.0791 
    157 H157      -49.4824  -24.2898    4.6389 H         1 UNK         0.3028 
@<TRIPOS>BOND
     1    1    2 1    
     2    1   82 1    
     3    1   83 1    
     4    1   84 1    
     5    2    3 2    
     6    2    4 am   BACKBONE|DICT|INTERRES
     7    4    5 1    
     8    4   85 1    
     9    5    6 1    
    10    5   80 1    
    11    5   86 1    
    12    6    7 1    
    13    6   87 1    
    14    6   88 1    
    15    7    8 1    
    16    8    9 1    
    17    8   89 1    
    18    8   90 1    
    19    9   10 ar   
    20    9   14 ar   
    21   10   11 ar   
    22   10   91 1    
    23   11   12 ar   
    24   11   58 1    
    25   12   13 ar   
    26   12   92 1    
    27   13   14 ar   
    28   13   15 1    
    29   14   93 1    
    30   15   16 1    
    31   15   94 1    
    32   15   95 1    
    33   16   17 1    
    34   17   18 1    
    35   17   96 1    
    36   17   97 1    
    37   18   19 1    
    38   18   22 1    
    39   18   98 1    
    40   19   20 am   BACKBONE|DICT|INTERRES
    41   19   21 2    
    42   20   99 1    
    43   20  100 1    
    44   22   23 am   BACKBONE|DICT|INTERRES
    45   22  101 1    
    46   23   24 2    
    47   23   25 1    
    48   25   26 1    
    49   25   27 1    
    50   25  102 1    
    51   26  103 1    
    52   26  104 1    
    53   26  105 1    
    54   27   28 am   BACKBONE|DICT|INTERRES
    55   27  106 1    
    56   28   29 2    
    57   28   30 1    
    58   30   31 1    
    59   30   32 1    
    60   30  107 1    
    61   31  108 1    
    62   31  109 1    
    63   31  110 1    
    64   32   33 am   BACKBONE|DICT|INTERRES
    65   32  111 1    
    66   33   34 2    
    67   33   35 1    
    68   35   36 1    
    69   35   37 1    
    70   35  112 1    
    71   36  113 1    
    72   36  114 1    
    73   36  115 1    
    74   37   38 am   BACKBONE|DICT|INTERRES
    75   37  116 1    
    76   38   39 2    
    77   38   40 1    
    78   40   41 1    
    79   40   42 1    
    80   40  117 1    
    81   41  118 1    
    82   41  119 1    
    83   41  120 1    
    84   42   43 am   BACKBONE|DICT|INTERRES
    85   42  121 1    
    86   43   44 2    
    87   43   45 1    
    88   45   46 1    
    89   45   47 1    
    90   45  122 1    
    91   46  123 1    
    92   46  124 1    
    93   46  125 1    
    94   47   48 am   BACKBONE|DICT|INTERRES
    95   47  126 1    
    96   48   49 2    
    97   48   50 1    
    98   50   51 1    
    99   50   52 1    
   100   50  127 1    
   101   51  128 1    
   102   51  129 1    
   103   51  130 1    
   104   52   53 am   BACKBONE|DICT|INTERRES
   105   52  131 1    
   106   53   54 2    
   107   53   55 1    
   108   55   56 1    
   109   55   59 1    
   110   55  132 1    
   111   56   57 1    
   112   56  133 1    
   113   56  134 1    
   114   57   58 1    
   115   58  135 1    
   116   58  136 1    
   117   59   60 am   BACKBONE|DICT|INTERRES
   118   59  137 1    
   119   60   61 2    
   120   60   62 1    
   121   62   63 1    
   122   62   64 1    
   123   62  138 1    
   124   63  139 1    
   125   63  140 1    
   126   63  141 1    
   127   64   65 am   BACKBONE|DICT|INTERRES
   128   64  142 1    
   129   65   66 2    
   130   65   67 1    
   131   67   68 1    
   132   67   69 1    
   133   67  143 1    
   134   68  144 1    
   135   68  145 1    
   136   68  146 1    
   137   69   70 am   BACKBONE|DICT|INTERRES
   138   69  147 1    
   139   70   71 2    
   140   70   72 1    
   141   72   73 1    
   142   72   74 1    
   143   72  148 1    
   144   73  149 1    
   145   73  150 1    
   146   73  151 1    
   147   74   75 am   BACKBONE|DICT|INTERRES
   148   74  152 1    
   149   75   76 2    
   150   75   77 1    
   151   77   78 1    
   152   77   79 1    
   153   77  153 1    
   154   78  154 1    
   155   78  155 1    
   156   78  156 1    
   157   79   80 am   BACKBONE|DICT|INTERRES
   158   79  157 1    
   159   80   81 2    
@<TRIPOS>SUBSTRUCTURE
     1 UNK         1 GROUP             0       ****    0 ROOT    
