@<TRIPOS>MOLECULE
3R207
157   159    1
SMALL
USER_CHARGES


@<TRIPOS>ATOM
      1 CA        -45.5343  -31.3673    3.9296 C.3       0 UNK        -0.1975 
      2 C         -46.1344  -30.4807    5.0111 C.2       0 UNK         0.4852 
      3 O         -45.5283  -30.3131    6.0703 O.2       0 UNK        -0.5216 
      4 N         -47.3162  -29.9065    4.7501 N.am      1 UNK        -0.4461 
      5 CA        -48.0702  -29.0779    5.6943 C.3       1 UNK         0.0864 
      6 C6        -49.1805  -28.2840    4.9638 C.3       14 UNK        -0.0898 
      7 S7        -49.9835  -27.0136    6.0026 S.3       14 UNK        -0.2598 
      8 C8        -51.6337  -27.7622    6.2087 C.3       14 UNK         0.0286 
      9 C9        -52.6341  -26.8339    6.8861 C.ar      14 UNK        -0.0844 
     10 C10       -52.8558  -25.5470    6.3849 C.ar      14 UNK        -0.0881 
     11 C11       -53.8181  -24.7122    6.9597 C.ar      14 UNK        -0.0643 
     12 C12       -54.5786  -25.1803    8.0348 C.ar      14 UNK        -0.0930 
     13 C13       -54.3864  -26.4737    8.5295 C.ar      14 UNK        -0.0827 
     14 C14       -53.4003  -27.2894    7.9648 C.ar      14 UNK        -0.1249 
     15 C15       -55.3070  -27.0140    9.6127 C.3       14 UNK         0.0141 
     16 S16       -54.7152  -26.6395   11.2917 S.3       14 UNK        -0.2313 
     17 C17       -56.2019  -27.0925   12.2589 C.3       14 UNK        -0.0915 
     18 CA        -56.1348  -28.4718   12.9681 C.3       13 UNK         0.0968 
     19 C         -56.0294  -29.6614   11.9661 C.2       13 UNK         0.5732 
     20 N         -54.9559  -30.4451   11.9590 N.am      13 UNK        -0.7310 
     21 O         -56.9509  -29.8810   11.1837 O.2       13 UNK        -0.5035 
     22 N         -55.1373  -28.4773   14.0441 N.am      13 UNK        -0.4233 
     23 C         -55.0972  -29.3689   15.0433 C.2       13 UNK         0.4989 
     24 O         -55.9818  -30.2018   15.2499 O.2       13 UNK        -0.4996 
     25 CA        -53.8549  -29.3289   15.9558 C.3       12 UNK         0.0216 
     26 CB        -53.5435  -30.6972   16.5986 C.3       12 UNK        -0.1964 
     27 N         -52.6627  -28.7862   15.2903 N.am      12 UNK        -0.4276 
     28 C         -52.0466  -29.2625   14.1971 C.2       12 UNK         0.5020 
     29 O         -52.4251  -30.2571   13.5764 O.2       12 UNK        -0.5489 
     30 CA        -50.8361  -28.4720   13.6702 C.3       11 UNK         0.0294 
     31 CB        -51.2295  -27.6772   12.4129 C.3       11 UNK        -0.2019 
     32 N         -50.2547  -27.5507   14.6516 N.am      11 UNK        -0.4493 
     33 C         -49.5543  -27.9114   15.7369 C.2       11 UNK         0.4932 
     34 O         -49.3074  -29.0794   16.0356 O.2       11 UNK        -0.5029 
     35 CA        -49.0593  -26.7801   16.6508 C.3       10 UNK         0.0280 
     36 CB        -47.7696  -26.1561   16.0936 C.3       10 UNK        -0.1976 
     37 N         -50.0737  -25.7350   16.7950 N.am      10 UNK        -0.4242 
     38 C         -50.8710  -25.5764   17.8605 C.2       10 UNK         0.5072 
     39 O         -50.8133  -26.2771   18.8719 O.2       10 UNK        -0.5224 
     40 CA        -51.9143  -24.4422   17.8002 C.3       9 UNK         0.0343 
     41 CB        -51.3616  -23.1713   18.4655 C.3       9 UNK        -0.2003 
     42 N         -52.3602  -24.1177   16.4424 N.am      9 UNK        -0.4272 
     43 C         -53.0619  -24.9443   15.6552 C.2       9 UNK         0.4988 
     44 O         -53.4583  -26.0531   16.0104 O.2       9 UNK        -0.5108 
     45 CA        -53.3330  -24.4886   14.2116 C.3       8 UNK         0.0248 
     46 CB        -54.6948  -23.7841   14.1165 C.3       8 UNK        -0.2001 
     47 N         -52.3002  -23.6393   13.6040 N.am      8 UNK        -0.4140 
     48 C         -50.9857  -23.8940   13.5456 C.2       8 UNK         0.5028 
     49 O         -50.4477  -24.8564   14.0954 O.2       8 UNK        -0.5428 
     50 CA        -50.1400  -22.9211   12.7103 C.3       7 UNK         0.0264 
     51 CB        -48.6313  -23.0814   12.9733 C.3       7 UNK        -0.1988 
     52 N         -50.3973  -23.1166   11.2842 N.am      7 UNK        -0.4454 
     53 C         -51.4656  -22.6677   10.6130 C.2       7 UNK         0.5027 
     54 O         -52.3546  -22.0063   11.1556 O.2       7 UNK        -0.5083 
     55 CA        -51.5628  -22.9897    9.0993 C.3       6 UNK         0.0844 
     56 C56       -52.5300  -22.0107    8.3759 C.3       14 UNK        -0.0967 
     57 S57       -52.6066  -22.2426    6.5656 S.3       14 UNK        -0.2604 
     58 C58       -54.0614  -23.3217    6.3902 C.3       14 UNK         0.0134 
     59 N         -50.2567  -23.0570    8.4306 N.am      6 UNK        -0.4116 
     60 C         -49.3625  -24.0486    8.5193 C.2       5 UNK         0.5034 
     61 O         -49.4952  -25.0223    9.2650 O.2       5 UNK        -0.5045 
     62 CA        -48.0839  -23.9312    7.6665 C.3       5 UNK         0.0224 
     63 CB        -47.9399  -22.6025    6.8881 C.3       5 UNK        -0.1978 
     64 N         -46.8984  -24.2001    8.4854 N.am      5 UNK        -0.4737 
     65 C         -46.4785  -23.5187    9.5598 C.2       4 UNK         0.5027 
     66 O         -46.9624  -22.4488    9.9314 O.2       4 UNK        -0.5211 
     67 CA        -45.3628  -24.1930   10.3839 C.3       4 UNK         0.0297 
     68 CB        -44.7500  -23.2454   11.4320 C.3       4 UNK        -0.1993 
     69 N         -45.8598  -25.3938   11.0643 N.am      4 UNK        -0.4486 
     70 C         -46.1606  -26.5566   10.4711 C.2       3 UNK         0.4961 
     71 O         -45.9753  -26.7732    9.2698 O.2       3 UNK        -0.5105 
     72 CA        -46.7941  -27.6587   11.3337 C.3       3 UNK         0.0299 
     73 CB        -47.3757  -27.1758   12.6759 C.3       3 UNK        -0.1972 
     74 N         -47.8356  -28.2906   10.5302 N.am      3 UNK        -0.4305 
     75 C         -48.0767  -29.6053   10.4674 C.2       2 UNK         0.5006 
     76 O         -47.5826  -30.4379   11.2280 O.2       2 UNK        -0.5106 
     77 CA        -48.9611  -30.0734    9.3065 C.3       2 UNK         0.0296 
     78 CB        -50.4507  -29.7780    9.5576 C.3       2 UNK        -0.2002 
     79 N         -48.5101  -29.4369    8.0697 N.am      2 UNK        -0.4032 
     80 C         -48.6371  -29.9434    6.8401 C.2       1 UNK         0.5000 
     81 O         -49.1875  -31.0183    6.5843 O.2       1 UNK        -0.5238 
     82 H82       -45.4003  -32.3806    4.3074 H         1 UNK         0.0889 
     83 H83       -44.5598  -30.9840    3.6282 H         1 UNK         0.0889 
     84 H84       -46.1677  -31.4166    3.0441 H         1 UNK         0.0889 
     85 H85       -47.7799  -30.1065    3.8754 H         1 UNK         0.3028 
     86 H86       -47.3678  -28.3562    6.1187 H         1 UNK         0.0864 
     87 H87       -48.7502  -27.7616    4.1079 H         1 UNK         0.0720 
     88 H88       -49.9288  -28.9619    4.5484 H         1 UNK         0.0720 
     89 H89       -52.0320  -28.0323    5.2297 H         1 UNK         0.0814 
     90 H90       -51.5290  -28.6923    6.7691 H         1 UNK         0.0814 
     91 H91       -52.2807  -25.1934    5.5399 H         1 UNK         0.1469 
     92 H92       -55.3426  -24.5500    8.4692 H         1 UNK         0.1381 
     93 H93       -53.2594  -28.2937    8.3409 H         1 UNK         0.1206 
     94 H94       -56.3041  -26.5930    9.4752 H         1 UNK         0.0813 
     95 H95       -55.4170  -28.0934    9.5019 H         1 UNK         0.0813 
     96 H96       -56.3564  -26.3113   13.0044 H         1 UNK         0.0638 
     97 H97       -57.0842  -27.0480   11.6186 H         1 UNK         0.0638 
     98 H98       -57.1024  -28.6054   13.4556 H         1 UNK         0.0568 
     99 H99       -54.1796  -30.2871   12.5930 H         1 UNK         0.3450 
    100 H100      -54.9157  -31.2105   11.3062 H         1 UNK         0.3450 
    101 H101      -54.3726  -27.8273   13.9464 H         1 UNK         0.2987 
    102 H102      -54.0966  -28.6336   16.7608 H         1 UNK         0.0766 
    103 H103      -52.6656  -30.6416   17.2423 H         1 UNK         0.0798 
    104 H104      -54.3749  -31.0398   17.2158 H         1 UNK         0.0798 
    105 H105      -53.3594  -31.4646   15.8460 H         1 UNK         0.0798 
    106 H106      -52.3282  -27.9093   15.6718 H         1 UNK         0.3198 
    107 H107      -50.0744  -29.2030   13.3905 H         1 UNK         0.0843 
    108 H108      -51.7670  -28.3018   11.6991 H         1 UNK         0.0831 
    109 H109      -50.3546  -27.2777   11.9013 H         1 UNK         0.0831 
    110 H110      -51.8825  -26.8399   12.6516 H         1 UNK         0.0831 
    111 H111      -50.3624  -26.5549   14.4534 H         1 UNK         0.3133 
    112 H112      -48.8250  -27.2175   17.6235 H         1 UNK         0.0566 
    113 H113      -47.3541  -25.4268   16.7891 H         1 UNK         0.0814 
    114 H114      -47.9430  -25.6471   15.1450 H         1 UNK         0.0814 
    115 H115      -47.0057  -26.9168   15.9269 H         1 UNK         0.0814 
    116 H116      -50.2267  -25.1486   15.9793 H         1 UNK         0.3091 
    117 H117      -52.7874  -24.7725   18.3672 H         1 UNK         0.0702 
    118 H118      -52.1161  -22.3856   18.5098 H         1 UNK         0.0785 
    119 H119      -50.4962  -22.7785   17.9301 H         1 UNK         0.0785 
    120 H120      -51.0466  -23.3732   19.4904 H         1 UNK         0.0785 
    121 H121      -52.0745  -23.2255   16.0663 H         1 UNK         0.2998 
    122 H122      -53.3871  -25.3938   13.6082 H         1 UNK         0.0697 
    123 H123      -54.6936  -22.8294   14.6438 H         1 UNK         0.0825 
    124 H124      -55.4849  -24.3975   14.5523 H         1 UNK         0.0825 
    125 H125      -54.9710  -23.5963   13.0785 H         1 UNK         0.0825 
    126 H126      -52.6323  -22.8533   13.0554 H         1 UNK         0.3029 
    127 H127      -50.4230  -21.9046   12.9924 H         1 UNK         0.0897 
    128 H128      -48.0583  -22.3141   12.4526 H         1 UNK         0.0792 
    129 H129      -48.4049  -22.9883   14.0363 H         1 UNK         0.0792 
    130 H130      -48.2638  -24.0526   12.6434 H         1 UNK         0.0792 
    131 H131      -49.7571  -23.7220   10.7817 H         1 UNK         0.3086 
    132 H132      -52.0022  -23.9873    9.0401 H         1 UNK         0.0583 
    133 H133      -53.5379  -22.0984    8.7867 H         1 UNK         0.1020 
    134 H134      -52.2255  -20.9779    8.5572 H         1 UNK         0.1020 
    135 H135      -54.9233  -22.8466    6.8614 H         1 UNK         0.0694 
    136 H136      -54.3042  -23.4124    5.3306 H         1 UNK         0.0694 
    137 H137      -50.0486  -22.2865    7.8133 H         1 UNK         0.2989 
    138 H138      -48.1402  -24.7378    6.9341 H         1 UNK         0.1055 
    139 H139      -47.0154  -22.5890    6.3108 H         1 UNK         0.0806 
    140 H140      -47.9262  -21.7337    7.5472 H         1 UNK         0.0806 
    141 H141      -48.7565  -22.4701    6.1768 H         1 UNK         0.0806 
    142 H142      -46.4838  -25.1199    8.3603 H         1 UNK         0.3061 
    143 H143      -44.5694  -24.4836    9.6917 H         1 UNK         0.0734 
    144 H144      -44.3623  -22.3418   10.9595 H         1 UNK         0.0832 
    145 H145      -45.4835  -22.9334   12.1766 H         1 UNK         0.0832 
    146 H146      -43.9186  -23.7168   11.9562 H         1 UNK         0.0832 
    147 H147      -46.0637  -25.2966   12.0478 H         1 UNK         0.3156 
    148 H148      -46.0001  -28.3796   11.5395 H         1 UNK         0.0589 
    149 H149      -47.8027  -28.0122   13.2281 H         1 UNK         0.0808 
    150 H150      -46.6045  -26.7435   13.3136 H         1 UNK         0.0808 
    151 H151      -48.1626  -26.4337   12.5387 H         1 UNK         0.0808 
    152 H152      -48.3006  -27.6691    9.8821 H         1 UNK         0.3098 
    153 H153      -48.8311  -31.1543    9.2166 H         1 UNK         0.0720 
    154 H154      -51.0765  -30.2307    8.7886 H         1 UNK         0.0791 
    155 H155      -50.7735  -30.1865   10.5163 H         1 UNK         0.0791 
    156 H156      -50.6554  -28.7068    9.5631 H         1 UNK         0.0791 
    157 H157      -47.9806  -28.5831    8.1787 H         1 UNK         0.3028 
@<TRIPOS>BOND
     1    1    2 1    
     2    1   82 1    
     3    1   83 1    
     4    1   84 1    
     5    2    3 2    
     6    2    4 am   BACKBONE|DICT|INTERRES
     7    4    5 1    
     8    4   85 1    
     9    5    6 1    
    10    5   80 1    
    11    5   86 1    
    12    6    7 1    
    13    6   87 1    
    14    6   88 1    
    15    7    8 1    
    16    8    9 1    
    17    8   89 1    
    18    8   90 1    
    19    9   10 ar   
    20    9   14 ar   
    21   10   11 ar   
    22   10   91 1    
    23   11   12 ar   
    24   11   58 1    
    25   12   13 ar   
    26   12   92 1    
    27   13   14 ar   
    28   13   15 1    
    29   14   93 1    
    30   15   16 1    
    31   15   94 1    
    32   15   95 1    
    33   16   17 1    
    34   17   18 1    
    35   17   96 1    
    36   17   97 1    
    37   18   19 1    
    38   18   22 1    
    39   18   98 1    
    40   19   20 am   BACKBONE|DICT|INTERRES
    41   19   21 2    
    42   20   99 1    
    43   20  100 1    
    44   22   23 am   BACKBONE|DICT|INTERRES
    45   22  101 1    
    46   23   24 2    
    47   23   25 1    
    48   25   26 1    
    49   25   27 1    
    50   25  102 1    
    51   26  103 1    
    52   26  104 1    
    53   26  105 1    
    54   27   28 am   BACKBONE|DICT|INTERRES
    55   27  106 1    
    56   28   29 2    
    57   28   30 1    
    58   30   31 1    
    59   30   32 1    
    60   30  107 1    
    61   31  108 1    
    62   31  109 1    
    63   31  110 1    
    64   32   33 am   BACKBONE|DICT|INTERRES
    65   32  111 1    
    66   33   34 2    
    67   33   35 1    
    68   35   36 1    
    69   35   37 1    
    70   35  112 1    
    71   36  113 1    
    72   36  114 1    
    73   36  115 1    
    74   37   38 am   BACKBONE|DICT|INTERRES
    75   37  116 1    
    76   38   39 2    
    77   38   40 1    
    78   40   41 1    
    79   40   42 1    
    80   40  117 1    
    81   41  118 1    
    82   41  119 1    
    83   41  120 1    
    84   42   43 am   BACKBONE|DICT|INTERRES
    85   42  121 1    
    86   43   44 2    
    87   43   45 1    
    88   45   46 1    
    89   45   47 1    
    90   45  122 1    
    91   46  123 1    
    92   46  124 1    
    93   46  125 1    
    94   47   48 am   BACKBONE|DICT|INTERRES
    95   47  126 1    
    96   48   49 2    
    97   48   50 1    
    98   50   51 1    
    99   50   52 1    
   100   50  127 1    
   101   51  128 1    
   102   51  129 1    
   103   51  130 1    
   104   52   53 am   BACKBONE|DICT|INTERRES
   105   52  131 1    
   106   53   54 2    
   107   53   55 1    
   108   55   56 1    
   109   55   59 1    
   110   55  132 1    
   111   56   57 1    
   112   56  133 1    
   113   56  134 1    
   114   57   58 1    
   115   58  135 1    
   116   58  136 1    
   117   59   60 am   BACKBONE|DICT|INTERRES
   118   59  137 1    
   119   60   61 2    
   120   60   62 1    
   121   62   63 1    
   122   62   64 1    
   123   62  138 1    
   124   63  139 1    
   125   63  140 1    
   126   63  141 1    
   127   64   65 am   BACKBONE|DICT|INTERRES
   128   64  142 1    
   129   65   66 2    
   130   65   67 1    
   131   67   68 1    
   132   67   69 1    
   133   67  143 1    
   134   68  144 1    
   135   68  145 1    
   136   68  146 1    
   137   69   70 am   BACKBONE|DICT|INTERRES
   138   69  147 1    
   139   70   71 2    
   140   70   72 1    
   141   72   73 1    
   142   72   74 1    
   143   72  148 1    
   144   73  149 1    
   145   73  150 1    
   146   73  151 1    
   147   74   75 am   BACKBONE|DICT|INTERRES
   148   74  152 1    
   149   75   76 2    
   150   75   77 1    
   151   77   78 1    
   152   77   79 1    
   153   77  153 1    
   154   78  154 1    
   155   78  155 1    
   156   78  156 1    
   157   79   80 am   BACKBONE|DICT|INTERRES
   158   79  157 1    
   159   80   81 2    
@<TRIPOS>SUBSTRUCTURE
     1 UNK         1 GROUP             0       ****    0 ROOT    
