@<TRIPOS>MOLECULE
3R207
157   159    1
SMALL
USER_CHARGES


@<TRIPOS>ATOM
      1 CA        -46.0302  -24.4176   10.8270 C.3       0 UNK        -0.1975 
      2 C         -46.8600  -25.5200   10.1917 C.2       0 UNK         0.4852 
      3 O         -47.0621  -25.5036    8.9773 O.2       0 UNK        -0.5216 
      4 N         -47.3320  -26.4780   11.0021 N.am      1 UNK        -0.4461 
      5 CA        -48.2012  -27.6113   10.6425 C.3       1 UNK         0.0864 
      6 C6        -49.6846  -27.1861   10.5016 C.3       14 UNK        -0.0898 
      7 S7        -50.3906  -26.6116   12.0809 S.3       14 UNK        -0.2598 
      8 C8        -52.0167  -27.4339   12.0684 C.3       14 UNK         0.0286 
      9 C9        -52.8697  -26.8906   10.9350 C.ar      14 UNK        -0.0844 
     10 C10       -53.4043  -25.6053   11.0340 C.ar      14 UNK        -0.0881 
     11 C11       -54.0932  -25.0398    9.9617 C.ar      14 UNK        -0.0643 
     12 C12       -54.3005  -25.7942    8.8026 C.ar      14 UNK        -0.0930 
     13 C13       -53.8003  -27.0966    8.7042 C.ar      14 UNK        -0.0827 
     14 C14       -53.0781  -27.6379    9.7721 C.ar      14 UNK        -0.1249 
     15 C15       -54.0016  -27.8958    7.4246 C.3       14 UNK         0.0141 
     16 S16       -55.6054  -28.7593    7.3966 S.3       14 UNK        -0.2313 
     17 C17       -55.3087  -30.1570    8.5341 C.3       14 UNK        -0.0915 
     18 CA        -56.2102  -30.1241    9.7973 C.3       13 UNK         0.0968 
     19 C         -55.9843  -31.3965   10.6684 C.2       13 UNK         0.5732 
     20 N         -55.5039  -31.2986   11.9033 N.am      13 UNK        -0.7310 
     21 O         -56.2589  -32.5035   10.2108 O.2       13 UNK        -0.5035 
     22 N         -56.0823  -28.8539   10.5240 N.am      13 UNK        -0.4233 
     23 C         -56.9454  -28.4057   11.4404 C.2       13 UNK         0.4989 
     24 O         -58.0061  -28.9615   11.7344 O.2       13 UNK        -0.4996 
     25 CA        -56.5380  -27.1153   12.1662 C.3       12 UNK         0.0216 
     26 CB        -57.5171  -25.9698   11.8623 C.3       12 UNK        -0.1964 
     27 N         -56.4173  -27.2985   13.6138 N.am      12 UNK        -0.4276 
     28 C         -55.6194  -28.1883   14.2214 C.2       12 UNK         0.5020 
     29 O         -54.8946  -28.9912   13.6254 O.2       12 UNK        -0.5489 
     30 CA        -55.6833  -28.1936   15.7596 C.3       11 UNK         0.0294 
     31 CB        -56.9421  -28.9376   16.2383 C.3       11 UNK        -0.2019 
     32 N         -54.5115  -28.8085   16.3888 N.am      11 UNK        -0.4493 
     33 C         -53.2566  -28.3399   16.3466 C.2       11 UNK         0.4932 
     34 O         -52.9413  -27.2999   15.7659 O.2       11 UNK        -0.5029 
     35 CA        -52.1948  -29.1480   17.1283 C.3       10 UNK         0.0280 
     36 CB        -52.6073  -30.6107   17.4023 C.3       10 UNK        -0.1976 
     37 N         -50.8899  -29.1539   16.4636 N.am      10 UNK        -0.4242 
     38 C         -49.9611  -28.1917   16.5410 C.2       10 UNK         0.5072 
     39 O         -50.1031  -27.1515   17.1899 O.2       10 UNK        -0.5224 
     40 CA        -48.6341  -28.4779   15.8056 C.3       9 UNK         0.0343 
     41 CB        -48.8376  -29.1525   14.4353 C.3       9 UNK        -0.2003 
     42 N         -47.8380  -27.2617   15.6277 N.am      9 UNK        -0.4272 
     43 C         -46.9695  -26.7725   16.5200 C.2       9 UNK         0.4988 
     44 O         -46.7061  -27.3258   17.5893 O.2       9 UNK        -0.5108 
     45 CA        -46.2522  -25.4521   16.1775 C.3       8 UNK         0.0248 
     46 CB        -44.9861  -25.7185   15.3377 C.3       8 UNK        -0.2001 
     47 N         -47.0895  -24.4060   15.5678 N.am      8 UNK        -0.4140 
     48 C         -47.6598  -24.3910   14.3561 C.2       8 UNK         0.5028 
     49 O         -47.6181  -25.3350   13.5636 O.2       8 UNK        -0.5428 
     50 CA        -48.3662  -23.0894   13.9570 C.3       7 UNK         0.0264 
     51 CB        -47.3424  -21.9694   13.6794 C.3       7 UNK        -0.1988 
     52 N         -49.2041  -23.3156   12.7778 N.am      7 UNK        -0.4454 
     53 C         -50.2312  -22.5347   12.4151 C.2       7 UNK         0.5027 
     54 O         -50.5471  -21.5124   13.0287 O.2       7 UNK        -0.5083 
     55 CA        -51.0438  -22.9668   11.1731 C.3       6 UNK         0.0844 
     56 C56       -52.3148  -22.0879   10.9580 C.3       14 UNK        -0.0967 
     57 S57       -53.2848  -22.4584    9.4494 S.3       14 UNK        -0.2604 
     58 C58       -54.5743  -23.6013   10.0420 C.3       14 UNK         0.0134 
     59 N         -50.2087  -23.1095    9.9775 N.am      6 UNK        -0.4116 
     60 C         -49.5676  -22.1365    9.3174 C.2       5 UNK         0.5034 
     61 O         -49.5011  -20.9692    9.7046 O.2       5 UNK        -0.5045 
     62 CA        -48.9041  -22.5181    7.9799 C.3       5 UNK         0.0224 
     63 CB        -47.4114  -22.1461    7.9592 C.3       5 UNK        -0.1978 
     64 N         -49.0441  -23.9399    7.6435 N.am      5 UNK        -0.4737 
     65 C         -50.0409  -24.4670    6.9169 C.2       4 UNK         0.5027 
     66 O         -50.9894  -23.8077    6.4909 O.2       4 UNK        -0.5211 
     67 CA        -49.9505  -25.9793    6.6105 C.3       4 UNK         0.0297 
     68 CB        -50.8243  -26.4062    5.4125 C.3       4 UNK        -0.1993 
     69 N         -48.5656  -26.4459    6.4498 N.am      4 UNK        -0.4486 
     70 C         -47.6627  -26.0154    5.5510 C.2       3 UNK         0.4961 
     71 O         -47.9332  -25.2524    4.6227 O.2       3 UNK        -0.5105 
     72 CA        -46.2007  -26.4714    5.7238 C.3       3 UNK         0.0299 
     73 CB        -45.2689  -25.2519    5.8471 C.3       3 UNK        -0.1972 
     74 N         -46.0173  -27.3058    6.9125 N.am      3 UNK        -0.4305 
     75 C         -45.7745  -28.6236    6.9060 C.2       2 UNK         0.5006 
     76 O         -45.6273  -29.2877    5.8791 O.2       2 UNK        -0.5106 
     77 CA        -45.6818  -29.3380    8.2709 C.3       2 UNK         0.0296 
     78 CB        -44.2101  -29.5480    8.6634 C.3       2 UNK        -0.2002 
     79 N         -46.3774  -28.6597    9.3712 N.am      2 UNK        -0.4032 
     80 C         -47.6931  -28.4021    9.4135 C.2       1 UNK         0.5000 
     81 O         -48.4693  -28.7099    8.5063 O.2       1 UNK        -0.5238 
     82 H82       -45.1716  -24.1825   10.1988 H         1 UNK         0.0889 
     83 H83       -45.6588  -24.7049   11.8104 H         1 UNK         0.0889 
     84 H84       -46.6340  -23.5184   10.9345 H         1 UNK         0.0889 
     85 H85       -47.2106  -26.3405   12.0035 H         1 UNK         0.3028 
     86 H86       -48.1408  -28.3151   11.4736 H         1 UNK         0.0864 
     87 H87       -49.7934  -26.3920    9.7632 H         1 UNK         0.0720 
     88 H88       -50.2861  -28.0237   10.1464 H         1 UNK         0.0720 
     89 H89       -52.5177  -27.2576   13.0215 H         1 UNK         0.0814 
     90 H90       -51.8882  -28.5141   11.9847 H         1 UNK         0.0814 
     91 H91       -53.2513  -25.0323   11.9377 H         1 UNK         0.1469 
     92 H92       -54.8334  -25.3593    7.9680 H         1 UNK         0.1381 
     93 H93       -52.6565  -28.6302    9.6895 H         1 UNK         0.1206 
     94 H94       -53.9570  -27.2232    6.5669 H         1 UNK         0.0813 
     95 H95       -53.1909  -28.6125    7.2841 H         1 UNK         0.0813 
     96 H96       -54.2561  -30.1869    8.8180 H         1 UNK         0.0638 
     97 H97       -55.4891  -31.0721    7.9671 H         1 UNK         0.0638 
     98 H98       -57.2447  -30.1863    9.4544 H         1 UNK         0.0568 
     99 H99       -55.3713  -32.1394   12.4410 H         1 UNK         0.3450 
    100 H100      -55.2864  -30.3987   12.3221 H         1 UNK         0.3450 
    101 H101      -55.2388  -28.3278   10.3402 H         1 UNK         0.2987 
    102 H102      -55.5569  -26.8183   11.8075 H         1 UNK         0.0766 
    103 H103      -57.5986  -25.8050   10.7868 H         1 UNK         0.0798 
    104 H104      -57.1825  -25.0319   12.3060 H         1 UNK         0.0798 
    105 H105      -58.5189  -26.1838   12.2370 H         1 UNK         0.0798 
    106 H106      -57.0066  -26.7122   14.1868 H         1 UNK         0.3198 
    107 H107      -55.7344  -27.1574   16.1011 H         1 UNK         0.0843 
    108 H108      -56.9338  -29.9832   15.9265 H         1 UNK         0.0831 
    109 H109      -57.8481  -28.4866   15.8312 H         1 UNK         0.0831 
    110 H110      -57.0325  -28.9107   17.3244 H         1 UNK         0.0831 
    111 H111      -54.6699  -29.6855   16.8619 H         1 UNK         0.3133 
    112 H112      -52.0824  -28.6551   18.0962 H         1 UNK         0.0566 
    113 H113      -51.8133  -31.1529   17.9168 H         1 UNK         0.0814 
    114 H114      -52.8308  -31.1499   16.4803 H         1 UNK         0.0814 
    115 H115      -53.4852  -30.6679   18.0470 H         1 UNK         0.0814 
    116 H116      -50.6943  -29.9530   15.8789 H         1 UNK         0.3091 
    117 H117      -48.0701  -29.1741   16.4299 H         1 UNK         0.0702 
    118 H118      -47.9057  -29.1956   13.8711 H         1 UNK         0.0785 
    119 H119      -49.5713  -28.6227   13.8318 H         1 UNK         0.0785 
    120 H120      -49.1859  -30.1798   14.5446 H         1 UNK         0.0785 
    121 H121      -47.9931  -26.7191   14.7819 H         1 UNK         0.2998 
    122 H122      -45.9216  -25.0313   17.1286 H         1 UNK         0.0697 
    123 H123      -45.2221  -26.1613   14.3696 H         1 UNK         0.0825 
    124 H124      -44.3172  -26.4092   15.8527 H         1 UNK         0.0825 
    125 H125      -44.4277  -24.7997   15.1589 H         1 UNK         0.0825 
    126 H126      -47.2188  -23.5881   16.1476 H         1 UNK         0.3029 
    127 H127      -49.0090  -22.7946   14.7896 H         1 UNK         0.0897 
    128 H128      -46.7377  -21.7582   14.5620 H         1 UNK         0.0792 
    129 H129      -47.8331  -21.0365   13.4016 H         1 UNK         0.0792 
    130 H130      -46.6572  -22.2357   12.8755 H         1 UNK         0.0792 
    131 H131      -49.0289  -24.1923   12.3003 H         1 UNK         0.3086 
    132 H132      -51.3785  -23.9740   11.3956 H         1 UNK         0.0583 
    133 H133      -52.9697  -22.1546   11.8284 H         1 UNK         0.1020 
    134 H134      -52.0286  -21.0365   10.8904 H         1 UNK         0.1020 
    135 H135      -54.8754  -23.3480   11.0595 H         1 UNK         0.0694 
    136 H136      -55.4640  -23.4768    9.4229 H         1 UNK         0.0694 
    137 H137      -50.2024  -24.0262    9.5573 H         1 UNK         0.2989 
    138 H138      -49.4013  -21.9211    7.2119 H         1 UNK         0.1055 
    139 H139      -46.8416  -22.7053    8.6987 H         1 UNK         0.0806 
    140 H140      -47.2660  -21.0855    8.1686 H         1 UNK         0.0806 
    141 H141      -46.9709  -22.3439    6.9818 H         1 UNK         0.0806 
    142 H142      -48.3037  -24.5565    7.9756 H         1 UNK         0.3061 
    143 H143      -50.3435  -26.4903    7.4899 H         1 UNK         0.0734 
    144 H144      -50.5303  -25.8983    4.4937 H         1 UNK         0.0832 
    145 H145      -50.7620  -27.4804    5.2393 H         1 UNK         0.0832 
    146 H146      -51.8732  -26.1679    5.5915 H         1 UNK         0.0832 
    147 H147      -48.2548  -27.1069    7.1534 H         1 UNK         0.3156 
    148 H148      -45.9265  -27.0210    4.8214 H         1 UNK         0.0589 
    149 H149      -44.2274  -25.5577    5.9468 H         1 UNK         0.0808 
    150 H150      -45.3341  -24.6143    4.9645 H         1 UNK         0.0808 
    151 H151      -45.5227  -24.6381    6.7127 H         1 UNK         0.0808 
    152 H152      -46.1603  -26.8323    7.7999 H         1 UNK         0.3098 
    153 H153      -46.1459  -30.3190    8.1493 H         1 UNK         0.0720 
    154 H154      -43.6683  -30.0796    7.8796 H         1 UNK         0.0791 
    155 H155      -44.1214  -30.1417    9.5736 H         1 UNK         0.0791 
    156 H156      -43.6971  -28.5995    8.8276 H         1 UNK         0.0791 
    157 H157      -45.8072  -28.3454   10.1435 H         1 UNK         0.3028 
@<TRIPOS>BOND
     1    1    2 1    
     2    1   82 1    
     3    1   83 1    
     4    1   84 1    
     5    2    3 2    
     6    2    4 am   BACKBONE|DICT|INTERRES
     7    4    5 1    
     8    4   85 1    
     9    5    6 1    
    10    5   80 1    
    11    5   86 1    
    12    6    7 1    
    13    6   87 1    
    14    6   88 1    
    15    7    8 1    
    16    8    9 1    
    17    8   89 1    
    18    8   90 1    
    19    9   10 ar   
    20    9   14 ar   
    21   10   11 ar   
    22   10   91 1    
    23   11   12 ar   
    24   11   58 1    
    25   12   13 ar   
    26   12   92 1    
    27   13   14 ar   
    28   13   15 1    
    29   14   93 1    
    30   15   16 1    
    31   15   94 1    
    32   15   95 1    
    33   16   17 1    
    34   17   18 1    
    35   17   96 1    
    36   17   97 1    
    37   18   19 1    
    38   18   22 1    
    39   18   98 1    
    40   19   20 am   BACKBONE|DICT|INTERRES
    41   19   21 2    
    42   20   99 1    
    43   20  100 1    
    44   22   23 am   BACKBONE|DICT|INTERRES
    45   22  101 1    
    46   23   24 2    
    47   23   25 1    
    48   25   26 1    
    49   25   27 1    
    50   25  102 1    
    51   26  103 1    
    52   26  104 1    
    53   26  105 1    
    54   27   28 am   BACKBONE|DICT|INTERRES
    55   27  106 1    
    56   28   29 2    
    57   28   30 1    
    58   30   31 1    
    59   30   32 1    
    60   30  107 1    
    61   31  108 1    
    62   31  109 1    
    63   31  110 1    
    64   32   33 am   BACKBONE|DICT|INTERRES
    65   32  111 1    
    66   33   34 2    
    67   33   35 1    
    68   35   36 1    
    69   35   37 1    
    70   35  112 1    
    71   36  113 1    
    72   36  114 1    
    73   36  115 1    
    74   37   38 am   BACKBONE|DICT|INTERRES
    75   37  116 1    
    76   38   39 2    
    77   38   40 1    
    78   40   41 1    
    79   40   42 1    
    80   40  117 1    
    81   41  118 1    
    82   41  119 1    
    83   41  120 1    
    84   42   43 am   BACKBONE|DICT|INTERRES
    85   42  121 1    
    86   43   44 2    
    87   43   45 1    
    88   45   46 1    
    89   45   47 1    
    90   45  122 1    
    91   46  123 1    
    92   46  124 1    
    93   46  125 1    
    94   47   48 am   BACKBONE|DICT|INTERRES
    95   47  126 1    
    96   48   49 2    
    97   48   50 1    
    98   50   51 1    
    99   50   52 1    
   100   50  127 1    
   101   51  128 1    
   102   51  129 1    
   103   51  130 1    
   104   52   53 am   BACKBONE|DICT|INTERRES
   105   52  131 1    
   106   53   54 2    
   107   53   55 1    
   108   55   56 1    
   109   55   59 1    
   110   55  132 1    
   111   56   57 1    
   112   56  133 1    
   113   56  134 1    
   114   57   58 1    
   115   58  135 1    
   116   58  136 1    
   117   59   60 am   BACKBONE|DICT|INTERRES
   118   59  137 1    
   119   60   61 2    
   120   60   62 1    
   121   62   63 1    
   122   62   64 1    
   123   62  138 1    
   124   63  139 1    
   125   63  140 1    
   126   63  141 1    
   127   64   65 am   BACKBONE|DICT|INTERRES
   128   64  142 1    
   129   65   66 2    
   130   65   67 1    
   131   67   68 1    
   132   67   69 1    
   133   67  143 1    
   134   68  144 1    
   135   68  145 1    
   136   68  146 1    
   137   69   70 am   BACKBONE|DICT|INTERRES
   138   69  147 1    
   139   70   71 2    
   140   70   72 1    
   141   72   73 1    
   142   72   74 1    
   143   72  148 1    
   144   73  149 1    
   145   73  150 1    
   146   73  151 1    
   147   74   75 am   BACKBONE|DICT|INTERRES
   148   74  152 1    
   149   75   76 2    
   150   75   77 1    
   151   77   78 1    
   152   77   79 1    
   153   77  153 1    
   154   78  154 1    
   155   78  155 1    
   156   78  156 1    
   157   79   80 am   BACKBONE|DICT|INTERRES
   158   79  157 1    
   159   80   81 2    
@<TRIPOS>SUBSTRUCTURE
     1 UNK         1 GROUP             0       ****    0 ROOT    
