@<TRIPOS>MOLECULE
3R207
157   159    1
SMALL
USER_CHARGES


@<TRIPOS>ATOM
      1 CA        -48.6426  -31.4297    1.5413 C.3       0 UNK        -0.1975 
      2 C         -48.3889  -30.0382    2.1025 C.2       0 UNK         0.4852 
      3 O         -47.2509  -29.5688    2.0761 O.2       0 UNK        -0.5216 
      4 N         -49.4439  -29.3776    2.5962 N.am      1 UNK        -0.4461 
      5 CA        -49.4124  -28.0592    3.2355 C.3       1 UNK         0.0864 
      6 C6        -50.8097  -27.3785    3.2586 C.3       14 UNK        -0.0898 
      7 S7        -52.1899  -28.4845    3.7291 S.3       14 UNK        -0.2598 
      8 C8        -53.3970  -27.3043    4.4043 C.3       14 UNK         0.0286 
      9 C9        -53.2695  -27.1755    5.9142 C.ar      14 UNK        -0.0844 
     10 C10       -52.5270  -26.1367    6.4838 C.ar      14 UNK        -0.0881 
     11 C11       -52.4430  -26.0056    7.8742 C.ar      14 UNK        -0.0643 
     12 C12       -53.1018  -26.9286    8.6938 C.ar      14 UNK        -0.0930 
     13 C13       -53.8575  -27.9619    8.1344 C.ar      14 UNK        -0.0827 
     14 C14       -53.9296  -28.0856    6.7446 C.ar      14 UNK        -0.1249 
     15 C15       -54.6388  -28.9129    9.0262 C.3       14 UNK         0.0141 
     16 S16       -53.6042  -30.2643    9.6677 S.3       14 UNK        -0.2313 
     17 C17       -54.9071  -31.3596   10.3259 C.3       14 UNK        -0.0915 
     18 CA        -55.4201  -30.9318   11.7299 C.3       13 UNK         0.0968 
     19 C         -56.7398  -31.6623   12.1165 C.2       13 UNK         0.5732 
     20 N         -56.8844  -32.1882   13.3280 N.am      13 UNK        -0.7310 
     21 O         -57.6652  -31.7370   11.3114 O.2       13 UNK        -0.5035 
     22 N         -54.3724  -31.0670   12.7550 N.am      13 UNK        -0.4233 
     23 C         -53.7820  -30.0566   13.3996 C.2       13 UNK         0.4989 
     24 O         -54.0081  -28.8616   13.1861 O.2       13 UNK        -0.4996 
     25 CA        -52.7630  -30.4574   14.4743 C.3       12 UNK         0.0216 
     26 CB        -51.5408  -31.1800   13.8741 C.3       12 UNK        -0.1964 
     27 N         -52.3344  -29.2555   15.1809 N.am      12 UNK        -0.4276 
     28 C         -51.8995  -29.1962   16.4429 C.2       12 UNK         0.5020 
     29 O         -51.7736  -30.1851   17.1671 O.2       12 UNK        -0.5489 
     30 CA        -51.5247  -27.8095   16.9986 C.3       11 UNK         0.0294 
     31 CB        -50.0023  -27.6996   17.1628 C.3       11 UNK        -0.2019 
     32 N         -52.0009  -26.6871   16.1816 N.am      11 UNK        -0.4493 
     33 C         -53.2695  -26.2590   16.1440 C.2       11 UNK         0.4932 
     34 O         -54.1864  -26.7749   16.7854 O.2       11 UNK        -0.5029 
     35 CA        -53.5364  -25.0486   15.2323 C.3       10 UNK         0.0280 
     36 CB        -55.0014  -24.5630   15.2665 C.3       10 UNK        -0.1976 
     37 N         -52.5987  -23.9490   15.4932 N.am      10 UNK        -0.4242 
     38 C         -52.4823  -23.2159   16.6102 C.2       10 UNK         0.5072 
     39 O         -53.1820  -23.3632   17.6144 O.2       10 UNK        -0.5224 
     40 CA        -51.4095  -22.1116   16.5709 C.3       9 UNK         0.0343 
     41 CB        -51.3191  -21.2959   17.8795 C.3       9 UNK        -0.2003 
     42 N         -50.0896  -22.6047   16.1585 N.am      9 UNK        -0.4272 
     43 C         -49.2830  -23.4494   16.8217 C.2       9 UNK         0.4988 
     44 O         -49.5851  -23.9728   17.8945 O.2       9 UNK        -0.5108 
     45 CA        -47.8949  -23.7571   16.2130 C.3       8 UNK         0.0248 
     46 CB        -47.5479  -25.2518   16.3043 C.3       8 UNK        -0.2001 
     47 N         -47.7494  -23.3339   14.8188 N.am      8 UNK        -0.4140 
     48 C         -47.4469  -22.0963   14.4051 C.2       8 UNK         0.5028 
     49 O         -47.1804  -21.1643   15.1640 O.2       8 UNK        -0.5428 
     50 CA        -47.5155  -21.8414   12.8877 C.3       7 UNK         0.0264 
     51 CB        -46.1694  -22.1674   12.2231 C.3       7 UNK        -0.1988 
     52 N         -48.5889  -22.5918   12.2232 N.am      7 UNK        -0.4454 
     53 C         -49.8954  -22.4672   12.5088 C.2       7 UNK         0.5027 
     54 O         -50.3397  -21.6772   13.3421 O.2       7 UNK        -0.5083 
     55 CA        -50.8687  -23.4191   11.7925 C.3       6 UNK         0.0844 
     56 C56       -51.2500  -22.8723   10.3956 C.3       14 UNK        -0.0967 
     57 S57       -52.5885  -23.8404    9.6226 S.3       14 UNK        -0.2604 
     58 C58       -51.6216  -24.8825    8.4894 C.3       14 UNK         0.0134 
     59 N         -50.3292  -24.7801   11.7485 N.am      6 UNK        -0.4116 
     60 C         -50.2118  -25.5972   12.8039 C.2       5 UNK         0.5034 
     61 O         -50.5681  -25.3134   13.9475 O.2       5 UNK        -0.5045 
     62 CA        -49.5479  -26.9544   12.5404 C.3       5 UNK         0.0224 
     63 CB        -50.5590  -27.9343   11.9259 C.3       5 UNK        -0.1978 
     64 N         -48.3793  -26.8326   11.6661 N.am      5 UNK        -0.4737 
     65 C         -47.2437  -26.2095   12.0172 C.2       4 UNK         0.5027 
     66 O         -47.0632  -25.6991   13.1214 O.2       4 UNK        -0.5211 
     67 CA        -46.1352  -26.0967   10.9557 C.3       4 UNK         0.0297 
     68 CB        -45.1855  -27.3010   11.0471 C.3       4 UNK        -0.1993 
     69 N         -46.6371  -25.9762    9.5857 N.am      4 UNK        -0.4486 
     70 C         -47.4542  -25.0124    9.1396 C.2       3 UNK         0.4961 
     71 O         -47.8632  -24.0782    9.8316 O.2       3 UNK        -0.5105 
     72 CA        -47.9412  -25.1430    7.6868 C.3       3 UNK         0.0299 
     73 CB        -46.9726  -24.4257    6.7343 C.3       3 UNK        -0.1972 
     74 N         -48.1543  -26.5186    7.2143 N.am      3 UNK        -0.4305 
     75 C         -48.8649  -27.4888    7.8093 C.2       2 UNK         0.5006 
     76 O         -49.3399  -27.3804    8.9394 O.2       2 UNK        -0.5106 
     77 CA        -49.0646  -28.8030    7.0205 C.3       2 UNK         0.0296 
     78 CB        -50.0731  -29.7431    7.7094 C.3       2 UNK        -0.2002 
     79 N         -49.4932  -28.6057    5.6300 N.am      2 UNK        -0.4032 
     80 C         -48.7459  -28.1326    4.6236 C.2       1 UNK         0.5000 
     81 O         -47.5793  -27.7581    4.7627 O.2       1 UNK        -0.5238 
     82 H82       -49.6913  -31.7163    1.6190 H         1 UNK         0.0889 
     83 H83       -48.0491  -32.1662    2.0824 H         1 UNK         0.0889 
     84 H84       -48.3581  -31.4680    0.4901 H         1 UNK         0.0889 
     85 H85       -50.3536  -29.8187    2.5875 H         1 UNK         0.3028 
     86 H86       -48.7663  -27.4212    2.6279 H         1 UNK         0.0864 
     87 H87       -51.0346  -27.0005    2.2600 H         1 UNK         0.0720 
     88 H88       -50.7995  -26.4984    3.9045 H         1 UNK         0.0720 
     89 H89       -54.4003  -27.6526    4.1540 H         1 UNK         0.0814 
     90 H90       -53.2899  -26.3326    3.9194 H         1 UNK         0.0814 
     91 H91       -52.0196  -25.4276    5.8444 H         1 UNK         0.1469 
     92 H92       -53.0403  -26.8311    9.7690 H         1 UNK         0.1381 
     93 H93       -54.5141  -28.8832    6.3062 H         1 UNK         0.1206 
     94 H94       -55.4816  -29.3277    8.4713 H         1 UNK         0.0813 
     95 H95       -55.0669  -28.3607    9.8642 H         1 UNK         0.0813 
     96 H96       -55.7196  -31.3875    9.5978 H         1 UNK         0.0638 
     97 H97       -54.5102  -32.3753   10.3647 H         1 UNK         0.0638 
     98 H98       -55.7204  -29.8852   11.6637 H         1 UNK         0.0568 
     99 H99       -57.7501  -32.6498   13.5594 H         1 UNK         0.3450 
    100 H100      -56.1608  -32.1025   14.0226 H         1 UNK         0.3450 
    101 H101      -54.1183  -32.0155   12.9897 H         1 UNK         0.2987 
    102 H102      -53.2688  -31.1221   15.1780 H         1 UNK         0.0766 
    103 H103      -51.0334  -30.5671   13.1305 H         1 UNK         0.0798 
    104 H104      -51.8284  -32.1113   13.3856 H         1 UNK         0.0798 
    105 H105      -50.8139  -31.4367   14.6450 H         1 UNK         0.0798 
    106 H106      -52.5051  -28.3943   14.6774 H         1 UNK         0.3198 
    107 H107      -51.9782  -27.7266   17.9888 H         1 UNK         0.0843 
    108 H108      -49.7262  -26.7525   17.6251 H         1 UNK         0.0831 
    109 H109      -49.4879  -27.7811   16.2050 H         1 UNK         0.0831 
    110 H110      -49.6192  -28.4933   17.8057 H         1 UNK         0.0831 
    111 H111      -51.3195  -26.2045   15.6031 H         1 UNK         0.3133 
    112 H112      -53.3346  -25.3851   14.2141 H         1 UNK         0.0566 
    113 H113      -55.6800  -25.3577   14.9542 H         1 UNK         0.0814 
    114 H114      -55.3065  -24.2529   16.2663 H         1 UNK         0.0814 
    115 H115      -55.1563  -23.7214   14.5915 H         1 UNK         0.0814 
    116 H116      -51.8964  -23.8150   14.7762 H         1 UNK         0.3091 
    117 H117      -51.7248  -21.4199   15.7882 H         1 UNK         0.0702 
    118 H118      -50.5763  -20.5021   17.8013 H         1 UNK         0.0785 
    119 H119      -51.0551  -21.9205   18.7334 H         1 UNK         0.0785 
    120 H120      -52.2748  -20.8233   18.1093 H         1 UNK         0.0785 
    121 H121      -49.7712  -22.2507   15.2635 H         1 UNK         0.2998 
    122 H122      -47.1663  -23.2133   16.8175 H         1 UNK         0.0697 
    123 H123      -46.5382  -25.4451   15.9415 H         1 UNK         0.0825 
    124 H124      -47.5923  -25.6118   17.3326 H         1 UNK         0.0825 
    125 H125      -48.2333  -25.8521   15.7067 H         1 UNK         0.0825 
    126 H126      -47.8833  -24.0565   14.1188 H         1 UNK         0.3029 
    127 H127      -47.7212  -20.7789   12.7411 H         1 UNK         0.0897 
    128 H128      -46.1977  -21.9800   11.1494 H         1 UNK         0.0792 
    129 H129      -45.3710  -21.5523   12.6402 H         1 UNK         0.0792 
    130 H130      -45.8894  -23.2093   12.3758 H         1 UNK         0.0792 
    131 H131      -48.3089  -23.2338   11.4844 H         1 UNK         0.3086 
    132 H132      -51.7806  -23.4506   12.3931 H         1 UNK         0.0583 
    133 H133      -51.6050  -21.8427   10.4773 H         1 UNK         0.1020 
    134 H134      -50.3813  -22.8368    9.7349 H         1 UNK         0.1020 
    135 H135      -51.1958  -24.2454    7.7135 H         1 UNK         0.0694 
    136 H136      -50.7886  -25.3190    9.0351 H         1 UNK         0.0694 
    137 H137      -49.9606  -25.0935   10.8626 H         1 UNK         0.2989 
    138 H138      -49.2138  -27.3567   13.4995 H         1 UNK         0.1055 
    139 H139      -50.9748  -27.5606   10.9898 H         1 UNK         0.0806 
    140 H140      -51.3964  -28.1043   12.6018 H         1 UNK         0.0806 
    141 H141      -50.1001  -28.9006   11.7183 H         1 UNK         0.0806 
    142 H142      -48.4868  -27.1702   10.7131 H         1 UNK         0.3061 
    143 H143      -45.5612  -25.1945   11.1721 H         1 UNK         0.0734 
    144 H144      -44.3399  -27.1943   10.3674 H         1 UNK         0.0832 
    145 H145      -44.7781  -27.3992   12.0544 H         1 UNK         0.0832 
    146 H146      -45.6944  -28.2361   10.8094 H         1 UNK         0.0832 
    147 H147      -46.3765  -26.7064    8.9393 H         1 UNK         0.3156 
    148 H148      -48.9012  -24.6326    7.6239 H         1 UNK         0.0589 
    149 H149      -45.9979  -24.9146    6.7063 H         1 UNK         0.0808 
    150 H150      -47.3632  -24.3987    5.7168 H         1 UNK         0.0808 
    151 H151      -46.8112  -23.3922    7.0449 H         1 UNK         0.0808 
    152 H152      -47.7782  -26.7450    6.2958 H         1 UNK         0.3098 
    153 H153      -48.0967  -29.3078    7.0050 H         1 UNK         0.0720 
    154 H154      -49.7607  -29.9812    8.7272 H         1 UNK         0.0791 
    155 H155      -51.0637  -29.2895    7.7727 H         1 UNK         0.0791 
    156 H156      -50.1698  -30.6878    7.1743 H         1 UNK         0.0791 
    157 H157      -50.4564  -28.8370    5.4229 H         1 UNK         0.3028 
@<TRIPOS>BOND
     1    1    2 1    
     2    1   82 1    
     3    1   83 1    
     4    1   84 1    
     5    2    3 2    
     6    2    4 am   BACKBONE|DICT|INTERRES
     7    4    5 1    
     8    4   85 1    
     9    5    6 1    
    10    5   80 1    
    11    5   86 1    
    12    6    7 1    
    13    6   87 1    
    14    6   88 1    
    15    7    8 1    
    16    8    9 1    
    17    8   89 1    
    18    8   90 1    
    19    9   10 ar   
    20    9   14 ar   
    21   10   11 ar   
    22   10   91 1    
    23   11   12 ar   
    24   11   58 1    
    25   12   13 ar   
    26   12   92 1    
    27   13   14 ar   
    28   13   15 1    
    29   14   93 1    
    30   15   16 1    
    31   15   94 1    
    32   15   95 1    
    33   16   17 1    
    34   17   18 1    
    35   17   96 1    
    36   17   97 1    
    37   18   19 1    
    38   18   22 1    
    39   18   98 1    
    40   19   20 am   BACKBONE|DICT|INTERRES
    41   19   21 2    
    42   20   99 1    
    43   20  100 1    
    44   22   23 am   BACKBONE|DICT|INTERRES
    45   22  101 1    
    46   23   24 2    
    47   23   25 1    
    48   25   26 1    
    49   25   27 1    
    50   25  102 1    
    51   26  103 1    
    52   26  104 1    
    53   26  105 1    
    54   27   28 am   BACKBONE|DICT|INTERRES
    55   27  106 1    
    56   28   29 2    
    57   28   30 1    
    58   30   31 1    
    59   30   32 1    
    60   30  107 1    
    61   31  108 1    
    62   31  109 1    
    63   31  110 1    
    64   32   33 am   BACKBONE|DICT|INTERRES
    65   32  111 1    
    66   33   34 2    
    67   33   35 1    
    68   35   36 1    
    69   35   37 1    
    70   35  112 1    
    71   36  113 1    
    72   36  114 1    
    73   36  115 1    
    74   37   38 am   BACKBONE|DICT|INTERRES
    75   37  116 1    
    76   38   39 2    
    77   38   40 1    
    78   40   41 1    
    79   40   42 1    
    80   40  117 1    
    81   41  118 1    
    82   41  119 1    
    83   41  120 1    
    84   42   43 am   BACKBONE|DICT|INTERRES
    85   42  121 1    
    86   43   44 2    
    87   43   45 1    
    88   45   46 1    
    89   45   47 1    
    90   45  122 1    
    91   46  123 1    
    92   46  124 1    
    93   46  125 1    
    94   47   48 am   BACKBONE|DICT|INTERRES
    95   47  126 1    
    96   48   49 2    
    97   48   50 1    
    98   50   51 1    
    99   50   52 1    
   100   50  127 1    
   101   51  128 1    
   102   51  129 1    
   103   51  130 1    
   104   52   53 am   BACKBONE|DICT|INTERRES
   105   52  131 1    
   106   53   54 2    
   107   53   55 1    
   108   55   56 1    
   109   55   59 1    
   110   55  132 1    
   111   56   57 1    
   112   56  133 1    
   113   56  134 1    
   114   57   58 1    
   115   58  135 1    
   116   58  136 1    
   117   59   60 am   BACKBONE|DICT|INTERRES
   118   59  137 1    
   119   60   61 2    
   120   60   62 1    
   121   62   63 1    
   122   62   64 1    
   123   62  138 1    
   124   63  139 1    
   125   63  140 1    
   126   63  141 1    
   127   64   65 am   BACKBONE|DICT|INTERRES
   128   64  142 1    
   129   65   66 2    
   130   65   67 1    
   131   67   68 1    
   132   67   69 1    
   133   67  143 1    
   134   68  144 1    
   135   68  145 1    
   136   68  146 1    
   137   69   70 am   BACKBONE|DICT|INTERRES
   138   69  147 1    
   139   70   71 2    
   140   70   72 1    
   141   72   73 1    
   142   72   74 1    
   143   72  148 1    
   144   73  149 1    
   145   73  150 1    
   146   73  151 1    
   147   74   75 am   BACKBONE|DICT|INTERRES
   148   74  152 1    
   149   75   76 2    
   150   75   77 1    
   151   77   78 1    
   152   77   79 1    
   153   77  153 1    
   154   78  154 1    
   155   78  155 1    
   156   78  156 1    
   157   79   80 am   BACKBONE|DICT|INTERRES
   158   79  157 1    
   159   80   81 2    
@<TRIPOS>SUBSTRUCTURE
     1 UNK         1 GROUP             0       ****    0 ROOT    
