@<TRIPOS>MOLECULE
3R207
157   159    1
SMALL
USER_CHARGES


@<TRIPOS>ATOM
      1 CA        -48.1964  -23.2108    5.2878 C.3       0 UNK        -0.1975 
      2 C         -48.8030  -24.5989    5.1440 C.2       0 UNK         0.4852 
      3 O         -48.6694  -25.2086    4.0834 O.2       0 UNK        -0.5216 
      4 N         -49.4693  -25.0762    6.2035 N.am      1 UNK        -0.4461 
      5 CA        -50.1129  -26.3850    6.3555 C.3       1 UNK         0.0864 
      6 C6        -51.0705  -26.7519    5.1893 C.3       14 UNK        -0.0898 
      7 S7        -52.4164  -27.8587    5.7242 S.3       14 UNK        -0.2598 
      8 C8        -53.7953  -26.6836    5.9059 C.3       14 UNK         0.0286 
      9 C9        -53.5751  -25.7255    7.0680 C.ar      14 UNK        -0.0844 
     10 C10       -53.1457  -24.4142    6.8394 C.ar      14 UNK        -0.0881 
     11 C11       -52.9661  -23.5283    7.9067 C.ar      14 UNK        -0.0643 
     12 C12       -53.2196  -23.9641    9.2120 C.ar      14 UNK        -0.0930 
     13 C13       -53.6380  -25.2765    9.4516 C.ar      14 UNK        -0.0827 
     14 C14       -53.8163  -26.1506    8.3765 C.ar      14 UNK        -0.1249 
     15 C15       -53.9163  -25.7558   10.8660 C.3       14 UNK         0.0141 
     16 S16       -52.4775  -26.6250   11.5555 S.3       14 UNK        -0.2313 
     17 C17       -53.2346  -27.4178   13.0159 C.3       14 UNK        -0.0915 
     18 CA        -53.5280  -28.9284   12.8006 C.3       13 UNK         0.0968 
     19 C         -52.2870  -29.8381   13.0467 C.2       13 UNK         0.5732 
     20 N         -51.1712  -29.5511   12.3918 N.am      13 UNK        -0.7310 
     21 O         -52.3126  -30.7944   13.8187 O.2       13 UNK        -0.5035 
     22 N         -54.7057  -29.3379   13.5772 N.am      13 UNK        -0.4233 
     23 C         -55.5136  -30.3601   13.2627 C.2       13 UNK         0.4989 
     24 O         -55.3841  -31.0409   12.2432 O.2       13 UNK        -0.4996 
     25 CA        -56.6928  -30.6429   14.2197 C.3       12 UNK         0.0216 
     26 CB        -57.2046  -32.0979   14.1333 C.3       12 UNK        -0.1964 
     27 N         -56.4303  -30.2500   15.6110 N.am      12 UNK        -0.4276 
     28 C         -55.5099  -30.7653   16.4381 C.2       12 UNK         0.5020 
     29 O         -54.7830  -31.7244   16.1717 O.2       12 UNK        -0.5489 
     30 CA        -55.3610  -30.0654   17.7988 C.3       11 UNK         0.0294 
     31 CB        -55.6622  -31.0331   18.9558 C.3       11 UNK        -0.2019 
     32 N         -54.0165  -29.5093   17.9633 N.am      11 UNK        -0.4493 
     33 C         -53.4912  -28.5388   17.2039 C.2       11 UNK         0.4932 
     34 O         -54.0891  -27.9921   16.2727 O.2       11 UNK        -0.5029 
     35 CA        -52.0470  -28.1293   17.5321 C.3       10 UNK         0.0280 
     36 CB        -51.0617  -28.7642   16.5385 C.3       10 UNK        -0.1976 
     37 N         -51.8996  -26.6743   17.5050 N.am      10 UNK        -0.4242 
     38 C         -52.3409  -25.8537   18.4716 C.2       10 UNK         0.5072 
     39 O         -52.8444  -26.2521   19.5236 O.2       10 UNK        -0.5224 
     40 CA        -52.1951  -24.3338   18.2519 C.3       9 UNK         0.0343 
     41 CB        -50.9329  -23.8075   18.9543 C.3       9 UNK        -0.2003 
     42 N         -52.1486  -23.9559   16.8394 N.am      9 UNK        -0.4272 
     43 C         -53.1800  -24.0479   15.9898 C.2       9 UNK         0.4988 
     44 O         -54.3312  -24.3027   16.3455 O.2       9 UNK        -0.5108 
     45 CA        -52.8947  -23.8331   14.4901 C.3       8 UNK         0.0248 
     46 CB        -53.5312  -22.5231   13.9968 C.3       8 UNK        -0.2001 
     47 N         -51.4842  -23.8529   14.0790 N.am      8 UNK        -0.4140 
     48 C         -50.5949  -24.8398   14.2551 C.2       8 UNK         0.5028 
     49 O         -50.8042  -25.8236   14.9647 O.2       8 UNK        -0.5428 
     50 CA        -49.2462  -24.6961   13.5191 C.3       7 UNK         0.0264 
     51 CB        -48.3685  -25.9551   13.6549 C.3       7 UNK        -0.1988 
     52 N         -49.4019  -24.3926   12.0920 N.am      7 UNK        -0.4454 
     53 C         -49.7478  -23.2084   11.5698 C.2       7 UNK         0.5027 
     54 O         -50.0143  -22.2184   12.2543 O.2       7 UNK        -0.5083 
     55 CA        -49.7614  -23.1179   10.0333 C.3       6 UNK         0.0844 
     56 C56       -50.4344  -21.8234    9.5155 C.3       14 UNK        -0.0967 
     57 S57       -50.7234  -21.8924    7.7153 S.3       14 UNK        -0.2604 
     58 C58       -52.5324  -22.0934    7.6379 C.3       14 UNK         0.0134 
     59 N         -48.3797  -23.2395    9.5623 N.am      6 UNK        -0.4116 
     60 C         -47.7976  -24.3942    9.2284 C.2       5 UNK         0.5034 
     61 O         -48.3995  -25.4676    9.1919 O.2       5 UNK        -0.5045 
     62 CA        -46.2967  -24.3470    8.9278 C.3       5 UNK         0.0224 
     63 CB        -45.4930  -24.7420   10.1774 C.3       5 UNK        -0.1978 
     64 N         -45.9919  -25.2853    7.8505 N.am      5 UNK        -0.4737 
     65 C         -45.3562  -24.9695    6.7143 C.2       4 UNK         0.5027 
     66 O         -44.9135  -23.8441    6.4800 O.2       4 UNK        -0.5211 
     67 CA        -45.2159  -26.0709    5.6434 C.3       4 UNK         0.0297 
     68 CB        -43.9963  -25.8629    4.7196 C.3       4 UNK        -0.1993 
     69 N         -45.2524  -27.4305    6.1907 N.am      4 UNK        -0.4486 
     70 C         -44.3508  -28.0146    6.9964 C.2       3 UNK         0.4961 
     71 O         -43.2926  -27.4862    7.3409 O.2       3 UNK        -0.5105 
     72 CA        -44.6986  -29.4321    7.5053 C.3       3 UNK         0.0299 
     73 CB        -43.9688  -29.7886    8.8185 C.3       3 UNK        -0.1972 
     74 N         -46.1443  -29.6696    7.6328 N.am      3 UNK        -0.4305 
     75 C         -47.0037  -28.9725    8.3907 C.2       2 UNK         0.5006 
     76 O         -46.6750  -28.0554    9.1434 O.2       2 UNK        -0.5106 
     77 CA        -48.4903  -29.3369    8.2446 C.3       2 UNK         0.0296 
     78 CB        -49.0597  -29.8412    9.5804 C.3       2 UNK        -0.2002 
     79 N         -49.2948  -28.2051    7.7758 N.am      2 UNK        -0.4032 
     80 C         -49.0934  -27.5067    6.6479 C.2       1 UNK         0.5000 
     81 O         -48.1805  -27.7452    5.8517 O.2       1 UNK        -0.5238 
     82 H82       -48.8289  -22.4727    4.7954 H         1 UNK         0.0889 
     83 H83       -47.2103  -23.1777    4.8251 H         1 UNK         0.0889 
     84 H84       -48.0846  -22.9227    6.3328 H         1 UNK         0.0889 
     85 H85       -49.5225  -24.5010    7.0328 H         1 UNK         0.3028 
     86 H86       -50.7204  -26.2571    7.2535 H         1 UNK         0.0864 
     87 H87       -50.5307  -27.2236    4.3659 H         1 UNK         0.0720 
     88 H88       -51.5137  -25.8506    4.7642 H         1 UNK         0.0720 
     89 H89       -54.7159  -27.2454    6.0705 H         1 UNK         0.0814 
     90 H90       -53.9388  -26.1374    4.9722 H         1 UNK         0.0814 
     91 H91       -52.9570  -24.0785    5.8288 H         1 UNK         0.1469 
     92 H92       -53.0952  -23.2835   10.0421 H         1 UNK         0.1381 
     93 H93       -54.1428  -27.1657    8.5584 H         1 UNK         0.1206 
     94 H94       -54.1780  -24.9169   11.5126 H         1 UNK         0.0813 
     95 H95       -54.7788  -26.4244   10.8608 H         1 UNK         0.0813 
     96 H96       -54.1550  -26.8809   13.2507 H         1 UNK         0.0638 
     97 H97       -52.5924  -27.2694   13.8828 H         1 UNK         0.0638 
     98 H98       -53.7912  -29.0680   11.7503 H         1 UNK         0.0568 
     99 H99       -50.3548  -30.1225   12.5360 H         1 UNK         0.3450 
    100 H100      -51.1340  -28.7442   11.7885 H         1 UNK         0.3450 
    101 H101      -54.8195  -28.8747   14.4712 H         1 UNK         0.2987 
    102 H102      -57.5036  -29.9975   13.8786 H         1 UNK         0.0766 
    103 H103      -57.5567  -32.3300   13.1274 H         1 UNK         0.0798 
    104 H104      -58.0397  -32.2668   14.8131 H         1 UNK         0.0798 
    105 H105      -56.4229  -32.8185   14.3755 H         1 UNK         0.0798 
    106 H106      -56.9602  -29.4527   15.9377 H         1 UNK         0.3198 
    107 H107      -56.0714  -29.2377   17.8573 H         1 UNK         0.0843 
    108 H108      -54.9627  -31.8699   18.9763 H         1 UNK         0.0831 
    109 H109      -56.6654  -31.4511   18.8615 H         1 UNK         0.0831 
    110 H110      -55.6122  -30.5285   19.9209 H         1 UNK         0.0831 
    111 H111      -53.4420  -29.9271   18.6810 H         1 UNK         0.3133 
    112 H112      -51.7929  -28.4840   18.5334 H         1 UNK         0.0566 
    113 H113      -51.2453  -28.4275   15.5184 H         1 UNK         0.0814 
    114 H114      -51.1475  -29.8516   16.5406 H         1 UNK         0.0814 
    115 H115      -50.0301  -28.5164   16.7886 H         1 UNK         0.0814 
    116 H116      -51.5344  -26.2774   16.6408 H         1 UNK         0.3091 
    117 H117      -53.0646  -23.8516   18.7037 H         1 UNK         0.0702 
    118 H118      -50.8540  -22.7234   18.8700 H         1 UNK         0.0785 
    119 H119      -50.0257  -24.2455   18.5360 H         1 UNK         0.0785 
    120 H120      -50.9503  -24.0478   20.0183 H         1 UNK         0.0785 
    121 H121      -51.2394  -23.7499   16.4529 H         1 UNK         0.2998 
    122 H122      -53.3819  -24.6578   13.9691 H         1 UNK         0.0697 
    123 H123      -53.0586  -21.6514   14.4512 H         1 UNK         0.0825 
    124 H124      -54.5934  -22.4842   14.2428 H         1 UNK         0.0825 
    125 H125      -53.4492  -22.4242   12.9141 H         1 UNK         0.0825 
    126 H126      -51.1751  -23.0757   13.5016 H         1 UNK         0.3029 
    127 H127      -48.7149  -23.8670   13.9914 H         1 UNK         0.0897 
    128 H128      -48.8531  -26.8306   13.2200 H         1 UNK         0.0792 
    129 H129      -48.1667  -26.1818   14.7027 H         1 UNK         0.0792 
    130 H130      -47.4047  -25.8246   13.1622 H         1 UNK         0.0792 
    131 H131      -49.2224  -25.1546   11.4502 H         1 UNK         0.3086 
    132 H132      -50.3569  -23.9620    9.6777 H         1 UNK         0.0583 
    133 H133      -51.3823  -21.6444   10.0253 H         1 UNK         0.1020 
    134 H134      -49.8160  -20.9514    9.7362 H         1 UNK         0.1020 
    135 H135      -53.0170  -21.4104    8.3371 H         1 UNK         0.0694 
    136 H136      -52.8690  -21.7888    6.6457 H         1 UNK         0.0694 
    137 H137      -47.8227  -22.3981    9.6046 H         1 UNK         0.2989 
    138 H138      -46.0289  -23.3275    8.6415 H         1 UNK         0.1055 
    139 H139      -45.7406  -25.7507   10.5123 H         1 UNK         0.0806 
    140 H140      -45.6946  -24.0630   11.0071 H         1 UNK         0.0806 
    141 H141      -44.4207  -24.7100    9.9834 H         1 UNK         0.0806 
    142 H142      -46.3506  -26.2254    7.9880 H         1 UNK         0.3061 
    143 H143      -46.1058  -25.9877    5.0188 H         1 UNK         0.0734 
    144 H144      -43.0612  -25.8379    5.2795 H         1 UNK         0.0832 
    145 H145      -43.9222  -26.6545    3.9741 H         1 UNK         0.0832 
    146 H146      -44.0733  -24.9185    4.1796 H         1 UNK         0.0832 
    147 H147      -46.1226  -27.9240    6.0126 H         1 UNK         0.3156 
    148 H148      -44.3452  -30.1205    6.7364 H         1 UNK         0.0589 
    149 H149      -44.2220  -30.7943    9.1537 H         1 UNK         0.0808 
    150 H150      -42.8866  -29.7560    8.6870 H         1 UNK         0.0808 
    151 H151      -44.2186  -29.0941    9.6214 H         1 UNK         0.0808 
    152 H152      -46.5188  -30.3921    7.0324 H         1 UNK         0.3098 
    153 H153      -48.5918  -30.1354    7.5069 H         1 UNK         0.0720 
    154 H154      -49.0119  -29.0704   10.3511 H         1 UNK         0.0791 
    155 H155      -48.4965  -30.7012    9.9450 H         1 UNK         0.0791 
    156 H156      -50.0992  -30.1541    9.4795 H         1 UNK         0.0791 
    157 H157      -50.0407  -27.9117    8.3889 H         1 UNK         0.3028 
@<TRIPOS>BOND
     1    1    2 1    
     2    1   82 1    
     3    1   83 1    
     4    1   84 1    
     5    2    3 2    
     6    2    4 am   BACKBONE|DICT|INTERRES
     7    4    5 1    
     8    4   85 1    
     9    5    6 1    
    10    5   80 1    
    11    5   86 1    
    12    6    7 1    
    13    6   87 1    
    14    6   88 1    
    15    7    8 1    
    16    8    9 1    
    17    8   89 1    
    18    8   90 1    
    19    9   10 ar   
    20    9   14 ar   
    21   10   11 ar   
    22   10   91 1    
    23   11   12 ar   
    24   11   58 1    
    25   12   13 ar   
    26   12   92 1    
    27   13   14 ar   
    28   13   15 1    
    29   14   93 1    
    30   15   16 1    
    31   15   94 1    
    32   15   95 1    
    33   16   17 1    
    34   17   18 1    
    35   17   96 1    
    36   17   97 1    
    37   18   19 1    
    38   18   22 1    
    39   18   98 1    
    40   19   20 am   BACKBONE|DICT|INTERRES
    41   19   21 2    
    42   20   99 1    
    43   20  100 1    
    44   22   23 am   BACKBONE|DICT|INTERRES
    45   22  101 1    
    46   23   24 2    
    47   23   25 1    
    48   25   26 1    
    49   25   27 1    
    50   25  102 1    
    51   26  103 1    
    52   26  104 1    
    53   26  105 1    
    54   27   28 am   BACKBONE|DICT|INTERRES
    55   27  106 1    
    56   28   29 2    
    57   28   30 1    
    58   30   31 1    
    59   30   32 1    
    60   30  107 1    
    61   31  108 1    
    62   31  109 1    
    63   31  110 1    
    64   32   33 am   BACKBONE|DICT|INTERRES
    65   32  111 1    
    66   33   34 2    
    67   33   35 1    
    68   35   36 1    
    69   35   37 1    
    70   35  112 1    
    71   36  113 1    
    72   36  114 1    
    73   36  115 1    
    74   37   38 am   BACKBONE|DICT|INTERRES
    75   37  116 1    
    76   38   39 2    
    77   38   40 1    
    78   40   41 1    
    79   40   42 1    
    80   40  117 1    
    81   41  118 1    
    82   41  119 1    
    83   41  120 1    
    84   42   43 am   BACKBONE|DICT|INTERRES
    85   42  121 1    
    86   43   44 2    
    87   43   45 1    
    88   45   46 1    
    89   45   47 1    
    90   45  122 1    
    91   46  123 1    
    92   46  124 1    
    93   46  125 1    
    94   47   48 am   BACKBONE|DICT|INTERRES
    95   47  126 1    
    96   48   49 2    
    97   48   50 1    
    98   50   51 1    
    99   50   52 1    
   100   50  127 1    
   101   51  128 1    
   102   51  129 1    
   103   51  130 1    
   104   52   53 am   BACKBONE|DICT|INTERRES
   105   52  131 1    
   106   53   54 2    
   107   53   55 1    
   108   55   56 1    
   109   55   59 1    
   110   55  132 1    
   111   56   57 1    
   112   56  133 1    
   113   56  134 1    
   114   57   58 1    
   115   58  135 1    
   116   58  136 1    
   117   59   60 am   BACKBONE|DICT|INTERRES
   118   59  137 1    
   119   60   61 2    
   120   60   62 1    
   121   62   63 1    
   122   62   64 1    
   123   62  138 1    
   124   63  139 1    
   125   63  140 1    
   126   63  141 1    
   127   64   65 am   BACKBONE|DICT|INTERRES
   128   64  142 1    
   129   65   66 2    
   130   65   67 1    
   131   67   68 1    
   132   67   69 1    
   133   67  143 1    
   134   68  144 1    
   135   68  145 1    
   136   68  146 1    
   137   69   70 am   BACKBONE|DICT|INTERRES
   138   69  147 1    
   139   70   71 2    
   140   70   72 1    
   141   72   73 1    
   142   72   74 1    
   143   72  148 1    
   144   73  149 1    
   145   73  150 1    
   146   73  151 1    
   147   74   75 am   BACKBONE|DICT|INTERRES
   148   74  152 1    
   149   75   76 2    
   150   75   77 1    
   151   77   78 1    
   152   77   79 1    
   153   77  153 1    
   154   78  154 1    
   155   78  155 1    
   156   78  156 1    
   157   79   80 am   BACKBONE|DICT|INTERRES
   158   79  157 1    
   159   80   81 2    
@<TRIPOS>SUBSTRUCTURE
     1 UNK         1 GROUP             0       ****    0 ROOT    
