@<TRIPOS>MOLECULE
3R207
157   159    1
SMALL
USER_CHARGES


@<TRIPOS>ATOM
      1 CA        -48.7253  -30.9496   11.9498 C.3       0 UNK        -0.1975 
      2 C         -48.1998  -30.0196   10.8669 C.2       0 UNK         0.4852 
      3 O         -47.5500  -29.0250   11.1849 O.2       0 UNK        -0.5216 
      4 N         -48.4526  -30.3482    9.5916 N.am      1 UNK        -0.4461 
      5 CA        -48.1727  -29.5743    8.3673 C.3       1 UNK         0.0864 
      6 C6        -49.0168  -28.2700    8.2841 C.3       14 UNK        -0.0898 
      7 S7        -49.5428  -27.8900    6.5771 S.3       14 UNK        -0.2598 
      8 C8        -50.9787  -28.9929    6.3634 C.3       14 UNK         0.0286 
      9 C9        -52.2634  -28.3937    6.9168 C.ar      14 UNK        -0.0844 
     10 C10       -53.0697  -27.5905    6.1049 C.ar      14 UNK        -0.0881 
     11 C11       -54.2663  -27.0576    6.5951 C.ar      14 UNK        -0.0643 
     12 C12       -54.6626  -27.3433    7.9054 C.ar      14 UNK        -0.0930 
     13 C13       -53.8523  -28.1263    8.7318 C.ar      14 UNK        -0.0827 
     14 C14       -52.6614  -28.6586    8.2298 C.ar      14 UNK        -0.1249 
     15 C15       -54.2500  -28.3921   10.1724 C.3       14 UNK         0.0141 
     16 S16       -53.5600  -27.1271   11.2847 S.3       14 UNK        -0.2313 
     17 C17       -54.9853  -26.0226   11.5696 C.3       14 UNK        -0.0915 
     18 CA        -55.8171  -26.3833   12.8323 C.3       13 UNK         0.0968 
     19 C         -56.8127  -27.5514   12.5609 C.2       13 UNK         0.5732 
     20 N         -56.7081  -28.7017   13.2172 N.am      13 UNK        -0.7310 
     21 O         -57.7088  -27.4051   11.7333 O.2       13 UNK        -0.5035 
     22 N         -54.9583  -26.5540   14.0131 N.am      13 UNK        -0.4233 
     23 C         -55.3795  -26.5691   15.2835 C.2       13 UNK         0.4989 
     24 O         -56.5270  -26.2794   15.6271 O.2       13 UNK        -0.4996 
     25 CA        -54.3406  -27.0011   16.3381 C.3       12 UNK         0.0216 
     26 CB        -54.9840  -27.4878   17.6535 C.3       12 UNK        -0.1964 
     27 N         -53.3870  -27.9960   15.8280 N.am      12 UNK        -0.4276 
     28 C         -53.6504  -29.2149   15.3315 C.2       12 UNK         0.5020 
     29 O         -54.7846  -29.6879   15.2507 O.2       12 UNK        -0.5489 
     30 CA        -52.4622  -30.0379   14.8012 C.3       11 UNK         0.0294 
     31 CB        -52.4816  -30.0939   13.2651 C.3       11 UNK        -0.2019 
     32 N         -51.1692  -29.5008   15.2355 N.am      11 UNK        -0.4493 
     33 C         -50.4207  -30.0166   16.2206 C.2       11 UNK         0.4932 
     34 O         -50.7111  -31.0389   16.8422 O.2       11 UNK        -0.5029 
     35 CA        -49.1257  -29.2648   16.5831 C.3       10 UNK         0.0280 
     36 CB        -47.9436  -29.8046   15.7611 C.3       10 UNK        -0.1976 
     37 N         -49.2214  -27.8148   16.3961 N.am      10 UNK        -0.4242 
     38 C         -50.0209  -26.9982   17.0983 C.2       10 UNK         0.5072 
     39 O         -50.7235  -27.3675   18.0389 O.2       10 UNK        -0.5224 
     40 CA        -50.0792  -25.5245   16.6544 C.3       9 UNK         0.0343 
     41 CB        -49.1306  -24.6686   17.5087 C.3       9 UNK        -0.2003 
     42 N         -49.7816  -25.3054   15.2334 N.am      9 UNK        -0.4272 
     43 C         -50.4780  -25.8170   14.2095 C.2       9 UNK         0.4988 
     44 O         -51.4326  -26.5852   14.3439 O.2       9 UNK        -0.5108 
     45 CA        -50.0067  -25.4401   12.7997 C.3       8 UNK         0.0248 
     46 CB        -49.7190  -26.6996   11.9711 C.3       8 UNK        -0.2001 
     47 N         -51.0011  -24.6234   12.1089 N.am      8 UNK        -0.4140 
     48 C         -51.3121  -23.3594   12.4338 C.2       8 UNK         0.5028 
     49 O         -50.7681  -22.7436   13.3522 O.2       8 UNK        -0.5428 
     50 CA        -52.3872  -22.6578   11.5849 C.3       7 UNK         0.0264 
     51 CB        -52.1691  -21.1349   11.4877 C.3       7 UNK        -0.1988 
     52 N         -52.4399  -23.2363   10.2448 N.am      7 UNK        -0.4454 
     53 C         -53.5173  -23.3317    9.4606 C.2       7 UNK         0.5027 
     54 O         -54.6213  -22.8869    9.7803 O.2       7 UNK        -0.5083 
     55 CA        -53.3397  -24.0502    8.0998 C.3       6 UNK         0.0844 
     56 C56       -54.5180  -23.7632    7.1276 C.3       14 UNK        -0.0967 
     57 S57       -54.3316  -24.5260    5.4766 S.3       14 UNK        -0.2604 
     58 C58       -55.1144  -26.1539    5.7133 C.3       14 UNK         0.0134 
     59 N         -52.0288  -23.8203    7.4785 N.am      6 UNK        -0.4116 
     60 C         -50.8723  -24.3799    7.8571 C.2       5 UNK         0.5034 
     61 O         -50.7689  -25.1143    8.8411 O.2       5 UNK        -0.5045 
     62 CA        -49.6065  -24.0280    7.0499 C.3       5 UNK         0.0224 
     63 CB        -49.8325  -22.9963    5.9204 C.3       5 UNK        -0.1978 
     64 N         -48.5140  -23.5970    7.9307 N.am      5 UNK        -0.4737 
     65 C         -48.5364  -22.5887    8.8149 C.2       4 UNK         0.5027 
     66 O         -49.4943  -21.8269    8.9524 O.2       4 UNK        -0.5211 
     67 CA        -47.2794  -22.3537    9.6777 C.3       4 UNK         0.0297 
     68 CB        -47.6317  -22.3169   11.1796 C.3       4 UNK        -0.1993 
     69 N         -46.1460  -23.2595    9.4210 N.am      4 UNK        -0.4486 
     70 C         -46.0573  -24.5724    9.6777 C.2       3 UNK         0.4961 
     71 O         -46.9750  -25.2596   10.1285 O.2       3 UNK        -0.5105 
     72 CA        -44.7016  -25.2226    9.3787 C.3       3 UNK         0.0299 
     73 CB        -43.6535  -24.8191   10.4352 C.3       3 UNK        -0.1972 
     74 N         -44.8673  -26.6729    9.3663 N.am      3 UNK        -0.4305 
     75 C         -44.0236  -27.5539    8.8151 C.2       2 UNK         0.5006 
     76 O         -42.9903  -27.2341    8.2255 O.2       2 UNK        -0.5106 
     77 CA        -44.3736  -29.0454    8.9479 C.3       2 UNK         0.0296 
     78 CB        -43.6685  -29.6532   10.1716 C.3       2 UNK        -0.2002 
     79 N         -45.8127  -29.2801    9.0628 N.am      2 UNK        -0.4032 
     80 C         -46.6762  -29.3282    8.0427 C.2       1 UNK         0.5000 
     81 O         -46.3265  -29.2188    6.8658 O.2       1 UNK        -0.5238 
     82 H82       -49.3508  -30.3918   12.6458 H         1 UNK         0.0889 
     83 H83       -47.8956  -31.3815   12.5089 H         1 UNK         0.0889 
     84 H84       -49.3204  -31.7640   11.5372 H         1 UNK         0.0889 
     85 H85       -48.9391  -31.2177    9.4207 H         1 UNK         0.3028 
     86 H86       -48.5138  -30.2437    7.5766 H         1 UNK         0.0864 
     87 H87       -49.9123  -28.3439    8.9010 H         1 UNK         0.0720 
     88 H88       -48.4694  -27.4151    8.6869 H         1 UNK         0.0720 
     89 H89       -51.1022  -29.1951    5.2984 H         1 UNK         0.0814 
     90 H90       -50.7826  -29.9600    6.8278 H         1 UNK         0.0814 
     91 H91       -52.7620  -27.3691    5.0920 H         1 UNK         0.1469 
     92 H92       -55.5825  -26.9282    8.2936 H         1 UNK         0.1381 
     93 H93       -52.0414  -29.2739    8.8668 H         1 UNK         0.1206 
     94 H94       -55.3350  -28.4423   10.2628 H         1 UNK         0.0813 
     95 H95       -53.8777  -29.3692   10.4832 H         1 UNK         0.0813 
     96 H96       -54.5829  -25.0181   11.6982 H         1 UNK         0.0638 
     97 H97       -55.6060  -25.9723   10.6733 H         1 UNK         0.0638 
     98 H98       -56.4538  -25.5213   13.0397 H         1 UNK         0.0568 
     99 H99       -55.9892  -28.8557   13.9166 H         1 UNK         0.3450 
    100 H100      -57.3716  -29.4335   13.0219 H         1 UNK         0.3450 
    101 H101      -53.9970  -26.7998   13.8190 H         1 UNK         0.2987 
    102 H102      -53.7545  -26.1096   16.5660 H         1 UNK         0.0766 
    103 H103      -54.2249  -27.7702   18.3832 H         1 UNK         0.0798 
    104 H104      -55.5919  -26.7039   18.1069 H         1 UNK         0.0798 
    105 H105      -55.6319  -28.3499   17.4918 H         1 UNK         0.0798 
    106 H106      -52.4368  -27.6585   15.7287 H         1 UNK         0.3198 
    107 H107      -52.5971  -31.0555   15.1740 H         1 UNK         0.0843 
    108 H108      -53.4704  -30.3599   12.8883 H         1 UNK         0.0831 
    109 H109      -51.7842  -30.8427   12.8910 H         1 UNK         0.0831 
    110 H110      -52.2073  -29.1356   12.8260 H         1 UNK         0.0831 
    111 H111      -50.8698  -28.6402   14.7935 H         1 UNK         0.3133 
    112 H112      -48.9209  -29.4527   17.6392 H         1 UNK         0.0566 
    113 H113      -48.0608  -29.5982   14.6967 H         1 UNK         0.0814 
    114 H114      -47.8490  -30.8855   15.8752 H         1 UNK         0.0814 
    115 H115      -47.0008  -29.3639   16.0859 H         1 UNK         0.0814 
    116 H116      -48.6658  -27.4117   15.6560 H         1 UNK         0.3091 
    117 H117      -51.1000  -25.1776   16.8281 H         1 UNK         0.0702 
    118 H118      -49.2360  -23.6083   17.2777 H         1 UNK         0.0785 
    119 H119      -48.0868  -24.9451   17.3545 H         1 UNK         0.0785 
    120 H120      -49.3462  -24.7887   18.5715 H         1 UNK         0.0785 
    121 H121      -49.0269  -24.6663   15.0270 H         1 UNK         0.2998 
    122 H122      -49.0802  -24.8684   12.8739 H         1 UNK         0.0697 
    123 H123      -50.6114  -27.3062   11.8166 H         1 UNK         0.0825 
    124 H124      -48.9827  -27.3250   12.4749 H         1 UNK         0.0825 
    125 H125      -49.3138  -26.4471   10.9907 H         1 UNK         0.0825 
    126 H126      -51.5108  -25.0812   11.3655 H         1 UNK         0.3029 
    127 H127      -53.3389  -22.8396   12.0884 H         1 UNK         0.0897 
    128 H128      -52.9564  -20.6562   10.9054 H         1 UNK         0.0792 
    129 H129      -52.1727  -20.6714   12.4749 H         1 UNK         0.0792 
    130 H130      -51.2136  -20.8994   11.0172 H         1 UNK         0.0792 
    131 H131      -51.5767  -23.6485    9.9012 H         1 UNK         0.3086 
    132 H132      -53.3750  -25.1083    8.3516 H         1 UNK         0.0583 
    133 H133      -55.4615  -24.0978    7.5633 H         1 UNK         0.1020 
    134 H134      -54.6257  -22.6871    6.9790 H         1 UNK         0.1020 
    135 H135      -56.1152  -26.0241    6.1280 H         1 UNK         0.0694 
    136 H136      -55.2462  -26.6263    4.7388 H         1 UNK         0.0694 
    137 H137      -52.0243  -23.2028    6.6808 H         1 UNK         0.2989 
    138 H138      -49.2799  -24.9589    6.5858 H         1 UNK         0.1055 
    139 H139      -48.9076  -22.8089    5.3747 H         1 UNK         0.0806 
    140 H140      -50.1865  -22.0375    6.3016 H         1 UNK         0.0806 
    141 H141      -50.5592  -23.3580    5.1916 H         1 UNK         0.0806 
    142 H142      -47.7053  -24.2013    7.9521 H         1 UNK         0.3061 
    143 H143      -46.9236  -21.3587    9.4059 H         1 UNK         0.0734 
    144 H144      -48.3737  -21.5457   11.3914 H         1 UNK         0.0832 
    145 H145      -48.0524  -23.2634   11.5164 H         1 UNK         0.0832 
    146 H146      -46.7559  -22.0999   11.7906 H         1 UNK         0.0832 
    147 H147      -45.3328  -22.8105    9.0207 H         1 UNK         0.3156 
    148 H148      -44.3748  -24.8943    8.3898 H         1 UNK         0.0589 
    149 H149      -43.9473  -25.1439   11.4342 H         1 UNK         0.0808 
    150 H150      -42.6775  -25.2530   10.2175 H         1 UNK         0.0808 
    151 H151      -43.5202  -23.7372   10.4701 H         1 UNK         0.0808 
    152 H152      -45.7247  -26.9922    9.8031 H         1 UNK         0.3098 
    153 H153      -44.0035  -29.5540    8.0550 H         1 UNK         0.0720 
    154 H154      -43.8511  -30.7256   10.2418 H         1 UNK         0.0791 
    155 H155      -42.5884  -29.5122   10.1102 H         1 UNK         0.0791 
    156 H156      -44.0059  -29.1936   11.1017 H         1 UNK         0.0791 
    157 H157      -46.2134  -29.3097    9.9986 H         1 UNK         0.3028 
@<TRIPOS>BOND
     1    1    2 1    
     2    1   82 1    
     3    1   83 1    
     4    1   84 1    
     5    2    3 2    
     6    2    4 am   BACKBONE|DICT|INTERRES
     7    4    5 1    
     8    4   85 1    
     9    5    6 1    
    10    5   80 1    
    11    5   86 1    
    12    6    7 1    
    13    6   87 1    
    14    6   88 1    
    15    7    8 1    
    16    8    9 1    
    17    8   89 1    
    18    8   90 1    
    19    9   10 ar   
    20    9   14 ar   
    21   10   11 ar   
    22   10   91 1    
    23   11   12 ar   
    24   11   58 1    
    25   12   13 ar   
    26   12   92 1    
    27   13   14 ar   
    28   13   15 1    
    29   14   93 1    
    30   15   16 1    
    31   15   94 1    
    32   15   95 1    
    33   16   17 1    
    34   17   18 1    
    35   17   96 1    
    36   17   97 1    
    37   18   19 1    
    38   18   22 1    
    39   18   98 1    
    40   19   20 am   BACKBONE|DICT|INTERRES
    41   19   21 2    
    42   20   99 1    
    43   20  100 1    
    44   22   23 am   BACKBONE|DICT|INTERRES
    45   22  101 1    
    46   23   24 2    
    47   23   25 1    
    48   25   26 1    
    49   25   27 1    
    50   25  102 1    
    51   26  103 1    
    52   26  104 1    
    53   26  105 1    
    54   27   28 am   BACKBONE|DICT|INTERRES
    55   27  106 1    
    56   28   29 2    
    57   28   30 1    
    58   30   31 1    
    59   30   32 1    
    60   30  107 1    
    61   31  108 1    
    62   31  109 1    
    63   31  110 1    
    64   32   33 am   BACKBONE|DICT|INTERRES
    65   32  111 1    
    66   33   34 2    
    67   33   35 1    
    68   35   36 1    
    69   35   37 1    
    70   35  112 1    
    71   36  113 1    
    72   36  114 1    
    73   36  115 1    
    74   37   38 am   BACKBONE|DICT|INTERRES
    75   37  116 1    
    76   38   39 2    
    77   38   40 1    
    78   40   41 1    
    79   40   42 1    
    80   40  117 1    
    81   41  118 1    
    82   41  119 1    
    83   41  120 1    
    84   42   43 am   BACKBONE|DICT|INTERRES
    85   42  121 1    
    86   43   44 2    
    87   43   45 1    
    88   45   46 1    
    89   45   47 1    
    90   45  122 1    
    91   46  123 1    
    92   46  124 1    
    93   46  125 1    
    94   47   48 am   BACKBONE|DICT|INTERRES
    95   47  126 1    
    96   48   49 2    
    97   48   50 1    
    98   50   51 1    
    99   50   52 1    
   100   50  127 1    
   101   51  128 1    
   102   51  129 1    
   103   51  130 1    
   104   52   53 am   BACKBONE|DICT|INTERRES
   105   52  131 1    
   106   53   54 2    
   107   53   55 1    
   108   55   56 1    
   109   55   59 1    
   110   55  132 1    
   111   56   57 1    
   112   56  133 1    
   113   56  134 1    
   114   57   58 1    
   115   58  135 1    
   116   58  136 1    
   117   59   60 am   BACKBONE|DICT|INTERRES
   118   59  137 1    
   119   60   61 2    
   120   60   62 1    
   121   62   63 1    
   122   62   64 1    
   123   62  138 1    
   124   63  139 1    
   125   63  140 1    
   126   63  141 1    
   127   64   65 am   BACKBONE|DICT|INTERRES
   128   64  142 1    
   129   65   66 2    
   130   65   67 1    
   131   67   68 1    
   132   67   69 1    
   133   67  143 1    
   134   68  144 1    
   135   68  145 1    
   136   68  146 1    
   137   69   70 am   BACKBONE|DICT|INTERRES
   138   69  147 1    
   139   70   71 2    
   140   70   72 1    
   141   72   73 1    
   142   72   74 1    
   143   72  148 1    
   144   73  149 1    
   145   73  150 1    
   146   73  151 1    
   147   74   75 am   BACKBONE|DICT|INTERRES
   148   74  152 1    
   149   75   76 2    
   150   75   77 1    
   151   77   78 1    
   152   77   79 1    
   153   77  153 1    
   154   78  154 1    
   155   78  155 1    
   156   78  156 1    
   157   79   80 am   BACKBONE|DICT|INTERRES
   158   79  157 1    
   159   80   81 2    
@<TRIPOS>SUBSTRUCTURE
     1 UNK         1 GROUP             0       ****    0 ROOT    
