@<TRIPOS>MOLECULE
3R207
157   159    1
SMALL
USER_CHARGES


@<TRIPOS>ATOM
      1 CA        -47.2919  -30.7712    1.6002 C.3       0 UNK        -0.1975 
      2 C         -48.0919  -29.5218    1.9384 C.2       0 UNK         0.4852 
      3 O         -47.8604  -28.4690    1.3430 O.2       0 UNK        -0.5216 
      4 N         -49.0322  -29.6323    2.8878 N.am      1 UNK        -0.4461 
      5 CA        -49.8865  -28.5346    3.3608 C.3       1 UNK         0.0864 
      6 C6        -51.0680  -29.0772    4.2059 C.3       14 UNK        -0.0898 
      7 S7        -52.5455  -28.0050    4.1749 S.3       14 UNK        -0.2598 
      8 C8        -52.4034  -27.0635    5.7299 C.3       14 UNK         0.0286 
      9 C9        -52.4815  -27.9504    6.9644 C.ar      14 UNK        -0.0844 
     10 C10       -51.3226  -28.2508    7.6859 C.ar      14 UNK        -0.0881 
     11 C11       -51.3749  -29.0594    8.8230 C.ar      14 UNK        -0.0643 
     12 C12       -52.6080  -29.5819    9.2285 C.ar      14 UNK        -0.0930 
     13 C13       -53.7770  -29.2807    8.5244 C.ar      14 UNK        -0.0827 
     14 C14       -53.7100  -28.4615    7.3936 C.ar      14 UNK        -0.1249 
     15 C15       -55.1045  -29.8540    8.9898 C.3       14 UNK         0.0141 
     16 S16       -55.8771  -28.7780   10.2379 S.3       14 UNK        -0.2313 
     17 C17       -56.7294  -30.0070   11.2886 C.3       14 UNK        -0.0915 
     18 CA        -56.0527  -30.2209   12.6699 C.3       13 UNK         0.0968 
     19 C         -54.6488  -30.8888   12.5524 C.2       13 UNK         0.5732 
     20 N         -53.5735  -30.2741   13.0307 N.am      13 UNK        -0.7310 
     21 O         -54.5382  -31.9915   12.0219 O.2       13 UNK        -0.5035 
     22 N         -56.1027  -28.9943   13.4802 N.am      13 UNK        -0.4233 
     23 C         -55.9965  -28.9340   14.8119 C.2       13 UNK         0.4989 
     24 O         -55.8566  -29.9264   15.5290 O.2       13 UNK        -0.4996 
     25 CA        -56.0480  -27.5251   15.4387 C.3       12 UNK         0.0216 
     26 CB        -55.9787  -27.5579   16.9770 C.3       12 UNK        -0.1964 
     27 N         -54.9835  -26.6507   14.9360 N.am      12 UNK        -0.4276 
     28 C         -54.9717  -26.0530   13.7343 C.2       12 UNK         0.5020 
     29 O         -55.8713  -26.1965   12.9042 O.2       12 UNK        -0.5489 
     30 CA        -53.7494  -25.1758   13.3957 C.3       11 UNK         0.0294 
     31 CB        -54.0262  -24.1454   12.2812 C.3       11 UNK        -0.2019 
     32 N         -53.1517  -24.5365   14.5729 N.am      11 UNK        -0.4493 
     33 C         -53.7396  -23.6710   15.4147 C.2       11 UNK         0.4932 
     34 O         -54.8722  -23.2172   15.2457 O.2       11 UNK        -0.5029 
     35 CA        -52.9361  -23.2433   16.6611 C.3       10 UNK         0.0280 
     36 CB        -53.8475  -22.9709   17.8770 C.3       10 UNK        -0.1976 
     37 N         -51.8492  -24.1605   17.0321 N.am      10 UNK        -0.4242 
     38 C         -51.9483  -25.4563   17.3756 C.2       10 UNK         0.5072 
     39 O         -53.0129  -26.0767   17.3752 O.2       10 UNK        -0.5224 
     40 CA        -50.6392  -26.1889   17.7340 C.3       9 UNK         0.0343 
     41 CB        -50.7092  -27.6899   17.3947 C.3       9 UNK        -0.2003 
     42 N         -49.5089  -25.5990   17.0167 N.am      9 UNK        -0.4272 
     43 C         -48.5265  -24.8618   17.5530 C.2       9 UNK         0.4988 
     44 O         -48.3948  -24.6713   18.7620 O.2       9 UNK        -0.5108 
     45 CA        -47.5366  -24.1924   16.5762 C.3       8 UNK         0.0248 
     46 CB        -46.2426  -25.0154   16.4775 C.3       8 UNK        -0.2001 
     47 N         -48.0841  -23.9882   15.2296 N.am      8 UNK        -0.4140 
     48 C         -49.1243  -23.1913   14.9381 C.2       8 UNK         0.5028 
     49 O         -49.6779  -22.4686   15.7667 O.2       8 UNK        -0.5428 
     50 CA        -49.6983  -23.2658   13.5098 C.3       7 UNK         0.0264 
     51 CB        -49.1142  -22.1414   12.6415 C.3       7 UNK        -0.1988 
     52 N         -49.4934  -24.5610   12.8468 N.am      7 UNK        -0.4454 
     53 C         -49.9090  -25.7472   13.3165 C.2       7 UNK         0.5027 
     54 O         -50.5787  -25.8586   14.3440 O.2       7 UNK        -0.5083 
     55 CA        -49.4720  -27.0276   12.5782 C.3       6 UNK         0.0844 
     56 C56       -50.6269  -27.6515   11.7627 C.3       14 UNK        -0.0967 
     57 S57       -50.2737  -29.4016   11.3859 S.3       14 UNK        -0.2604 
     58 C58       -50.0857  -29.3819    9.5736 C.3       14 UNK         0.0134 
     59 N         -48.2614  -26.8312   11.7745 N.am      6 UNK        -0.4116 
     60 C         -47.0248  -26.7500   12.2842 C.2       5 UNK         0.5034 
     61 O         -46.7713  -26.8139   13.4870 O.2       5 UNK        -0.5045 
     62 CA        -45.8842  -26.5260   11.2811 C.3       5 UNK         0.0224 
     63 CB        -45.5441  -27.8262   10.5335 C.3       5 UNK        -0.1978 
     64 N         -46.2162  -25.4677   10.3247 N.am      5 UNK        -0.4737 
     65 C         -46.2042  -24.1620   10.6344 C.2       4 UNK         0.5027 
     66 O         -45.8397  -23.7284   11.7271 O.2       4 UNK        -0.5211 
     67 CA        -46.6875  -23.1632    9.5656 C.3       4 UNK         0.0297 
     68 CB        -45.4878  -22.5703    8.8098 C.3       4 UNK        -0.1993 
     69 N         -47.6352  -23.7225    8.5988 N.am      4 UNK        -0.4486 
     70 C         -48.8390  -24.2309    8.8966 C.2       3 UNK         0.4961 
     71 O         -49.3004  -24.2825   10.0347 O.2       3 UNK        -0.5105 
     72 CA        -49.6397  -24.8411    7.7350 C.3       3 UNK         0.0299 
     73 CB        -50.5071  -23.7638    7.0651 C.3       3 UNK        -0.1972 
     74 N         -48.8142  -25.5102    6.7206 N.am      3 UNK        -0.4305 
     75 C         -47.9158  -26.4783    6.9507 C.2       2 UNK         0.5006 
     76 O         -47.6623  -26.9176    8.0737 O.2       2 UNK        -0.5106 
     77 CA        -47.1980  -27.0539    5.7164 C.3       2 UNK         0.0296 
     78 CB        -45.9498  -27.8708    6.0999 C.3       2 UNK        -0.2002 
     79 N         -48.0866  -27.8961    4.9125 N.am      2 UNK        -0.4032 
     80 C         -49.0832  -27.4593    4.1268 C.2       1 UNK         0.5000 
     81 O         -49.3631  -26.2666    3.9850 O.2       1 UNK        -0.5238 
     82 H82       -46.2313  -30.5974    1.7804 H         1 UNK         0.0889 
     83 H83       -47.4217  -31.0261    0.5487 H         1 UNK         0.0889 
     84 H84       -47.6011  -31.6289    2.1973 H         1 UNK         0.0889 
     85 H85       -49.1843  -30.5303    3.3256 H         1 UNK         0.3028 
     86 H86       -50.2960  -28.0531    2.4697 H         1 UNK         0.0864 
     87 H87       -50.7640  -29.3026    5.2281 H         1 UNK         0.0720 
     88 H88       -51.4004  -30.0320    3.7949 H         1 UNK         0.0720 
     89 H89       -53.2051  -26.3246    5.7675 H         1 UNK         0.0814 
     90 H90       -51.4732  -26.4965    5.7218 H         1 UNK         0.0814 
     91 H91       -50.3714  -27.8631    7.3543 H         1 UNK         0.1469 
     92 H92       -52.6629  -30.2207   10.0994 H         1 UNK         0.1381 
     93 H93       -54.6109  -28.2276    6.8427 H         1 UNK         0.1206 
     94 H94       -55.7873  -29.9780    8.1479 H         1 UNK         0.0813 
     95 H95       -54.9379  -30.8519    9.3980 H         1 UNK         0.0813 
     96 H96       -56.8251  -30.9550   10.7565 H         1 UNK         0.0638 
     97 H97       -57.7527  -29.6589   11.4369 H         1 UNK         0.0638 
     98 H98       -56.6632  -30.9569   13.1964 H         1 UNK         0.0568 
     99 H99       -53.6587  -29.3794   13.4812 H         1 UNK         0.3450 
    100 H100      -52.6726  -30.7168   12.9455 H         1 UNK         0.3450 
    101 H101      -56.1665  -28.1177   12.9689 H         1 UNK         0.2987 
    102 H102      -57.0107  -27.0887   15.1636 H         1 UNK         0.0766 
    103 H103      -56.7940  -28.1502   17.3943 H         1 UNK         0.0798 
    104 H104      -56.0575  -26.5557   17.3992 H         1 UNK         0.0798 
    105 H105      -55.0430  -27.9942   17.3294 H         1 UNK         0.0798 
    106 H106      -54.2150  -26.4729   15.5745 H         1 UNK         0.3198 
    107 H107      -52.9977  -25.8649   13.0130 H         1 UNK         0.0843 
    108 H108      -54.8174  -23.4492   12.5602 H         1 UNK         0.0831 
    109 H109      -54.3400  -24.6405   11.3613 H         1 UNK         0.0831 
    110 H110      -53.1333  -23.5660   12.0466 H         1 UNK         0.0831 
    111 H111      -52.2188  -24.8675   14.8024 H         1 UNK         0.3133 
    112 H112      -52.4535  -22.3021   16.3945 H         1 UNK         0.0566 
    113 H113      -54.4181  -23.8563   18.1600 H         1 UNK         0.0814 
    114 H114      -54.5647  -22.1778   17.6621 H         1 UNK         0.0814 
    115 H115      -53.2686  -22.6531   18.7441 H         1 UNK         0.0814 
    116 H116      -50.9235  -23.7485   16.9967 H         1 UNK         0.3091 
    117 H117      -50.5028  -26.0876   18.8123 H         1 UNK         0.0702 
    118 H118      -49.7754  -28.1951   17.6414 H         1 UNK         0.0785 
    119 H119      -50.9092  -27.8534   16.3348 H         1 UNK         0.0785 
    120 H120      -51.5018  -28.1845   17.9577 H         1 UNK         0.0785 
    121 H121      -49.5668  -25.6743   16.0059 H         1 UNK         0.2998 
    122 H122      -47.2882  -23.2106   16.9844 H         1 UNK         0.0697 
    123 H123      -45.5112  -24.5326   15.8290 H         1 UNK         0.0825 
    124 H124      -46.4299  -26.0159   16.0857 H         1 UNK         0.0825 
    125 H125      -45.7787  -25.1319   17.4580 H         1 UNK         0.0825 
    126 H126      -47.6876  -24.5508   14.4886 H         1 UNK         0.3029 
    127 H127      -50.7759  -23.1083   13.5864 H         1 UNK         0.0897 
    128 H128      -48.0384  -22.2548   12.5070 H         1 UNK         0.0792 
    129 H129      -49.2840  -21.1660   13.0997 H         1 UNK         0.0792 
    130 H130      -49.5777  -22.1177   11.6552 H         1 UNK         0.0792 
    131 H131      -49.0667  -24.5327   11.9243 H         1 UNK         0.3086 
    132 H132      -49.2229  -27.7355   13.3726 H         1 UNK         0.0583 
    133 H133      -51.5581  -27.6398   12.3313 H         1 UNK         0.1020 
    134 H134      -50.8194  -27.0837   10.8502 H         1 UNK         0.1020 
    135 H135      -49.2988  -28.6718    9.3163 H         1 UNK         0.0694 
    136 H136      -49.7347  -30.3624    9.2500 H         1 UNK         0.0694 
    137 H137      -48.3824  -26.7421   10.7757 H         1 UNK         0.2989 
    138 H138      -44.9993  -26.2208   11.8448 H         1 UNK         0.1055 
    139 H139      -45.2244  -28.6013   11.2313 H         1 UNK         0.0806 
    140 H140      -44.7315  -27.6748    9.8229 H         1 UNK         0.0806 
    141 H141      -46.3994  -28.2203    9.9839 H         1 UNK         0.0806 
    142 H142      -46.5667  -25.7616    9.4188 H         1 UNK         0.3061 
    143 H143      -47.1967  -22.3512   10.0886 H         1 UNK         0.0734 
    144 H144      -44.9509  -23.3319    8.2427 H         1 UNK         0.0832 
    145 H145      -45.7999  -21.7896    8.1158 H         1 UNK         0.0832 
    146 H146      -44.7757  -22.1183    9.5020 H         1 UNK         0.0832 
    147 H147      -47.3433  -23.7377    7.6326 H         1 UNK         0.3156 
    148 H148      -50.3040  -25.5920    8.1651 H         1 UNK         0.0589 
    149 H149      -51.1575  -24.1879    6.3008 H         1 UNK         0.0808 
    150 H150      -49.8987  -22.9908    6.5941 H         1 UNK         0.0808 
    151 H151      -51.1503  -23.2717    7.7963 H         1 UNK         0.0808 
    152 H152      -49.0005  -25.2779    5.7499 H         1 UNK         0.3098 
    153 H153      -46.8685  -26.2120    5.1037 H         1 UNK         0.0720 
    154 H154      -45.2575  -27.2709    6.6924 H         1 UNK         0.0791 
    155 H155      -45.4087  -28.2080    5.2155 H         1 UNK         0.0791 
    156 H156      -46.2060  -28.7501    6.6927 H         1 UNK         0.0791 
    157 H157      -47.9325  -28.8919    4.9711 H         1 UNK         0.3028 
@<TRIPOS>BOND
     1    1    2 1    
     2    1   82 1    
     3    1   83 1    
     4    1   84 1    
     5    2    3 2    
     6    2    4 am   BACKBONE|DICT|INTERRES
     7    4    5 1    
     8    4   85 1    
     9    5    6 1    
    10    5   80 1    
    11    5   86 1    
    12    6    7 1    
    13    6   87 1    
    14    6   88 1    
    15    7    8 1    
    16    8    9 1    
    17    8   89 1    
    18    8   90 1    
    19    9   10 ar   
    20    9   14 ar   
    21   10   11 ar   
    22   10   91 1    
    23   11   12 ar   
    24   11   58 1    
    25   12   13 ar   
    26   12   92 1    
    27   13   14 ar   
    28   13   15 1    
    29   14   93 1    
    30   15   16 1    
    31   15   94 1    
    32   15   95 1    
    33   16   17 1    
    34   17   18 1    
    35   17   96 1    
    36   17   97 1    
    37   18   19 1    
    38   18   22 1    
    39   18   98 1    
    40   19   20 am   BACKBONE|DICT|INTERRES
    41   19   21 2    
    42   20   99 1    
    43   20  100 1    
    44   22   23 am   BACKBONE|DICT|INTERRES
    45   22  101 1    
    46   23   24 2    
    47   23   25 1    
    48   25   26 1    
    49   25   27 1    
    50   25  102 1    
    51   26  103 1    
    52   26  104 1    
    53   26  105 1    
    54   27   28 am   BACKBONE|DICT|INTERRES
    55   27  106 1    
    56   28   29 2    
    57   28   30 1    
    58   30   31 1    
    59   30   32 1    
    60   30  107 1    
    61   31  108 1    
    62   31  109 1    
    63   31  110 1    
    64   32   33 am   BACKBONE|DICT|INTERRES
    65   32  111 1    
    66   33   34 2    
    67   33   35 1    
    68   35   36 1    
    69   35   37 1    
    70   35  112 1    
    71   36  113 1    
    72   36  114 1    
    73   36  115 1    
    74   37   38 am   BACKBONE|DICT|INTERRES
    75   37  116 1    
    76   38   39 2    
    77   38   40 1    
    78   40   41 1    
    79   40   42 1    
    80   40  117 1    
    81   41  118 1    
    82   41  119 1    
    83   41  120 1    
    84   42   43 am   BACKBONE|DICT|INTERRES
    85   42  121 1    
    86   43   44 2    
    87   43   45 1    
    88   45   46 1    
    89   45   47 1    
    90   45  122 1    
    91   46  123 1    
    92   46  124 1    
    93   46  125 1    
    94   47   48 am   BACKBONE|DICT|INTERRES
    95   47  126 1    
    96   48   49 2    
    97   48   50 1    
    98   50   51 1    
    99   50   52 1    
   100   50  127 1    
   101   51  128 1    
   102   51  129 1    
   103   51  130 1    
   104   52   53 am   BACKBONE|DICT|INTERRES
   105   52  131 1    
   106   53   54 2    
   107   53   55 1    
   108   55   56 1    
   109   55   59 1    
   110   55  132 1    
   111   56   57 1    
   112   56  133 1    
   113   56  134 1    
   114   57   58 1    
   115   58  135 1    
   116   58  136 1    
   117   59   60 am   BACKBONE|DICT|INTERRES
   118   59  137 1    
   119   60   61 2    
   120   60   62 1    
   121   62   63 1    
   122   62   64 1    
   123   62  138 1    
   124   63  139 1    
   125   63  140 1    
   126   63  141 1    
   127   64   65 am   BACKBONE|DICT|INTERRES
   128   64  142 1    
   129   65   66 2    
   130   65   67 1    
   131   67   68 1    
   132   67   69 1    
   133   67  143 1    
   134   68  144 1    
   135   68  145 1    
   136   68  146 1    
   137   69   70 am   BACKBONE|DICT|INTERRES
   138   69  147 1    
   139   70   71 2    
   140   70   72 1    
   141   72   73 1    
   142   72   74 1    
   143   72  148 1    
   144   73  149 1    
   145   73  150 1    
   146   73  151 1    
   147   74   75 am   BACKBONE|DICT|INTERRES
   148   74  152 1    
   149   75   76 2    
   150   75   77 1    
   151   77   78 1    
   152   77   79 1    
   153   77  153 1    
   154   78  154 1    
   155   78  155 1    
   156   78  156 1    
   157   79   80 am   BACKBONE|DICT|INTERRES
   158   79  157 1    
   159   80   81 2    
@<TRIPOS>SUBSTRUCTURE
     1 UNK         1 GROUP             0       ****    0 ROOT    
