@<TRIPOS>MOLECULE
3R207
157   159    1
SMALL
USER_CHARGES


@<TRIPOS>ATOM
      1 CA        -47.5032  -28.6901    3.5477 C.3       0 UNK        -0.1975 
      2 C         -47.9520  -28.9397    4.9797 C.2       0 UNK         0.4852 
      3 O         -49.1337  -29.1869    5.2157 O.2       0 UNK        -0.5216 
      4 N         -47.0210  -28.8690    5.9354 N.am      1 UNK        -0.4461 
      5 CA        -47.2643  -29.0463    7.3633 C.3       1 UNK         0.0864 
      6 C6        -47.3406  -30.5434    7.7527 C.3       14 UNK        -0.0898 
      7 S7        -47.7832  -30.8175    9.5027 S.3       14 UNK        -0.2598 
      8 C8        -49.2625  -31.8689    9.3712 C.3       14 UNK         0.0286 
      9 C9        -50.5498  -31.0595    9.4187 C.ar      14 UNK        -0.0844 
     10 C10       -51.2618  -30.7671    8.2500 C.ar      14 UNK        -0.0881 
     11 C11       -52.4907  -30.1000    8.3193 C.ar      14 UNK        -0.0643 
     12 C12       -52.9993  -29.7218    9.5653 C.ar      14 UNK        -0.0930 
     13 C13       -52.2784  -29.9756   10.7342 C.ar      14 UNK        -0.0827 
     14 C14       -51.0558  -30.6464   10.6545 C.ar      14 UNK        -0.1249 
     15 C15       -52.8255  -29.5412   12.0840 C.3       14 UNK         0.0141 
     16 S16       -52.8187  -27.7306   12.2445 S.3       14 UNK        -0.2313 
     17 C17       -54.5910  -27.3439   12.0871 C.3       14 UNK        -0.0915 
     18 CA        -54.9589  -25.9541   12.6675 C.3       13 UNK         0.0968 
     19 C         -56.4674  -25.6519   12.4198 C.2       13 UNK         0.5732 
     20 N         -57.3214  -25.5969   13.4366 N.am      13 UNK        -0.7310 
     21 O         -56.8735  -25.4612   11.2762 O.2       13 UNK        -0.5035 
     22 N         -54.5322  -25.8104   14.0687 N.am      13 UNK        -0.4233 
     23 C         -54.4880  -24.6476   14.7350 C.2       13 UNK         0.4989 
     24 O         -54.6574  -23.5533   14.1929 O.2       13 UNK        -0.4996 
     25 CA        -54.2432  -24.7058   16.2620 C.3       12 UNK         0.0216 
     26 CB        -54.9090  -23.5295   17.0069 C.3       12 UNK        -0.1964 
     27 N         -54.6254  -25.9802   16.8872 N.am      12 UNK        -0.4276 
     28 C         -55.8191  -26.5945   16.8274 C.2       12 UNK         0.5020 
     29 O         -56.8077  -26.1070   16.2755 O.2       12 UNK        -0.5489 
     30 CA        -55.9165  -28.0057   17.4480 C.3       11 UNK         0.0294 
     31 CB        -56.9333  -28.8986   16.7049 C.3       11 UNK        -0.2019 
     32 N         -54.6209  -28.6916   17.5688 N.am      11 UNK        -0.4493 
     33 C         -53.7638  -28.9902   16.5806 C.2       11 UNK         0.4932 
     34 O         -53.9728  -28.7641   15.3881 O.2       11 UNK        -0.5029 
     35 CA        -52.4110  -29.5752   17.0224 C.3       10 UNK         0.0280 
     36 CB        -52.0166  -30.7888   16.1642 C.3       10 UNK        -0.1976 
     37 N         -51.3388  -28.5769   16.9672 N.am      10 UNK        -0.4242 
     38 C         -51.3086  -27.4097   17.6289 C.2       10 UNK         0.5072 
     39 O         -52.1992  -27.0248   18.3888 O.2       10 UNK        -0.5224 
     40 CA        -50.0823  -26.5057   17.3989 C.3       9 UNK         0.0343 
     41 CB        -48.9856  -26.8161   18.4302 C.3       9 UNK        -0.2003 
     42 N         -49.5185  -26.5894   16.0463 N.am      9 UNK        -0.4272 
     43 C         -50.1760  -26.2350   14.9340 C.2       9 UNK         0.4988 
     44 O         -51.3358  -25.8191   14.9396 O.2       9 UNK        -0.5108 
     45 CA        -49.4113  -26.3952   13.6059 C.3       8 UNK         0.0248 
     46 CB        -49.1668  -27.8824   13.2877 C.3       8 UNK        -0.2001 
     47 N         -50.1556  -25.7995   12.4967 N.am      8 UNK        -0.4140 
     48 C         -50.2864  -24.4865   12.2648 C.2       8 UNK         0.5028 
     49 O         -49.6602  -23.6180   12.8753 O.2       8 UNK        -0.5428 
     50 CA        -51.2879  -24.0946   11.1650 C.3       7 UNK         0.0264 
     51 CB        -51.0821  -22.6657   10.6283 C.3       7 UNK        -0.1988 
     52 N         -51.2185  -25.0508   10.0625 N.am      7 UNK        -0.4454 
     53 C         -52.2383  -25.4616    9.3024 C.2       7 UNK         0.5027 
     54 O         -53.3931  -25.0521    9.4317 O.2       7 UNK        -0.5083 
     55 CA        -51.8942  -26.4931    8.2034 C.3       6 UNK         0.0844 
     56 C56       -53.1451  -26.9909    7.4331 C.3       14 UNK        -0.0967 
     57 S57       -52.7306  -28.2914    6.2167 S.3       14 UNK        -0.2604 
     58 C58       -53.2871  -29.8094    7.0547 C.3       14 UNK         0.0134 
     59 N         -50.8775  -25.9712    7.2857 N.am      6 UNK        -0.4116 
     60 C         -49.5669  -25.8774    7.5311 C.2       5 UNK         0.5034 
     61 O         -49.0509  -26.1941    8.6059 O.2       5 UNK        -0.5045 
     62 CA        -48.6702  -25.3613    6.3932 C.3       5 UNK         0.0224 
     63 CB        -49.3272  -25.3949    4.9931 C.3       5 UNK        -0.1978 
     64 N         -48.1256  -24.0338    6.6906 N.am      5 UNK        -0.4737 
     65 C         -48.8023  -22.8863    6.8600 C.2       4 UNK         0.5027 
     66 O         -50.0285  -22.7978    6.7837 O.2       4 UNK        -0.5211 
     67 CA        -47.9582  -21.6169    7.1158 C.3       4 UNK         0.0297 
     68 CB        -48.7514  -20.4900    7.8133 C.3       4 UNK        -0.1993 
     69 N         -46.6885  -21.8920    7.8036 N.am      4 UNK        -0.4486 
     70 C         -46.5399  -22.3740    9.0448 C.2       3 UNK         0.4961 
     71 O         -47.4595  -22.5398    9.8467 O.2       3 UNK        -0.5105 
     72 CA        -45.1158  -22.7962    9.4440 C.3       3 UNK         0.0299 
     73 CB        -44.5628  -21.8915   10.5571 C.3       3 UNK        -0.1972 
     74 N         -45.1156  -24.1889    9.8967 N.am      3 UNK        -0.4305 
     75 C         -45.4479  -25.2345    9.1259 C.2       2 UNK         0.5006 
     76 O         -45.6217  -25.1418    7.9068 O.2       2 UNK        -0.5106 
     77 CA        -45.6242  -26.5925    9.8351 C.3       2 UNK         0.0296 
     78 CB        -46.2022  -26.4539   11.2591 C.3       2 UNK        -0.2002 
     79 N         -46.5172  -27.4556    9.0642 N.am      2 UNK        -0.4032 
     80 C         -46.1393  -28.2972    8.0963 C.2       1 UNK         0.5000 
     81 O         -44.9663  -28.4970    7.7658 O.2       1 UNK        -0.5238 
     82 H82       -48.0475  -27.8456    3.1259 H         1 UNK         0.0889 
     83 H83       -47.7059  -29.5672    2.9336 H         1 UNK         0.0889 
     84 H84       -46.4372  -28.4716    3.4861 H         1 UNK         0.0889 
     85 H85       -46.0586  -28.6519    5.7061 H         1 UNK         0.3028 
     86 H86       -48.2194  -28.5789    7.6120 H         1 UNK         0.0864 
     87 H87       -48.0726  -31.0436    7.1177 H         1 UNK         0.0720 
     88 H88       -46.3890  -31.0408    7.5564 H         1 UNK         0.0720 
     89 H89       -49.2559  -32.5718   10.2057 H         1 UNK         0.0814 
     90 H90       -49.2208  -32.4848    8.4718 H         1 UNK         0.0814 
     91 H91       -50.8709  -31.0711    7.2882 H         1 UNK         0.1469 
     92 H92       -53.9531  -29.2176    9.6286 H         1 UNK         0.1381 
     93 H93       -50.5002  -30.8627   11.5569 H         1 UNK         0.1206 
     94 H94       -53.8288  -29.9448   12.2233 H         1 UNK         0.0813 
     95 H95       -52.2216  -29.9557   12.8908 H         1 UNK         0.0813 
     96 H96       -54.8508  -27.3989   11.0284 H         1 UNK         0.0638 
     97 H97       -55.1694  -28.1182   12.5943 H         1 UNK         0.0638 
     98 H98       -54.4097  -25.2075   12.0921 H         1 UNK         0.0568 
     99 H99       -58.2906  -25.3975   13.2503 H         1 UNK         0.3450 
    100 H100      -57.0170  -25.7572   14.3932 H         1 UNK         0.3450 
    101 H101      -54.3408  -26.6726   14.5643 H         1 UNK         0.2987 
    102 H102      -53.1655  -24.6130   16.3997 H         1 UNK         0.0766 
    103 H103      -54.7103  -23.5745   18.0776 H         1 UNK         0.0798 
    104 H104      -54.5291  -22.5715   16.6498 H         1 UNK         0.0798 
    105 H105      -55.9904  -23.5243   16.8657 H         1 UNK         0.0798 
    106 H106      -53.8734  -26.4663   17.3682 H         1 UNK         0.3198 
    107 H107      -56.2829  -27.8604   18.4653 H         1 UNK         0.0843 
    108 H108      -57.9336  -28.4649   16.7370 H         1 UNK         0.0831 
    109 H109      -56.9976  -29.8888   17.1557 H         1 UNK         0.0831 
    110 H110      -56.6689  -29.0239   15.6543 H         1 UNK         0.0831 
    111 H111      -54.3172  -28.8713   18.5169 H         1 UNK         0.3133 
    112 H112      -52.4971  -29.9129   18.0573 H         1 UNK         0.0566 
    113 H113      -51.8292  -30.5067   15.1285 H         1 UNK         0.0814 
    114 H114      -52.8093  -31.5382   16.1596 H         1 UNK         0.0814 
    115 H115      -51.1176  -31.2716   16.5477 H         1 UNK         0.0814 
    116 H116      -50.5717  -28.7787   16.3440 H         1 UNK         0.3091 
    117 H117      -50.4096  -25.4751   17.5535 H         1 UNK         0.0702 
    118 H118      -49.3732  -26.7373   19.4471 H         1 UNK         0.0785 
    119 H119      -48.1537  -26.1161   18.3487 H         1 UNK         0.0785 
    120 H120      -48.5900  -27.8254   18.3097 H         1 UNK         0.0785 
    121 H121      -48.5667  -26.9184   15.9691 H         1 UNK         0.2998 
    122 H122      -48.4497  -25.8854   13.6930 H         1 UNK         0.0697 
    123 H123      -50.0915  -28.4597   13.3137 H         1 UNK         0.0825 
    124 H124      -48.4822  -28.3340   14.0062 H         1 UNK         0.0825 
    125 H125      -48.7255  -28.0135   12.2995 H         1 UNK         0.0825 
    126 H126      -50.7817  -26.4231   12.0054 H         1 UNK         0.3029 
    127 H127      -52.2762  -24.1488   11.6262 H         1 UNK         0.0897 
    128 H128      -51.8326  -22.4097    9.8804 H         1 UNK         0.0792 
    129 H129      -51.1560  -21.9286   11.4285 H         1 UNK         0.0792 
    130 H130      -50.1010  -22.5556   10.1672 H         1 UNK         0.0792 
    131 H131      -50.2954  -25.4214    9.8465 H         1 UNK         0.3086 
    132 H132      -51.4659  -27.3549    8.7200 H         1 UNK         0.0583 
    133 H133      -53.9029  -27.3657    8.1225 H         1 UNK         0.1020 
    134 H134      -53.6167  -26.1637    6.8993 H         1 UNK         0.1020 
    135 H135      -54.3517  -29.7289    7.2802 H         1 UNK         0.0694 
    136 H136      -53.1876  -30.6467    6.3624 H         1 UNK         0.0694 
    137 H137      -51.2153  -25.6607    6.3872 H         1 UNK         0.2989 
    138 H138      -47.8144  -26.0369    6.3643 H         1 UNK         0.1055 
    139 H139      -49.7184  -26.3873    4.7639 H         1 UNK         0.0806 
    140 H140      -48.5998  -25.1541    4.2178 H         1 UNK         0.0806 
    141 H141      -50.1511  -24.6873    4.8981 H         1 UNK         0.0806 
    142 H142      -47.1278  -24.0246    6.8734 H         1 UNK         0.3061 
    143 H143      -47.6842  -21.2481    6.1262 H         1 UNK         0.0734 
    144 H144      -49.6099  -20.1878    7.2123 H         1 UNK         0.0832 
    145 H145      -49.1338  -20.8006    8.7852 H         1 UNK         0.0832 
    146 H146      -48.1348  -19.6039    7.9627 H         1 UNK         0.0832 
    147 H147      -45.8596  -21.8010    7.2310 H         1 UNK         0.3156 
    148 H148      -44.4555  -22.7204    8.5774 H         1 UNK         0.0589 
    149 H149      -45.1762  -21.9378   11.4582 H         1 UNK         0.0808 
    150 H150      -43.5445  -22.1709   10.8283 H         1 UNK         0.0808 
    151 H151      -44.5376  -20.8498   10.2345 H         1 UNK         0.0808 
    152 H152      -45.0169  -24.3381   10.8898 H         1 UNK         0.3098 
    153 H153      -44.6388  -27.0572    9.9067 H         1 UNK         0.0720 
    154 H154      -46.3888  -27.4327   11.7014 H         1 UNK         0.0791 
    155 H155      -45.5132  -25.9379   11.9282 H         1 UNK         0.0791 
    156 H156      -47.1451  -25.9038   11.2603 H         1 UNK         0.0791 
    157 H157      -47.5082  -27.2574    9.1662 H         1 UNK         0.3028 
@<TRIPOS>BOND
     1    1    2 1    
     2    1   82 1    
     3    1   83 1    
     4    1   84 1    
     5    2    3 2    
     6    2    4 am   BACKBONE|DICT|INTERRES
     7    4    5 1    
     8    4   85 1    
     9    5    6 1    
    10    5   80 1    
    11    5   86 1    
    12    6    7 1    
    13    6   87 1    
    14    6   88 1    
    15    7    8 1    
    16    8    9 1    
    17    8   89 1    
    18    8   90 1    
    19    9   10 ar   
    20    9   14 ar   
    21   10   11 ar   
    22   10   91 1    
    23   11   12 ar   
    24   11   58 1    
    25   12   13 ar   
    26   12   92 1    
    27   13   14 ar   
    28   13   15 1    
    29   14   93 1    
    30   15   16 1    
    31   15   94 1    
    32   15   95 1    
    33   16   17 1    
    34   17   18 1    
    35   17   96 1    
    36   17   97 1    
    37   18   19 1    
    38   18   22 1    
    39   18   98 1    
    40   19   20 am   BACKBONE|DICT|INTERRES
    41   19   21 2    
    42   20   99 1    
    43   20  100 1    
    44   22   23 am   BACKBONE|DICT|INTERRES
    45   22  101 1    
    46   23   24 2    
    47   23   25 1    
    48   25   26 1    
    49   25   27 1    
    50   25  102 1    
    51   26  103 1    
    52   26  104 1    
    53   26  105 1    
    54   27   28 am   BACKBONE|DICT|INTERRES
    55   27  106 1    
    56   28   29 2    
    57   28   30 1    
    58   30   31 1    
    59   30   32 1    
    60   30  107 1    
    61   31  108 1    
    62   31  109 1    
    63   31  110 1    
    64   32   33 am   BACKBONE|DICT|INTERRES
    65   32  111 1    
    66   33   34 2    
    67   33   35 1    
    68   35   36 1    
    69   35   37 1    
    70   35  112 1    
    71   36  113 1    
    72   36  114 1    
    73   36  115 1    
    74   37   38 am   BACKBONE|DICT|INTERRES
    75   37  116 1    
    76   38   39 2    
    77   38   40 1    
    78   40   41 1    
    79   40   42 1    
    80   40  117 1    
    81   41  118 1    
    82   41  119 1    
    83   41  120 1    
    84   42   43 am   BACKBONE|DICT|INTERRES
    85   42  121 1    
    86   43   44 2    
    87   43   45 1    
    88   45   46 1    
    89   45   47 1    
    90   45  122 1    
    91   46  123 1    
    92   46  124 1    
    93   46  125 1    
    94   47   48 am   BACKBONE|DICT|INTERRES
    95   47  126 1    
    96   48   49 2    
    97   48   50 1    
    98   50   51 1    
    99   50   52 1    
   100   50  127 1    
   101   51  128 1    
   102   51  129 1    
   103   51  130 1    
   104   52   53 am   BACKBONE|DICT|INTERRES
   105   52  131 1    
   106   53   54 2    
   107   53   55 1    
   108   55   56 1    
   109   55   59 1    
   110   55  132 1    
   111   56   57 1    
   112   56  133 1    
   113   56  134 1    
   114   57   58 1    
   115   58  135 1    
   116   58  136 1    
   117   59   60 am   BACKBONE|DICT|INTERRES
   118   59  137 1    
   119   60   61 2    
   120   60   62 1    
   121   62   63 1    
   122   62   64 1    
   123   62  138 1    
   124   63  139 1    
   125   63  140 1    
   126   63  141 1    
   127   64   65 am   BACKBONE|DICT|INTERRES
   128   64  142 1    
   129   65   66 2    
   130   65   67 1    
   131   67   68 1    
   132   67   69 1    
   133   67  143 1    
   134   68  144 1    
   135   68  145 1    
   136   68  146 1    
   137   69   70 am   BACKBONE|DICT|INTERRES
   138   69  147 1    
   139   70   71 2    
   140   70   72 1    
   141   72   73 1    
   142   72   74 1    
   143   72  148 1    
   144   73  149 1    
   145   73  150 1    
   146   73  151 1    
   147   74   75 am   BACKBONE|DICT|INTERRES
   148   74  152 1    
   149   75   76 2    
   150   75   77 1    
   151   77   78 1    
   152   77   79 1    
   153   77  153 1    
   154   78  154 1    
   155   78  155 1    
   156   78  156 1    
   157   79   80 am   BACKBONE|DICT|INTERRES
   158   79  157 1    
   159   80   81 2    
@<TRIPOS>SUBSTRUCTURE
     1 UNK         1 GROUP             0       ****    0 ROOT    
