@<TRIPOS>MOLECULE
3R207
157   159    1
SMALL
USER_CHARGES


@<TRIPOS>ATOM
      1 CA        -48.5444  -23.8518    2.5740 C.3       0 UNK        -0.1975 
      2 C         -48.5856  -23.5187    4.0581 C.2       0 UNK         0.4852 
      3 O         -47.7329  -22.7698    4.5391 O.2       0 UNK        -0.5216 
      4 N         -49.5703  -24.0703    4.7833 N.am      1 UNK        -0.4461 
      5 CA        -49.7827  -23.8942    6.2256 C.3       1 UNK         0.0864 
      6 C6        -51.0449  -24.6575    6.6999 C.3       14 UNK        -0.0898 
      7 S7        -51.7618  -23.9635    8.2267 S.3       14 UNK        -0.2598 
      8 C8        -53.2759  -24.9661    8.3896 C.3       14 UNK         0.0286 
      9 C9        -53.0979  -26.1518    9.3309 C.ar      14 UNK        -0.0844 
     10 C10       -52.3764  -27.2818    8.9305 C.ar      14 UNK        -0.0881 
     11 C11       -52.2445  -28.3818    9.7835 C.ar      14 UNK        -0.0643 
     12 C12       -52.8543  -28.3532   11.0405 C.ar      14 UNK        -0.0930 
     13 C13       -53.5866  -27.2368   11.4513 C.ar      14 UNK        -0.0827 
     14 C14       -53.6981  -26.1371   10.5945 C.ar      14 UNK        -0.1249 
     15 C15       -54.2565  -27.2288   12.8202 C.3       14 UNK         0.0141 
     16 S16       -56.0758  -27.1839   12.7171 S.3       14 UNK        -0.2313 
     17 C17       -56.4672  -28.7315   11.8302 C.3       14 UNK        -0.0915 
     18 CA        -57.0973  -29.8237   12.7441 C.3       13 UNK         0.0968 
     19 C         -57.6898  -31.0172   11.9315 C.2       13 UNK         0.5732 
     20 N         -57.6746  -32.2417   12.4458 N.am      13 UNK        -0.7310 
     21 O         -58.2079  -30.8322   10.8324 O.2       13 UNK        -0.5035 
     22 N         -56.2278  -30.2234   13.8664 N.am      13 UNK        -0.4233 
     23 C         -55.0261  -30.8069   13.7835 C.2       13 UNK         0.4989 
     24 O         -54.4604  -31.0553   12.7179 O.2       13 UNK        -0.4996 
     25 CA        -54.3438  -31.1896   15.1161 C.3       12 UNK         0.0216 
     26 CB        -52.8906  -31.6631   14.9154 C.3       12 UNK        -0.1964 
     27 N         -54.3474  -30.1234   16.1244 N.am      12 UNK        -0.4276 
     28 C         -55.3967  -29.6962   16.8408 C.2       12 UNK         0.5020 
     29 O         -56.5421  -30.1218   16.6819 O.2       12 UNK        -0.5489 
     30 CA        -55.1345  -28.6313   17.9239 C.3       11 UNK         0.0294 
     31 CB        -55.2999  -29.2422   19.3257 C.3       11 UNK        -0.2019 
     32 N         -53.8066  -28.0141   17.8279 N.am      11 UNK        -0.4493 
     33 C         -53.4829  -27.0550   16.9523 C.2       11 UNK         0.4932 
     34 O         -54.2752  -26.5725   16.1422 O.2       11 UNK        -0.5029 
     35 CA        -52.0111  -26.6167   16.9493 C.3       10 UNK         0.0280 
     36 CB        -51.1884  -27.5319   16.0252 C.3       10 UNK        -0.1976 
     37 N         -51.8802  -25.2325   16.4960 N.am      10 UNK        -0.4242 
     38 C         -52.0820  -24.1569   17.2723 C.2       10 UNK         0.5072 
     39 O         -52.3283  -24.2251   18.4779 O.2       10 UNK        -0.5224 
     40 CA        -51.9807  -22.7646   16.6153 C.3       9 UNK         0.0343 
     41 CB        -50.5889  -22.1575   16.8561 C.3       9 UNK        -0.2003 
     42 N         -52.2498  -22.7823   15.1772 N.am      9 UNK        -0.4272 
     43 C         -53.4527  -22.9974   14.6279 C.2       9 UNK         0.4988 
     44 O         -54.4973  -23.0411   15.2786 O.2       9 UNK        -0.5108 
     45 CA        -53.5160  -23.2051   13.1002 C.3       8 UNK         0.0248 
     46 CB        -54.1670  -21.9907   12.4177 C.3       8 UNK        -0.2001 
     47 N         -52.2411  -23.4968   12.4266 N.am      8 UNK        -0.4140 
     48 C         -51.4005  -24.5034   12.7040 C.2       8 UNK         0.5028 
     49 O         -51.5279  -25.2728   13.6589 O.2       8 UNK        -0.5428 
     50 CA        -50.1846  -24.6417   11.7885 C.3       7 UNK         0.0264 
     51 CB        -49.1294  -23.5615   12.0963 C.3       7 UNK        -0.1988 
     52 N         -49.6086  -25.9704   11.9710 N.am      7 UNK        -0.4454 
     53 C         -48.8634  -26.6000   11.0587 C.2       7 UNK         0.5027 
     54 O         -48.5892  -26.1124    9.9617 O.2       7 UNK        -0.5083 
     55 CA        -48.3155  -27.9947   11.4354 C.3       6 UNK         0.0844 
     56 C56       -49.3087  -29.1424   11.1197 C.3       14 UNK        -0.0967 
     57 S57       -49.6711  -29.3655    9.3391 S.3       14 UNK        -0.2604 
     58 C58       -51.4754  -29.6174    9.3355 C.3       14 UNK         0.0134 
     59 N         -47.0174  -28.2108   10.7938 N.am      6 UNK        -0.4116 
     60 C         -45.8837  -27.5841   11.1293 C.2       5 UNK         0.5034 
     61 O         -45.7617  -26.8972   12.1447 O.2       5 UNK        -0.5045 
     62 CA        -44.6860  -27.7074   10.1713 C.3       5 UNK         0.0224 
     63 CB        -43.7940  -28.9128   10.5288 C.3       5 UNK        -0.1978 
     64 N         -45.0465  -27.6821    8.7448 N.am      5 UNK        -0.4737 
     65 C         -45.6535  -28.6217    8.0034 C.2       4 UNK         0.5027 
     66 O         -46.0065  -29.7107    8.4557 O.2       4 UNK        -0.5211 
     67 CA        -45.9509  -28.2950    6.5248 C.3       4 UNK         0.0297 
     68 CB        -47.3997  -28.6650    6.1588 C.3       4 UNK        -0.1993 
     69 N         -45.7305  -26.8821    6.2039 N.am      4 UNK        -0.4486 
     70 C         -44.5727  -26.3539    5.7789 C.2       3 UNK         0.4961 
     71 O         -43.5710  -27.0244    5.5288 O.2       3 UNK        -0.5105 
     72 CA        -44.4968  -24.8183    5.6352 C.3       3 UNK         0.0299 
     73 CB        -44.6932  -24.4102    4.1672 C.3       3 UNK        -0.1972 
     74 N         -45.4610  -24.0962    6.4728 N.am      3 UNK        -0.4305 
     75 C         -45.4878  -24.1392    7.8146 C.2       2 UNK         0.5006 
     76 O         -44.6178  -24.6928    8.4880 O.2       2 UNK        -0.5106 
     77 CA        -46.6991  -23.5167    8.5381 C.3       2 UNK         0.0296 
     78 CB        -46.3207  -22.1555    9.1437 C.3       2 UNK        -0.2002 
     79 N         -47.9169  -23.3613    7.7311 N.am      2 UNK        -0.4032 
     80 C         -48.5312  -24.3198    7.0198 C.2       1 UNK         0.5000 
     81 O         -48.1157  -25.4749    6.9059 O.2       1 UNK        -0.5238 
     82 H82       -47.6150  -24.3635    2.3271 H         1 UNK         0.0889 
     83 H83       -48.5960  -22.9370    1.9842 H         1 UNK         0.0889 
     84 H84       -49.3737  -24.4932    2.2764 H         1 UNK         0.0889 
     85 H85       -50.2163  -24.6972    4.3260 H         1 UNK         0.3028 
     86 H86       -49.9495  -22.8255    6.3769 H         1 UNK         0.0864 
     87 H87       -50.8353  -25.7193    6.8343 H         1 UNK         0.0720 
     88 H88       -51.8203  -24.5986    5.9342 H         1 UNK         0.0720 
     89 H89       -53.6052  -25.3196    7.4116 H         1 UNK         0.0814 
     90 H90       -54.0741  -24.3171    8.7532 H         1 UNK         0.0814 
     91 H91       -51.9189  -27.3150    7.9528 H         1 UNK         0.1469 
     92 H92       -52.7710  -29.2095   11.6958 H         1 UNK         0.1381 
     93 H93       -54.2713  -25.2762   10.9079 H         1 UNK         0.1206 
     94 H94       -53.9191  -26.3583   13.3813 H         1 UNK         0.0813 
     95 H95       -53.9537  -28.0941   13.4099 H         1 UNK         0.0813 
     96 H96       -57.1624  -28.4548   11.0361 H         1 UNK         0.0638 
     97 H97       -55.5834  -29.1159   11.3219 H         1 UNK         0.0638 
     98 H98       -57.9701  -29.3722   13.2163 H         1 UNK         0.0568 
     99 H99       -57.2739  -32.4110   13.3538 H         1 UNK         0.3450 
    100 H100      -58.0717  -33.0025   11.9176 H         1 UNK         0.3450 
    101 H101      -56.6082  -30.0834   14.7990 H         1 UNK         0.2987 
    102 H102      -54.9102  -32.0310   15.5207 H         1 UNK         0.0766 
    103 H103      -52.4428  -31.9858   15.8555 H         1 UNK         0.0798 
    104 H104      -52.2640  -30.8745   14.4965 H         1 UNK         0.0798 
    105 H105      -52.8444  -32.5132   14.2332 H         1 UNK         0.0798 
    106 H106      -53.4574  -29.6890   16.3141 H         1 UNK         0.3198 
    107 H107      -55.8921  -27.8538   17.8008 H         1 UNK         0.0843 
    108 H108      -54.5729  -30.0338   19.5116 H         1 UNK         0.0831 
    109 H109      -56.2927  -29.6781   19.4470 H         1 UNK         0.0831 
    110 H110      -55.1840  -28.4879   20.1043 H         1 UNK         0.0831 
    111 H111      -53.0989  -28.3564   18.4635 H         1 UNK         0.3133 
    112 H112      -51.6103  -26.6962   17.9622 H         1 UNK         0.0566 
    113 H113      -50.1535  -27.1968   15.9537 H         1 UNK         0.0814 
    114 H114      -51.1702  -28.5558   16.3998 H         1 UNK         0.0814 
    115 H115      -51.5998  -27.5621   15.0152 H         1 UNK         0.0814 
    116 H116      -51.7500  -25.1070   15.4934 H         1 UNK         0.3091 
    117 H117      -52.7221  -22.1207   17.0933 H         1 UNK         0.0702 
    118 H118      -50.3670  -22.1025   17.9229 H         1 UNK         0.0785 
    119 H119      -49.8024  -22.7527   16.3900 H         1 UNK         0.0785 
    120 H120      -50.5237  -21.1436   16.4607 H         1 UNK         0.0785 
    121 H121      -51.4486  -22.7596   14.5643 H         1 UNK         0.2998 
    122 H122      -54.1667  -24.0653   12.9393 H         1 UNK         0.0697 
    123 H123      -53.5488  -21.0969   12.5113 H         1 UNK         0.0825 
    124 H124      -55.1370  -21.7635   12.8624 H         1 UNK         0.0825 
    125 H125      -54.3374  -22.1743   11.3566 H         1 UNK         0.0825 
    126 H126      -52.0242  -22.9100   11.6336 H         1 UNK         0.3029 
    127 H127      -50.5267  -24.5426   10.7574 H         1 UNK         0.0897 
    128 H128      -48.2661  -23.6512   11.4371 H         1 UNK         0.0792 
    129 H129      -48.7713  -23.6316   13.1243 H         1 UNK         0.0792 
    130 H130      -49.5346  -22.5588   11.9563 H         1 UNK         0.0792 
    131 H131      -49.8752  -26.4213   12.8377 H         1 UNK         0.3086 
    132 H132      -48.1484  -27.9989   12.5149 H         1 UNK         0.0583 
    133 H133      -48.9035  -30.0835   11.4945 H         1 UNK         0.1020 
    134 H134      -50.2336  -28.9903   11.6758 H         1 UNK         0.1020 
    135 H135      -51.7882  -29.8860    8.3255 H         1 UNK         0.0694 
    136 H136      -51.7178  -30.4748    9.9656 H         1 UNK         0.0694 
    137 H137      -47.0252  -28.7477    9.9336 H         1 UNK         0.2989 
    138 H138      -44.0863  -26.8082   10.3248 H         1 UNK         0.1055 
    139 H139      -43.4278  -28.8311   11.5530 H         1 UNK         0.0806 
    140 H140      -42.9225  -28.9691    9.8767 H         1 UNK         0.0806 
    141 H141      -44.3311  -29.8588   10.4559 H         1 UNK         0.0806 
    142 H142      -44.8546  -26.7945    8.2928 H         1 UNK         0.3061 
    143 H143      -45.2842  -28.9123    5.9193 H         1 UNK         0.0734 
    144 H144      -47.6246  -28.4201    5.1208 H         1 UNK         0.0832 
    145 H145      -47.5764  -29.7340    6.2846 H         1 UNK         0.0832 
    146 H146      -48.1195  -28.1432    6.7910 H         1 UNK         0.0832 
    147 H147      -46.5146  -26.2623    6.4099 H         1 UNK         0.3156 
    148 H148      -43.4965  -24.5088    5.9447 H         1 UNK         0.0589 
    149 H149      -43.9386  -24.8728    3.5296 H         1 UNK         0.0808 
    150 H150      -45.6689  -24.7202    3.7932 H         1 UNK         0.0808 
    151 H151      -44.6103  -23.3309    4.0373 H         1 UNK         0.0808 
    152 H152      -46.2158  -23.6219    5.9902 H         1 UNK         0.3098 
    153 H153      -46.9466  -24.1917    9.3581 H         1 UNK         0.0720 
    154 H154      -45.4357  -22.2412    9.7762 H         1 UNK         0.0791 
    155 H155      -47.1227  -21.7607    9.7677 H         1 UNK         0.0791 
    156 H156      -46.0991  -21.4184    8.3708 H         1 UNK         0.0791 
    157 H157      -48.3198  -22.4357    7.7208 H         1 UNK         0.3028 
@<TRIPOS>BOND
     1    1    2 1    
     2    1   82 1    
     3    1   83 1    
     4    1   84 1    
     5    2    3 2    
     6    2    4 am   BACKBONE|DICT|INTERRES
     7    4    5 1    
     8    4   85 1    
     9    5    6 1    
    10    5   80 1    
    11    5   86 1    
    12    6    7 1    
    13    6   87 1    
    14    6   88 1    
    15    7    8 1    
    16    8    9 1    
    17    8   89 1    
    18    8   90 1    
    19    9   10 ar   
    20    9   14 ar   
    21   10   11 ar   
    22   10   91 1    
    23   11   12 ar   
    24   11   58 1    
    25   12   13 ar   
    26   12   92 1    
    27   13   14 ar   
    28   13   15 1    
    29   14   93 1    
    30   15   16 1    
    31   15   94 1    
    32   15   95 1    
    33   16   17 1    
    34   17   18 1    
    35   17   96 1    
    36   17   97 1    
    37   18   19 1    
    38   18   22 1    
    39   18   98 1    
    40   19   20 am   BACKBONE|DICT|INTERRES
    41   19   21 2    
    42   20   99 1    
    43   20  100 1    
    44   22   23 am   BACKBONE|DICT|INTERRES
    45   22  101 1    
    46   23   24 2    
    47   23   25 1    
    48   25   26 1    
    49   25   27 1    
    50   25  102 1    
    51   26  103 1    
    52   26  104 1    
    53   26  105 1    
    54   27   28 am   BACKBONE|DICT|INTERRES
    55   27  106 1    
    56   28   29 2    
    57   28   30 1    
    58   30   31 1    
    59   30   32 1    
    60   30  107 1    
    61   31  108 1    
    62   31  109 1    
    63   31  110 1    
    64   32   33 am   BACKBONE|DICT|INTERRES
    65   32  111 1    
    66   33   34 2    
    67   33   35 1    
    68   35   36 1    
    69   35   37 1    
    70   35  112 1    
    71   36  113 1    
    72   36  114 1    
    73   36  115 1    
    74   37   38 am   BACKBONE|DICT|INTERRES
    75   37  116 1    
    76   38   39 2    
    77   38   40 1    
    78   40   41 1    
    79   40   42 1    
    80   40  117 1    
    81   41  118 1    
    82   41  119 1    
    83   41  120 1    
    84   42   43 am   BACKBONE|DICT|INTERRES
    85   42  121 1    
    86   43   44 2    
    87   43   45 1    
    88   45   46 1    
    89   45   47 1    
    90   45  122 1    
    91   46  123 1    
    92   46  124 1    
    93   46  125 1    
    94   47   48 am   BACKBONE|DICT|INTERRES
    95   47  126 1    
    96   48   49 2    
    97   48   50 1    
    98   50   51 1    
    99   50   52 1    
   100   50  127 1    
   101   51  128 1    
   102   51  129 1    
   103   51  130 1    
   104   52   53 am   BACKBONE|DICT|INTERRES
   105   52  131 1    
   106   53   54 2    
   107   53   55 1    
   108   55   56 1    
   109   55   59 1    
   110   55  132 1    
   111   56   57 1    
   112   56  133 1    
   113   56  134 1    
   114   57   58 1    
   115   58  135 1    
   116   58  136 1    
   117   59   60 am   BACKBONE|DICT|INTERRES
   118   59  137 1    
   119   60   61 2    
   120   60   62 1    
   121   62   63 1    
   122   62   64 1    
   123   62  138 1    
   124   63  139 1    
   125   63  140 1    
   126   63  141 1    
   127   64   65 am   BACKBONE|DICT|INTERRES
   128   64  142 1    
   129   65   66 2    
   130   65   67 1    
   131   67   68 1    
   132   67   69 1    
   133   67  143 1    
   134   68  144 1    
   135   68  145 1    
   136   68  146 1    
   137   69   70 am   BACKBONE|DICT|INTERRES
   138   69  147 1    
   139   70   71 2    
   140   70   72 1    
   141   72   73 1    
   142   72   74 1    
   143   72  148 1    
   144   73  149 1    
   145   73  150 1    
   146   73  151 1    
   147   74   75 am   BACKBONE|DICT|INTERRES
   148   74  152 1    
   149   75   76 2    
   150   75   77 1    
   151   77   78 1    
   152   77   79 1    
   153   77  153 1    
   154   78  154 1    
   155   78  155 1    
   156   78  156 1    
   157   79   80 am   BACKBONE|DICT|INTERRES
   158   79  157 1    
   159   80   81 2    
@<TRIPOS>SUBSTRUCTURE
     1 UNK         1 GROUP             0       ****    0 ROOT    
