@<TRIPOS>MOLECULE
3R207
157   159    1
SMALL
USER_CHARGES


@<TRIPOS>ATOM
      1 CA        -47.9439  -30.5870    2.2589 C.3       0 UNK        -0.1975 
      2 C         -48.6888  -30.0007    3.4492 C.2       0 UNK         0.4852 
      3 O         -48.7692  -30.6477    4.4936 O.2       0 UNK        -0.5216 
      4 N         -49.2301  -28.7827    3.2931 N.am      1 UNK        -0.4461 
      5 CA        -49.9800  -28.0260    4.3081 C.3       1 UNK         0.0864 
      6 C6        -51.3225  -28.7181    4.6990 C.3       14 UNK        -0.0898 
      7 S7        -52.7019  -27.5333    4.8285 S.3       14 UNK        -0.2598 
      8 C8        -53.8359  -28.4043    5.9589 C.3       14 UNK         0.0286 
      9 C9        -53.4457  -28.2177    7.4184 C.ar      14 UNK        -0.0844 
     10 C10       -53.5525  -26.9548    8.0081 C.ar      14 UNK        -0.0881 
     11 C11       -53.1876  -26.7613    9.3419 C.ar      14 UNK        -0.0643 
     12 C12       -52.7429  -27.8496   10.0964 C.ar      14 UNK        -0.0930 
     13 C13       -52.6409  -29.1225    9.5263 C.ar      14 UNK        -0.0827 
     14 C14       -52.9909  -29.2982    8.1826 C.ar      14 UNK        -0.1249 
     15 C15       -52.1072  -30.2999   10.3387 C.3       14 UNK         0.0141 
     16 S16       -52.7799  -30.3907   12.0333 S.3       14 UNK        -0.2313 
     17 C17       -54.5206  -30.8249   11.6961 C.3       14 UNK        -0.0915 
     18 CA        -55.3450  -31.1270   12.9763 C.3       13 UNK         0.0968 
     19 C         -54.9357  -32.4754   13.6410 C.2       13 UNK         0.5732 
     20 N         -54.4415  -32.4896   14.8735 N.am      13 UNK        -0.7310 
     21 O         -55.0848  -33.5307   13.0291 O.2       13 UNK        -0.5035 
     22 N         -55.3807  -29.9624   13.8749 N.am      13 UNK        -0.4233 
     23 C         -56.2954  -29.7480   14.8299 C.2       13 UNK         0.4989 
     24 O         -57.2265  -30.5166   15.0731 O.2       13 UNK        -0.4996 
     25 CA        -56.1570  -28.4541   15.6546 C.3       12 UNK         0.0216 
     26 CB        -55.4267  -28.7402   16.9762 C.3       12 UNK        -0.1964 
     27 N         -55.4737  -27.3704   14.9358 N.am      12 UNK        -0.4276 
     28 C         -56.0020  -26.7204   13.8853 C.2       12 UNK         0.5020 
     29 O         -57.1351  -26.9480   13.4567 O.2       12 UNK        -0.5489 
     30 CA        -55.1227  -25.6759   13.1640 C.3       11 UNK         0.0294 
     31 CB        -55.9515  -24.5968   12.4353 C.3       11 UNK        -0.2019 
     32 N         -54.0904  -25.0552   14.0032 N.am      11 UNK        -0.4493 
     33 C         -54.2767  -24.3507   15.1303 C.2       11 UNK         0.4932 
     34 O         -55.3843  -24.0490   15.5778 O.2       11 UNK        -0.5029 
     35 CA        -53.0012  -23.9487   15.9013 C.3       10 UNK         0.0280 
     36 CB        -53.2732  -23.6776   17.3955 C.3       10 UNK        -0.1976 
     37 N         -51.8984  -24.9091   15.7547 N.am      10 UNK        -0.4242 
     38 C         -51.9232  -26.2262   16.0183 C.2       10 UNK         0.5072 
     39 O         -52.9245  -26.8194   16.4200 O.2       10 UNK        -0.5224 
     40 CA        -50.6520  -27.0470   15.7352 C.3       9 UNK         0.0343 
     41 CB        -50.9057  -28.0208   14.5705 C.3       9 UNK        -0.2003 
     42 N         -49.4777  -26.2286   15.4250 N.am      9 UNK        -0.4272 
     43 C         -48.7648  -25.5290   16.3180 C.2       9 UNK         0.4988 
     44 O         -48.9787  -25.5465   17.5305 O.2       9 UNK        -0.5108 
     45 CA        -47.6457  -24.6299   15.7609 C.3       8 UNK         0.0248 
     46 CB        -46.3580  -25.4398   15.5440 C.3       8 UNK        -0.2001 
     47 N         -48.0143  -23.9352   14.5202 N.am      8 UNK        -0.4140 
     48 C         -49.0185  -23.0504   14.4161 C.2       8 UNK         0.5028 
     49 O         -49.7387  -22.7201   15.3582 O.2       8 UNK        -0.5428 
     50 CA        -49.3016  -22.4612   13.0243 C.3       7 UNK         0.0264 
     51 CB        -48.2691  -21.3820   12.6620 C.3       7 UNK        -0.1988 
     52 N         -49.3470  -23.4793   11.9745 N.am      7 UNK        -0.4454 
     53 C         -50.2397  -24.4802   11.9216 C.2       7 UNK         0.5027 
     54 O         -51.1603  -24.6278   12.7304 O.2       7 UNK        -0.5083 
     55 CA        -50.0288  -25.5375   10.8169 C.3       6 UNK         0.0844 
     56 C56       -50.4853  -25.0887    9.4015 C.3       14 UNK        -0.0967 
     57 S57       -52.0778  -24.2042    9.2414 S.3       14 UNK        -0.2604 
     58 C58       -53.2638  -25.3768    9.9672 C.3       14 UNK         0.0134 
     59 N         -48.6420  -26.0027   10.7776 N.am      6 UNK        -0.4116 
     60 C         -47.9616  -26.5628   11.7855 C.2       5 UNK         0.5034 
     61 O         -48.4447  -26.8264   12.8834 O.2       5 UNK        -0.5045 
     62 CA        -46.4681  -26.8212   11.5427 C.3       5 UNK         0.0224 
     63 CB        -46.2548  -28.1496   10.8009 C.3       5 UNK        -0.1978 
     64 N         -45.8421  -25.7239   10.8006 N.am      5 UNK        -0.4737 
     65 C         -45.6290  -24.5011   11.3061 C.2       4 UNK         0.5027 
     66 O         -45.9005  -24.1846   12.4644 O.2       4 UNK        -0.5211 
     67 CA        -45.0487  -23.4477   10.3474 C.3       4 UNK         0.0297 
     68 CB        -43.5275  -23.6183   10.2110 C.3       4 UNK        -0.1993 
     69 N         -45.6714  -23.4782    9.0201 N.am      4 UNK        -0.4486 
     70 C         -46.9493  -23.1510    8.7822 C.2       3 UNK         0.4961 
     71 O         -47.7331  -22.7786    9.6553 O.2       3 UNK        -0.5105 
     72 CA        -47.4536  -23.2967    7.3329 C.3       3 UNK         0.0299 
     73 CB        -47.0455  -22.0697    6.5018 C.3       3 UNK        -0.1972 
     74 N         -47.0385  -24.5225    6.6334 N.am      3 UNK        -0.4305 
     75 C         -47.1097  -25.7744    7.1101 C.2       2 UNK         0.5006 
     76 O         -47.4487  -26.0524    8.2596 O.2       2 UNK        -0.5106 
     77 CA        -46.7406  -26.9012    6.1287 C.3       2 UNK         0.0296 
     78 CB        -46.2461  -28.1698    6.8552 C.3       2 UNK        -0.2002 
     79 N         -47.8373  -27.2373    5.2101 N.am      2 UNK        -0.4032 
     80 C         -49.0895  -27.6292    5.5135 C.2       1 UNK         0.5000 
     81 O         -49.5311  -27.7062    6.6604 O.2       1 UNK        -0.5238 
     82 H82       -47.9521  -29.9163    1.4000 H         1 UNK         0.0889 
     83 H83       -48.4019  -31.5287    1.9573 H         1 UNK         0.0889 
     84 H84       -46.9058  -30.7831    2.5261 H         1 UNK         0.0889 
     85 H85       -49.1308  -28.3185    2.4002 H         1 UNK         0.3028 
     86 H86       -50.2188  -27.0825    3.8143 H         1 UNK         0.0864 
     87 H87       -51.6152  -29.4381    3.9332 H         1 UNK         0.0720 
     88 H88       -51.2311  -29.3005    5.6179 H         1 UNK         0.0720 
     89 H89       -53.8784  -29.4619    5.6932 H         1 UNK         0.0814 
     90 H90       -54.8439  -28.0139    5.8120 H         1 UNK         0.0814 
     91 H91       -53.8958  -26.1144    7.4202 H         1 UNK         0.1469 
     92 H92       -52.4660  -27.7072   11.1310 H         1 UNK         0.1381 
     93 H93       -52.9020  -30.2754    7.7279 H         1 UNK         0.1206 
     94 H94       -51.0221  -30.2087   10.4012 H         1 UNK         0.0813 
     95 H95       -52.3081  -31.2441    9.8303 H         1 UNK         0.0813 
     96 H96       -54.5486  -31.6742   11.0109 H         1 UNK         0.0638 
     97 H97       -54.9774  -29.9939   11.1562 H         1 UNK         0.0638 
     98 H98       -56.3729  -31.2854   12.6446 H         1 UNK         0.0568 
     99 H99       -54.1870  -33.3698   15.2926 H         1 UNK         0.3450 
    100 H100      -54.3142  -31.6308   15.3824 H         1 UNK         0.3450 
    101 H101      -54.6345  -29.2947   13.7560 H         1 UNK         0.2987 
    102 H102      -57.1659  -28.1117   15.8948 H         1 UNK         0.0766 
    103 H103      -55.3707  -27.8472   17.5994 H         1 UNK         0.0798 
    104 H104      -54.4088  -29.0939   16.8078 H         1 UNK         0.0798 
    105 H105      -55.9472  -29.5056   17.5535 H         1 UNK         0.0798 
    106 H106      -54.5565  -27.1015   15.2831 H         1 UNK         0.3198 
    107 H107      -54.5924  -26.2528   12.4083 H         1 UNK         0.0843 
    108 H108      -56.5885  -24.0437   13.1262 H         1 UNK         0.0831 
    109 H109      -56.6011  -25.0430   11.6813 H         1 UNK         0.0831 
    110 H110      -55.3101  -23.8790   11.9244 H         1 UNK         0.0831 
    111 H111      -53.1301  -25.1985   13.7091 H         1 UNK         0.3133 
    112 H112      -52.6538  -23.0182   15.4504 H         1 UNK         0.0566 
    113 H113      -52.3627  -23.3780   17.9147 H         1 UNK         0.0814 
    114 H114      -53.9974  -22.8723   17.5242 H         1 UNK         0.0814 
    115 H115      -53.6722  -24.5593   17.8984 H         1 UNK         0.0814 
    116 H116      -51.0353  -24.5144   15.3990 H         1 UNK         0.3091 
    117 H117      -50.4374  -27.6327   16.6313 H         1 UNK         0.0702 
    118 H118      -51.7482  -28.6807   14.7820 H         1 UNK         0.0785 
    119 H119      -50.0385  -28.6557   14.3885 H         1 UNK         0.0785 
    120 H120      -51.1298  -27.4905   13.6439 H         1 UNK         0.0785 
    121 H121      -49.1797  -26.2231   14.4509 H         1 UNK         0.2998 
    122 H122      -47.4388  -23.8634   16.5106 H         1 UNK         0.0697 
    123 H123      -46.4948  -26.2216   14.7971 H         1 UNK         0.0825 
    124 H124      -46.0414  -25.9243   16.4686 H         1 UNK         0.0825 
    125 H125      -45.5375  -24.8018   15.2149 H         1 UNK         0.0825 
    126 H126      -47.4374  -24.1212   13.7038 H         1 UNK         0.3029 
    127 H127      -50.2854  -21.9883   13.0626 H         1 UNK         0.0897 
    128 H128      -48.5209  -20.8953   11.7195 H         1 UNK         0.0792 
    129 H129      -48.2292  -20.6060   13.4276 H         1 UNK         0.0792 
    130 H130      -47.2655  -21.7970   12.5633 H         1 UNK         0.0792 
    131 H131      -48.6535  -23.4005   11.2344 H         1 UNK         0.3086 
    132 H132      -50.6243  -26.4022   11.1040 H         1 UNK         0.0583 
    133 H133      -49.7341  -24.4255    8.9776 H         1 UNK         0.1020 
    134 H134      -50.5054  -25.9544    8.7359 H         1 UNK         0.1020 
    135 H135      -53.0713  -25.4237   11.0370 H         1 UNK         0.0694 
    136 H136      -54.2734  -24.9819    9.8487 H         1 UNK         0.0694 
    137 H137      -48.1562  -25.8914    9.8883 H         1 UNK         0.2989 
    138 H138      -45.9794  -26.8942   12.5164 H         1 UNK         0.1055 
    139 H139      -46.6601  -28.9832   11.3761 H         1 UNK         0.0806 
    140 H140      -45.1958  -28.3512   10.6400 H         1 UNK         0.0806 
    141 H141      -46.7508  -28.1558    9.8305 H         1 UNK         0.0806 
    142 H142      -45.6743  -25.8768    9.8159 H         1 UNK         0.3061 
    143 H143      -45.2411  -22.4653   10.7847 H         1 UNK         0.0734 
    144 H144      -43.0913  -22.8227    9.6066 H         1 UNK         0.0832 
    145 H145      -43.0435  -23.5822   11.1881 H         1 UNK         0.0832 
    146 H146      -43.2641  -24.5724    9.7528 H         1 UNK         0.0832 
    147 H147      -45.0997  -23.7821    8.2454 H         1 UNK         0.3156 
    148 H148      -48.5435  -23.3152    7.3705 H         1 UNK         0.0589 
    149 H149      -45.9652  -22.0161    6.3610 H         1 UNK         0.0808 
    150 H150      -47.5127  -22.0824    5.5168 H         1 UNK         0.0808 
    151 H151      -47.3563  -21.1453    6.9912 H         1 UNK         0.0808 
    152 H152      -46.7439  -24.4017    5.6748 H         1 UNK         0.3098 
    153 H153      -45.9147  -26.5371    5.5156 H         1 UNK         0.0720 
    154 H154      -45.8924  -28.9181    6.1460 H         1 UNK         0.0791 
    155 H155      -47.0345  -28.6280    7.4533 H         1 UNK         0.0791 
    156 H156      -45.4179  -27.9401    7.5266 H         1 UNK         0.0791 
    157 H157      -47.5986  -27.2021    4.2292 H         1 UNK         0.3028 
@<TRIPOS>BOND
     1    1    2 1    
     2    1   82 1    
     3    1   83 1    
     4    1   84 1    
     5    2    3 2    
     6    2    4 am   BACKBONE|DICT|INTERRES
     7    4    5 1    
     8    4   85 1    
     9    5    6 1    
    10    5   80 1    
    11    5   86 1    
    12    6    7 1    
    13    6   87 1    
    14    6   88 1    
    15    7    8 1    
    16    8    9 1    
    17    8   89 1    
    18    8   90 1    
    19    9   10 ar   
    20    9   14 ar   
    21   10   11 ar   
    22   10   91 1    
    23   11   12 ar   
    24   11   58 1    
    25   12   13 ar   
    26   12   92 1    
    27   13   14 ar   
    28   13   15 1    
    29   14   93 1    
    30   15   16 1    
    31   15   94 1    
    32   15   95 1    
    33   16   17 1    
    34   17   18 1    
    35   17   96 1    
    36   17   97 1    
    37   18   19 1    
    38   18   22 1    
    39   18   98 1    
    40   19   20 am   BACKBONE|DICT|INTERRES
    41   19   21 2    
    42   20   99 1    
    43   20  100 1    
    44   22   23 am   BACKBONE|DICT|INTERRES
    45   22  101 1    
    46   23   24 2    
    47   23   25 1    
    48   25   26 1    
    49   25   27 1    
    50   25  102 1    
    51   26  103 1    
    52   26  104 1    
    53   26  105 1    
    54   27   28 am   BACKBONE|DICT|INTERRES
    55   27  106 1    
    56   28   29 2    
    57   28   30 1    
    58   30   31 1    
    59   30   32 1    
    60   30  107 1    
    61   31  108 1    
    62   31  109 1    
    63   31  110 1    
    64   32   33 am   BACKBONE|DICT|INTERRES
    65   32  111 1    
    66   33   34 2    
    67   33   35 1    
    68   35   36 1    
    69   35   37 1    
    70   35  112 1    
    71   36  113 1    
    72   36  114 1    
    73   36  115 1    
    74   37   38 am   BACKBONE|DICT|INTERRES
    75   37  116 1    
    76   38   39 2    
    77   38   40 1    
    78   40   41 1    
    79   40   42 1    
    80   40  117 1    
    81   41  118 1    
    82   41  119 1    
    83   41  120 1    
    84   42   43 am   BACKBONE|DICT|INTERRES
    85   42  121 1    
    86   43   44 2    
    87   43   45 1    
    88   45   46 1    
    89   45   47 1    
    90   45  122 1    
    91   46  123 1    
    92   46  124 1    
    93   46  125 1    
    94   47   48 am   BACKBONE|DICT|INTERRES
    95   47  126 1    
    96   48   49 2    
    97   48   50 1    
    98   50   51 1    
    99   50   52 1    
   100   50  127 1    
   101   51  128 1    
   102   51  129 1    
   103   51  130 1    
   104   52   53 am   BACKBONE|DICT|INTERRES
   105   52  131 1    
   106   53   54 2    
   107   53   55 1    
   108   55   56 1    
   109   55   59 1    
   110   55  132 1    
   111   56   57 1    
   112   56  133 1    
   113   56  134 1    
   114   57   58 1    
   115   58  135 1    
   116   58  136 1    
   117   59   60 am   BACKBONE|DICT|INTERRES
   118   59  137 1    
   119   60   61 2    
   120   60   62 1    
   121   62   63 1    
   122   62   64 1    
   123   62  138 1    
   124   63  139 1    
   125   63  140 1    
   126   63  141 1    
   127   64   65 am   BACKBONE|DICT|INTERRES
   128   64  142 1    
   129   65   66 2    
   130   65   67 1    
   131   67   68 1    
   132   67   69 1    
   133   67  143 1    
   134   68  144 1    
   135   68  145 1    
   136   68  146 1    
   137   69   70 am   BACKBONE|DICT|INTERRES
   138   69  147 1    
   139   70   71 2    
   140   70   72 1    
   141   72   73 1    
   142   72   74 1    
   143   72  148 1    
   144   73  149 1    
   145   73  150 1    
   146   73  151 1    
   147   74   75 am   BACKBONE|DICT|INTERRES
   148   74  152 1    
   149   75   76 2    
   150   75   77 1    
   151   77   78 1    
   152   77   79 1    
   153   77  153 1    
   154   78  154 1    
   155   78  155 1    
   156   78  156 1    
   157   79   80 am   BACKBONE|DICT|INTERRES
   158   79  157 1    
   159   80   81 2    
@<TRIPOS>SUBSTRUCTURE
     1 UNK         1 GROUP             0       ****    0 ROOT    
