@<TRIPOS>MOLECULE
3R207
157   159    1
SMALL
USER_CHARGES


@<TRIPOS>ATOM
      1 CA        -46.6520  -32.1145    6.0925 C.3       0 UNK        -0.1975 
      2 C         -46.8010  -30.9958    5.0721 C.2       0 UNK         0.4852 
      3 O         -45.8941  -30.7711    4.2703 O.2       0 UNK        -0.5216 
      4 N         -47.9368  -30.2861    5.1021 N.am      1 UNK        -0.4461 
      5 CA        -48.2537  -29.1603    4.2125 C.3       1 UNK         0.0864 
      6 C6        -49.7873  -28.9334    4.1169 C.3       14 UNK        -0.0898 
      7 S7        -50.5597  -28.4215    5.6935 S.3       14 UNK        -0.2598 
      8 C8        -51.4675  -29.9175    6.1821 C.3       14 UNK         0.0286 
      9 C9        -51.8002  -29.8573    7.6629 C.ar      14 UNK        -0.0844 
     10 C10       -50.8432  -30.2475    8.6032 C.ar      14 UNK        -0.0881 
     11 C11       -51.1051  -30.1452    9.9735 C.ar      14 UNK        -0.0643 
     12 C12       -52.3603  -29.6922   10.3923 C.ar      14 UNK        -0.0930 
     13 C13       -53.3362  -29.3213    9.4627 C.ar      14 UNK        -0.0827 
     14 C14       -53.0461  -29.3947    8.0968 C.ar      14 UNK        -0.1249 
     15 C15       -54.7090  -28.8656    9.9367 C.3       14 UNK         0.0141 
     16 S16       -54.6618  -27.1841   10.6292 S.3       14 UNK        -0.2313 
     17 C17       -56.4388  -26.8819   10.9345 C.3       14 UNK        -0.0915 
     18 CA        -56.8606  -26.9829   12.4292 C.3       13 UNK         0.0968 
     19 C         -56.9424  -28.4433   12.9523 C.2       13 UNK         0.5732 
     20 N         -56.4663  -28.7666   14.1459 N.am      13 UNK        -0.7310 
     21 O         -57.4846  -29.3094   12.2697 O.2       13 UNK        -0.5035 
     22 N         -56.1038  -26.0426   13.2742 N.am      13 UNK        -0.4233 
     23 C         -56.4473  -24.7595   13.4470 C.2       13 UNK         0.4989 
     24 O         -57.5259  -24.2869   13.0811 O.2       13 UNK        -0.4996 
     25 CA        -55.3892  -23.8310   14.0705 C.3       12 UNK         0.0216 
     26 CB        -55.9442  -22.4475   14.4768 C.3       12 UNK        -0.1964 
     27 N         -54.6274  -24.4452   15.1604 N.am      12 UNK        -0.4276 
     28 C         -55.0552  -24.7718   16.3868 C.2       12 UNK         0.5020 
     29 O         -56.2190  -24.6398   16.7714 O.2       12 UNK        -0.5489 
     30 CA        -53.9782  -25.3237   17.3443 C.3       11 UNK         0.0294 
     31 CB        -54.5600  -25.8444   18.6764 C.3       11 UNK        -0.2019 
     32 N         -53.1147  -26.3348   16.7211 N.am      11 UNK        -0.4493 
     33 C         -53.5008  -27.5112   16.2042 C.2       11 UNK         0.4932 
     34 O         -54.6735  -27.8837   16.1859 O.2       11 UNK        -0.5029 
     35 CA        -52.4289  -28.4315   15.5855 C.3       10 UNK         0.0280 
     36 CB        -52.8080  -28.8295   14.1499 C.3       10 UNK        -0.1976 
     37 N         -51.0858  -27.8508   15.5652 N.am      10 UNK        -0.4242 
     38 C         -50.2250  -27.8367   16.5906 C.2       10 UNK         0.5072 
     39 O         -50.4492  -28.3577   17.6837 O.2       10 UNK        -0.5224 
     40 CA        -48.9045  -27.0741   16.3711 C.3       9 UNK         0.0343 
     41 CB        -47.8554  -27.9815   15.7091 C.3       9 UNK        -0.2003 
     42 N         -49.0667  -25.8480   15.5804 N.am      9 UNK        -0.4272 
     43 C         -49.8283  -24.8046   15.9460 C.2       9 UNK         0.4988 
     44 O         -50.4562  -24.7512   17.0041 O.2       9 UNK        -0.5108 
     45 CA        -49.9578  -23.6471   14.9432 C.3       8 UNK         0.0248 
     46 CB        -48.6976  -22.7673   14.9581 C.3       8 UNK        -0.2001 
     47 N         -50.2335  -24.1083   13.5804 N.am      8 UNK        -0.4140 
     48 C         -51.3253  -24.7988   13.2202 C.2       8 UNK         0.5028 
     49 O         -52.2455  -25.0692   13.9894 O.2       8 UNK        -0.5428 
     50 CA        -51.3827  -25.3313   11.7804 C.3       7 UNK         0.0264 
     51 CB        -51.7890  -24.2300   10.7891 C.3       7 UNK        -0.1988 
     52 N         -50.1259  -25.9499   11.3596 N.am      7 UNK        -0.4454 
     53 C         -49.5787  -27.0267   11.9449 C.2       7 UNK         0.5027 
     54 O         -50.0846  -27.6198   12.8956 O.2       7 UNK        -0.5083 
     55 CA        -48.2062  -27.4764   11.4124 C.3       6 UNK         0.0844 
     56 C56       -48.3528  -28.3904   10.1675 C.3       14 UNK        -0.0967 
     57 S57       -48.3283  -30.1713   10.5695 S.3       14 UNK        -0.2604 
     58 C58       -50.0633  -30.5379   11.0194 C.3       14 UNK         0.0134 
     59 N         -47.3438  -26.3190   11.1577 N.am      6 UNK        -0.4116 
     60 C         -46.8538  -25.5191   12.1170 C.2       5 UNK         0.5034 
     61 O         -47.0549  -25.6846   13.3211 O.2       5 UNK        -0.5045 
     62 CA        -46.0374  -24.3041   11.6496 C.3       5 UNK         0.0224 
     63 CB        -44.6245  -24.7304   11.2192 C.3       5 UNK        -0.1978 
     64 N         -46.6829  -23.5663   10.5595 N.am      5 UNK        -0.4737 
     65 C         -47.8419  -22.9022   10.6764 C.2       4 UNK         0.5027 
     66 O         -48.5063  -22.8611   11.7089 O.2       4 UNK        -0.5211 
     67 CA        -48.3856  -22.2439    9.4083 C.3       4 UNK         0.0297 
     68 CB        -47.4262  -21.1873    8.8302 C.3       4 UNK        -0.1993 
     69 N         -48.6384  -23.3058    8.4469 N.am      4 UNK        -0.4486 
     70 C         -49.5357  -23.3088    7.4626 C.2       3 UNK         0.4961 
     71 O         -50.2296  -22.3336    7.1705 O.2       3 UNK        -0.5105 
     72 CA        -49.6886  -24.6400    6.6922 C.3       3 UNK         0.0299 
     73 CB        -50.5682  -24.4918    5.4366 C.3       3 UNK        -0.1972 
     74 N         -48.4229  -25.2794    6.3048 N.am      3 UNK        -0.4305 
     75 C         -47.5130  -25.8469    7.1093 C.2       2 UNK         0.5006 
     76 O         -47.5740  -25.8239    8.3423 O.2       2 UNK        -0.5106 
     77 CA        -46.3694  -26.6007    6.4101 C.3       2 UNK         0.0296 
     78 CB        -45.2374  -26.9920    7.3789 C.3       2 UNK        -0.2002 
     79 N         -46.9062  -27.8083    5.7844 N.am      2 UNK        -0.4032 
     80 C         -47.5137  -27.8542    4.5893 C.2       1 UNK         0.5000 
     81 O         -47.5524  -26.8930    3.8176 O.2       1 UNK        -0.5238 
     82 H82       -46.5330  -33.0712    5.5847 H         1 UNK         0.0889 
     83 H83       -47.5174  -32.1857    6.7514 H         1 UNK         0.0889 
     84 H84       -45.7702  -31.9445    6.7098 H         1 UNK         0.0889 
     85 H85       -48.6475  -30.5120    5.7821 H         1 UNK         0.3028 
     86 H86       -47.9052  -29.4235    3.2113 H         1 UNK         0.0864 
     87 H87       -50.0073  -28.1660    3.3722 H         1 UNK         0.0720 
     88 H88       -50.2740  -29.8378    3.7485 H         1 UNK         0.0720 
     89 H89       -50.8719  -30.8073    5.9739 H         1 UNK         0.0814 
     90 H90       -52.3754  -30.0043    5.5831 H         1 UNK         0.0814 
     91 H91       -49.8821  -30.6077    8.2648 H         1 UNK         0.1469 
     92 H92       -52.5845  -29.6261   11.4466 H         1 UNK         0.1381 
     93 H93       -53.7893  -29.0943    7.3707 H         1 UNK         0.1206 
     94 H94       -55.0812  -29.5585   10.6926 H         1 UNK         0.0813 
     95 H95       -55.4226  -28.8963    9.1119 H         1 UNK         0.0813 
     96 H96       -57.0419  -27.5457   10.3129 H         1 UNK         0.0638 
     97 H97       -56.6589  -25.8777   10.5697 H         1 UNK         0.0638 
     98 H98       -57.9080  -26.6785   12.4670 H         1 UNK         0.0568 
     99 H99       -56.5595  -29.7220   14.4495 H         1 UNK         0.3450 
    100 H100      -56.0092  -28.1045   14.7618 H         1 UNK         0.3450 
    101 H101      -55.2081  -26.3658   13.6084 H         1 UNK         0.2987 
    102 H102      -54.6612  -23.6565   13.2767 H         1 UNK         0.0766 
    103 H103      -55.1606  -21.8102   14.8863 H         1 UNK         0.0798 
    104 H104      -56.7355  -22.5295   15.2224 H         1 UNK         0.0798 
    105 H105      -56.3649  -21.9271   13.6155 H         1 UNK         0.0798 
    106 H106      -53.6592  -24.6691   14.9158 H         1 UNK         0.3198 
    107 H107      -53.3281  -24.4798   17.5812 H         1 UNK         0.0843 
    108 H108      -55.2622  -26.6639   18.5201 H         1 UNK         0.0831 
    109 H109      -55.0969  -25.0542   19.2025 H         1 UNK         0.0831 
    110 H110      -53.7726  -26.1985   19.3415 H         1 UNK         0.0831 
    111 H111      -52.1341  -26.0850   16.6576 H         1 UNK         0.3133 
    112 H112      -52.4041  -29.3412   16.1885 H         1 UNK         0.0566 
    113 H113      -52.0595  -29.4964   13.7233 H         1 UNK         0.0814 
    114 H114      -53.7596  -29.3599   14.1217 H         1 UNK         0.0814 
    115 H115      -52.8938  -27.9586   13.4985 H         1 UNK         0.0814 
    116 H116      -50.7824  -27.4595   14.6762 H         1 UNK         0.3091 
    117 H117      -48.5280  -26.7810   17.3533 H         1 UNK         0.0702 
    118 H118      -46.8955  -27.4735   15.6133 H         1 UNK         0.0785 
    119 H119      -48.1657  -28.2986   14.7133 H         1 UNK         0.0785 
    120 H120      -47.6888  -28.8821   16.3014 H         1 UNK         0.0785 
    121 H121      -48.5593  -25.8011   14.7020 H         1 UNK         0.2998 
    122 H122      -50.8033  -23.0316   15.2574 H         1 UNK         0.0697 
    123 H123      -47.8212  -23.3085   14.5997 H         1 UNK         0.0825 
    124 H124      -48.4767  -22.4159   15.9668 H         1 UNK         0.0825 
    125 H125      -48.8241  -21.8862   14.3288 H         1 UNK         0.0825 
    126 H126      -49.5454  -23.8630   12.8712 H         1 UNK         0.3029 
    127 H127      -52.1481  -26.1089   11.7552 H         1 UNK         0.0897 
    128 H128      -51.9087  -24.6288    9.7815 H         1 UNK         0.0792 
    129 H129      -51.0549  -23.4252   10.7484 H         1 UNK         0.0792 
    130 H130      -52.7439  -23.7864   11.0745 H         1 UNK         0.0792 
    131 H131      -49.6293  -25.5108   10.5998 H         1 UNK         0.3086 
    132 H132      -47.7220  -28.0480   12.2074 H         1 UNK         0.0583 
    133 H133      -49.2252  -28.1363    9.5620 H         1 UNK         0.1020 
    134 H134      -47.5034  -28.2420    9.5008 H         1 UNK         0.1020 
    135 H135      -50.1498  -31.6098   11.2006 H         1 UNK         0.0694 
    136 H136      -50.2803  -30.0537   11.9714 H         1 UNK         0.0694 
    137 H137      -47.1766  -26.0877   10.1826 H         1 UNK         0.2989 
    138 H138      -45.9449  -23.6272   12.5022 H         1 UNK         0.1055 
    139 H139      -44.1192  -25.2701   12.0216 H         1 UNK         0.0806 
    140 H140      -44.0068  -23.8660   10.9750 H         1 UNK         0.0806 
    141 H141      -44.6442  -25.3862   10.3480 H         1 UNK         0.0806 
    142 H142      -46.2021  -23.5551    9.6715 H         1 UNK         0.3061 
    143 H143      -49.3306  -21.7588    9.6630 H         1 UNK         0.0734 
    144 H144      -47.8768  -20.6715    7.9822 H         1 UNK         0.0832 
    145 H145      -47.1849  -20.4303    9.5775 H         1 UNK         0.0832 
    146 H146      -46.4875  -21.6249    8.4896 H         1 UNK         0.0832 
    147 H147      -48.1405  -24.1821    8.6002 H         1 UNK         0.3156 
    148 H148      -50.2013  -25.3273    7.3686 H         1 UNK         0.0589 
    149 H149      -50.1262  -23.8030    4.7156 H         1 UNK         0.0808 
    150 H150      -50.7165  -25.4495    4.9377 H         1 UNK         0.0808 
    151 H151      -51.5573  -24.1092    5.6918 H         1 UNK         0.0808 
    152 H152      -48.2698  -25.3787    5.3084 H         1 UNK         0.3098 
    153 H153      -45.9467  -25.9436    5.6470 H         1 UNK         0.0720 
    154 H154      -44.4212  -27.4856    6.8511 H         1 UNK         0.0791 
    155 H155      -45.5817  -27.6662    8.1632 H         1 UNK         0.0791 
    156 H156      -44.8197  -26.1099    7.8655 H         1 UNK         0.0791 
    157 H157      -46.9505  -28.6341    6.3623 H         1 UNK         0.3028 
@<TRIPOS>BOND
     1    1    2 1    
     2    1   82 1    
     3    1   83 1    
     4    1   84 1    
     5    2    3 2    
     6    2    4 am   BACKBONE|DICT|INTERRES
     7    4    5 1    
     8    4   85 1    
     9    5    6 1    
    10    5   80 1    
    11    5   86 1    
    12    6    7 1    
    13    6   87 1    
    14    6   88 1    
    15    7    8 1    
    16    8    9 1    
    17    8   89 1    
    18    8   90 1    
    19    9   10 ar   
    20    9   14 ar   
    21   10   11 ar   
    22   10   91 1    
    23   11   12 ar   
    24   11   58 1    
    25   12   13 ar   
    26   12   92 1    
    27   13   14 ar   
    28   13   15 1    
    29   14   93 1    
    30   15   16 1    
    31   15   94 1    
    32   15   95 1    
    33   16   17 1    
    34   17   18 1    
    35   17   96 1    
    36   17   97 1    
    37   18   19 1    
    38   18   22 1    
    39   18   98 1    
    40   19   20 am   BACKBONE|DICT|INTERRES
    41   19   21 2    
    42   20   99 1    
    43   20  100 1    
    44   22   23 am   BACKBONE|DICT|INTERRES
    45   22  101 1    
    46   23   24 2    
    47   23   25 1    
    48   25   26 1    
    49   25   27 1    
    50   25  102 1    
    51   26  103 1    
    52   26  104 1    
    53   26  105 1    
    54   27   28 am   BACKBONE|DICT|INTERRES
    55   27  106 1    
    56   28   29 2    
    57   28   30 1    
    58   30   31 1    
    59   30   32 1    
    60   30  107 1    
    61   31  108 1    
    62   31  109 1    
    63   31  110 1    
    64   32   33 am   BACKBONE|DICT|INTERRES
    65   32  111 1    
    66   33   34 2    
    67   33   35 1    
    68   35   36 1    
    69   35   37 1    
    70   35  112 1    
    71   36  113 1    
    72   36  114 1    
    73   36  115 1    
    74   37   38 am   BACKBONE|DICT|INTERRES
    75   37  116 1    
    76   38   39 2    
    77   38   40 1    
    78   40   41 1    
    79   40   42 1    
    80   40  117 1    
    81   41  118 1    
    82   41  119 1    
    83   41  120 1    
    84   42   43 am   BACKBONE|DICT|INTERRES
    85   42  121 1    
    86   43   44 2    
    87   43   45 1    
    88   45   46 1    
    89   45   47 1    
    90   45  122 1    
    91   46  123 1    
    92   46  124 1    
    93   46  125 1    
    94   47   48 am   BACKBONE|DICT|INTERRES
    95   47  126 1    
    96   48   49 2    
    97   48   50 1    
    98   50   51 1    
    99   50   52 1    
   100   50  127 1    
   101   51  128 1    
   102   51  129 1    
   103   51  130 1    
   104   52   53 am   BACKBONE|DICT|INTERRES
   105   52  131 1    
   106   53   54 2    
   107   53   55 1    
   108   55   56 1    
   109   55   59 1    
   110   55  132 1    
   111   56   57 1    
   112   56  133 1    
   113   56  134 1    
   114   57   58 1    
   115   58  135 1    
   116   58  136 1    
   117   59   60 am   BACKBONE|DICT|INTERRES
   118   59  137 1    
   119   60   61 2    
   120   60   62 1    
   121   62   63 1    
   122   62   64 1    
   123   62  138 1    
   124   63  139 1    
   125   63  140 1    
   126   63  141 1    
   127   64   65 am   BACKBONE|DICT|INTERRES
   128   64  142 1    
   129   65   66 2    
   130   65   67 1    
   131   67   68 1    
   132   67   69 1    
   133   67  143 1    
   134   68  144 1    
   135   68  145 1    
   136   68  146 1    
   137   69   70 am   BACKBONE|DICT|INTERRES
   138   69  147 1    
   139   70   71 2    
   140   70   72 1    
   141   72   73 1    
   142   72   74 1    
   143   72  148 1    
   144   73  149 1    
   145   73  150 1    
   146   73  151 1    
   147   74   75 am   BACKBONE|DICT|INTERRES
   148   74  152 1    
   149   75   76 2    
   150   75   77 1    
   151   77   78 1    
   152   77   79 1    
   153   77  153 1    
   154   78  154 1    
   155   78  155 1    
   156   78  156 1    
   157   79   80 am   BACKBONE|DICT|INTERRES
   158   79  157 1    
   159   80   81 2    
@<TRIPOS>SUBSTRUCTURE
     1 UNK         1 GROUP             0       ****    0 ROOT    
