@<TRIPOS>MOLECULE
3R207
157   159    1
SMALL
USER_CHARGES


@<TRIPOS>ATOM
      1 CA        -51.8903  -26.0848    2.2538 C.3       0 UNK        -0.1975 
      2 C         -50.7083  -26.7806    2.9117 C.2       0 UNK         0.4852 
      3 O         -49.6760  -26.9688    2.2672 O.2       0 UNK        -0.5216 
      4 N         -50.8438  -27.1391    4.1963 N.am      1 UNK        -0.4461 
      5 CA        -49.9006  -27.8850    5.0504 C.3       1 UNK         0.0864 
      6 C6        -49.5658  -29.3108    4.5306 C.3       14 UNK        -0.0898 
      7 S7        -51.0447  -30.3640    4.3204 S.3       14 UNK        -0.2598 
      8 C8        -51.0165  -31.3807    5.8344 C.3       14 UNK         0.0286 
      9 C9        -51.3706  -30.5571    7.0633 C.ar      14 UNK        -0.0844 
     10 C10       -50.3609  -29.9751    7.8340 C.ar      14 UNK        -0.0881 
     11 C11       -50.6802  -29.1527    8.9164 C.ar      14 UNK        -0.0643 
     12 C12       -52.0196  -28.9466    9.2561 C.ar      14 UNK        -0.0930 
     13 C13       -53.0381  -29.5433    8.5064 C.ar      14 UNK        -0.0827 
     14 C14       -52.7087  -30.3476    7.4109 C.ar      14 UNK        -0.1249 
     15 C15       -54.4926  -29.2861    8.8631 C.3       14 UNK         0.0141 
     16 S16       -54.9985  -30.2794   10.2969 S.3       14 UNK        -0.2313 
     17 C17       -56.6504  -29.5769   10.6276 C.3       14 UNK        -0.0915 
     18 CA        -56.6088  -28.2787   11.4892 C.3       13 UNK         0.0968 
     19 C         -58.0230  -27.6670   11.7305 C.2       13 UNK         0.5732 
     20 N         -58.2960  -27.0553   12.8782 N.am      13 UNK        -0.7310 
     21 O         -58.8795  -27.7136   10.8504 O.2       13 UNK        -0.5035 
     22 N         -55.7837  -28.4051   12.7014 N.am      13 UNK        -0.4233 
     23 C         -56.0029  -29.2285   13.7350 C.2       13 UNK         0.4989 
     24 O         -56.9305  -30.0359   13.7995 O.2       13 UNK        -0.4996 
     25 CA        -55.0215  -29.1190   14.9131 C.3       12 UNK         0.0216 
     26 CB        -53.9220  -30.1878   14.7975 C.3       12 UNK        -0.1964 
     27 N         -54.3951  -27.7988   15.0305 N.am      12 UNK        -0.4276 
     28 C         -55.0283  -26.6643   15.3615 C.2       12 UNK         0.5020 
     29 O         -56.2461  -26.5932   15.5404 O.2       12 UNK        -0.5489 
     30 CA        -54.1439  -25.4078   15.5112 C.3       11 UNK         0.0294 
     31 CB        -54.8621  -24.2484   16.2329 C.3       11 UNK        -0.2019 
     32 N         -52.8495  -25.6924   16.1476 N.am      11 UNK        -0.4493 
     33 C         -52.6444  -26.2413   17.3561 C.2       11 UNK         0.4932 
     34 O         -53.5400  -26.5384   18.1471 O.2       11 UNK        -0.5029 
     35 CA        -51.1864  -26.5311   17.7448 C.3       10 UNK         0.0280 
     36 CB        -50.7926  -27.9509   17.3083 C.3       10 UNK        -0.1976 
     37 N         -50.2337  -25.5692   17.1860 N.am      10 UNK        -0.4242 
     38 C         -50.0705  -24.3198   17.6420 C.2       10 UNK         0.5072 
     39 O         -50.7430  -23.8269   18.5487 O.2       10 UNK        -0.5224 
     40 CA        -48.9648  -23.4813   16.9905 C.3       9 UNK         0.0343 
     41 CB        -47.5695  -24.0186   17.3571 C.3       9 UNK        -0.2003 
     42 N         -49.1114  -23.4403   15.5333 N.am      9 UNK        -0.4272 
     43 C         -49.2468  -22.3113   14.8242 C.2       9 UNK         0.4988 
     44 O         -49.3007  -21.1879   15.3274 O.2       9 UNK        -0.5108 
     45 CA        -49.3049  -22.4248   13.2916 C.3       8 UNK         0.0248 
     46 CB        -47.9100  -22.2076   12.6843 C.3       8 UNK        -0.2001 
     47 N         -49.8627  -23.6792   12.7828 N.am      8 UNK        -0.4140 
     48 C         -51.1608  -24.0085   12.8466 C.2       8 UNK         0.5028 
     49 O         -52.0065  -23.3567   13.4579 O.2       8 UNK        -0.5428 
     50 CA        -51.5924  -25.2735   12.0947 C.3       7 UNK         0.0264 
     51 CB        -51.6863  -24.9957   10.5843 C.3       7 UNK        -0.1988 
     52 N         -50.6447  -26.3591   12.3263 N.am      7 UNK        -0.4454 
     53 C         -50.8716  -27.4212   13.1077 C.2       7 UNK         0.5027 
     54 O         -51.9302  -27.6127   13.7065 O.2       7 UNK        -0.5083 
     55 CA        -49.7142  -28.4289   13.2868 C.3       6 UNK         0.0844 
     56 C56       -49.8160  -29.6009   12.2630 C.3       14 UNK        -0.0967 
     57 S57       -48.6841  -29.5049   10.8262 S.3       14 UNK        -0.2604 
     58 C58       -49.5735  -28.4296    9.6607 C.3       14 UNK         0.0134 
     59 N         -48.3889  -27.7968   13.3088 N.am      6 UNK        -0.4116 
     60 C         -48.0040  -26.7800   14.0903 C.2       5 UNK         0.5034 
     61 O         -48.6983  -26.3002   14.9865 O.2       5 UNK        -0.5045 
     62 CA        -46.6450  -26.1300   13.7801 C.3       5 UNK         0.0224 
     63 CB        -45.5499  -26.7527   14.6594 C.3       5 UNK        -0.1978 
     64 N         -46.2192  -26.1679   12.3714 N.am      5 UNK        -0.4737 
     65 C         -46.9295  -25.7784   11.3017 C.2       4 UNK         0.5027 
     66 O         -48.1156  -25.4369   11.3542 O.2       4 UNK        -0.5211 
     67 CA        -46.1768  -25.7898    9.9573 C.3       4 UNK         0.0297 
     68 CB        -45.7880  -27.2146    9.5271 C.3       4 UNK        -0.1993 
     69 N         -46.9497  -25.1629    8.8832 N.am      4 UNK        -0.4486 
     70 C         -47.1018  -23.8391    8.7317 C.2       3 UNK         0.4961 
     71 O         -46.5633  -23.0042    9.4607 O.2       3 UNK        -0.5105 
     72 CA        -47.9918  -23.3753    7.5575 C.3       3 UNK         0.0299 
     73 CB        -47.7920  -21.8870    7.2002 C.3       3 UNK        -0.1972 
     74 N         -47.8573  -24.2223    6.3648 N.am      3 UNK        -0.4305 
     75 C         -46.7362  -24.4896    5.6754 C.2       2 UNK         0.5006 
     76 O         -45.6542  -23.9429    5.8958 O.2       2 UNK        -0.5106 
     77 CA        -46.8202  -25.5453    4.5499 C.3       2 UNK         0.0296 
     78 CB        -45.6125  -26.5060    4.5891 C.3       2 UNK        -0.2002 
     79 N         -48.0718  -26.3175    4.4852 N.am      2 UNK        -0.4032 
     80 C         -48.6076  -27.1195    5.4169 C.2       1 UNK         0.5000 
     81 O         -48.1381  -27.2473    6.5492 O.2       1 UNK        -0.5238 
     82 H82       -52.2284  -26.6585    1.3913 H         1 UNK         0.0889 
     83 H83       -51.5986  -25.0926    1.9104 H         1 UNK         0.0889 
     84 H84       -52.7318  -25.9739    2.9374 H         1 UNK         0.0889 
     85 H85       -51.7182  -26.9202    4.6534 H         1 UNK         0.3028 
     86 H86       -50.4350  -27.9982    5.9932 H         1 UNK         0.0864 
     87 H87       -48.8697  -29.8151    5.2031 H         1 UNK         0.0720 
     88 H88       -49.0536  -29.2553    3.5688 H         1 UNK         0.0720 
     89 H89       -50.0376  -31.8487    5.9497 H         1 UNK         0.0814 
     90 H90       -51.7311  -32.1977    5.7233 H         1 UNK         0.0814 
     91 H91       -49.3231  -30.1223    7.5677 H         1 UNK         0.1469 
     92 H92       -52.2727  -28.3105   10.0931 H         1 UNK         0.1381 
     93 H93       -53.4930  -30.7947    6.8152 H         1 UNK         0.1206 
     94 H94       -55.1442  -29.5132    8.0178 H         1 UNK         0.0813 
     95 H95       -54.6276  -28.2261    9.0819 H         1 UNK         0.0813 
     96 H96       -57.1431  -29.3897    9.6718 H         1 UNK         0.0638 
     97 H97       -57.2459  -30.3434   11.1256 H         1 UNK         0.0638 
     98 H98       -56.1002  -27.5224   10.8915 H         1 UNK         0.0568 
     99 H99       -59.2101  -26.6541   13.0147 H         1 UNK         0.3450 
    100 H100      -57.6082  -27.0047   13.6165 H         1 UNK         0.3450 
    101 H101      -54.9904  -27.7847   12.7578 H         1 UNK         0.2987 
    102 H102      -55.5861  -29.3021   15.8297 H         1 UNK         0.0766 
    103 H103      -53.3236  -30.0545   13.8950 H         1 UNK         0.0798 
    104 H104      -53.2481  -30.1593   15.6540 H         1 UNK         0.0798 
    105 H105      -54.3536  -31.1888   14.7570 H         1 UNK         0.0798 
    106 H106      -53.4045  -27.7456   14.7973 H         1 UNK         0.3198 
    107 H107      -53.9227  -25.0740   14.4970 H         1 UNK         0.0843 
    108 H108      -55.7637  -23.9519   15.6955 H         1 UNK         0.0831 
    109 H109      -54.2222  -23.3685   16.3001 H         1 UNK         0.0831 
    110 H110      -55.1625  -24.5246   17.2440 H         1 UNK         0.0831 
    111 H111      -52.0352  -25.5041   15.5809 H         1 UNK         0.3133 
    112 H112      -51.1175  -26.4841   18.8339 H         1 UNK         0.0566 
    113 H113      -49.7725  -28.1922   17.6076 H         1 UNK         0.0814 
    114 H114      -51.4495  -28.6945   17.7617 H         1 UNK         0.0814 
    115 H115      -50.8636  -28.0718   16.2285 H         1 UNK         0.0814 
    116 H116      -49.6309  -25.9020   16.4344 H         1 UNK         0.3091 
    117 H117      -49.0461  -22.4773   17.4121 H         1 UNK         0.0702 
    118 H118      -46.7841  -23.3775   16.9565 H         1 UNK         0.0785 
    119 H119      -47.4020  -25.0262   16.9767 H         1 UNK         0.0785 
    120 H120      -47.4379  -24.0534   18.4394 H         1 UNK         0.0785 
    121 H121      -49.0931  -24.3314   15.0511 H         1 UNK         0.2998 
    122 H122      -49.9472  -21.6149   12.9387 H         1 UNK         0.0697 
    123 H123      -47.2187  -23.0060   12.9527 H         1 UNK         0.0825 
    124 H124      -47.4736  -21.2687   13.0277 H         1 UNK         0.0825 
    125 H125      -47.9586  -22.1598   11.5967 H         1 UNK         0.0825 
    126 H126      -49.2322  -24.2716   12.2466 H         1 UNK         0.3029 
    127 H127      -52.5879  -25.5503   12.4474 H         1 UNK         0.0897 
    128 H128      -50.7162  -24.7399   10.1555 H         1 UNK         0.0792 
    129 H129      -52.3633  -24.1647   10.3814 H         1 UNK         0.0792 
    130 H130      -52.0699  -25.8617   10.0456 H         1 UNK         0.0792 
    131 H131      -49.7194  -26.2428   11.9191 H         1 UNK         0.3086 
    132 H132      -49.8529  -28.8600   14.2795 H         1 UNK         0.0583 
    133 H133      -49.5609  -30.5267   12.7810 H         1 UNK         0.1020 
    134 H134      -50.8382  -29.7606   11.9123 H         1 UNK         0.1020 
    135 H135      -49.9582  -27.5483   10.1654 H         1 UNK         0.0694 
    136 H136      -48.8618  -28.0499    8.9297 H         1 UNK         0.0694 
    137 H137      -47.7554  -28.1066   12.5854 H         1 UNK         0.2989 
    138 H138      -46.7354  -25.0780   14.0558 H         1 UNK         0.1055 
    139 H139      -45.3675  -27.7961   14.3992 H         1 UNK         0.0806 
    140 H140      -44.6078  -26.2124   14.5643 H         1 UNK         0.0806 
    141 H141      -45.8291  -26.7243   15.7140 H         1 UNK         0.0806 
    142 H142      -45.2596  -26.4440   12.2167 H         1 UNK         0.3061 
    143 H143      -45.2573  -25.2167   10.0946 H         1 UNK         0.0734 
    144 H144      -45.2117  -27.2006    8.6017 H         1 UNK         0.0832 
    145 H145      -45.1709  -27.7078   10.2787 H         1 UNK         0.0832 
    146 H146      -46.6588  -27.8444    9.3596 H         1 UNK         0.0832 
    147 H147      -47.4245  -25.7837    8.2395 H         1 UNK         0.3156 
    148 H148      -49.0208  -23.4944    7.8997 H         1 UNK         0.0589 
    149 H149      -46.7643  -21.6765    6.9025 H         1 UNK         0.0808 
    150 H150      -48.4470  -21.5830    6.3839 H         1 UNK         0.0808 
    151 H151      -48.0203  -21.2462    8.0528 H         1 UNK         0.0808 
    152 H152      -48.6858  -24.7351    6.0999 H         1 UNK         0.3098 
    153 H153      -46.7677  -24.9862    3.6147 H         1 UNK         0.0720 
    154 H154      -45.6531  -27.2280    3.7735 H         1 UNK         0.0791 
    155 H155      -45.5695  -27.0612    5.5269 H         1 UNK         0.0791 
    156 H156      -44.6716  -25.9633    4.4898 H         1 UNK         0.0791 
    157 H157      -48.5445  -26.3173    3.5830 H         1 UNK         0.3028 
@<TRIPOS>BOND
     1    1    2 1    
     2    1   82 1    
     3    1   83 1    
     4    1   84 1    
     5    2    3 2    
     6    2    4 am   BACKBONE|DICT|INTERRES
     7    4    5 1    
     8    4   85 1    
     9    5    6 1    
    10    5   80 1    
    11    5   86 1    
    12    6    7 1    
    13    6   87 1    
    14    6   88 1    
    15    7    8 1    
    16    8    9 1    
    17    8   89 1    
    18    8   90 1    
    19    9   10 ar   
    20    9   14 ar   
    21   10   11 ar   
    22   10   91 1    
    23   11   12 ar   
    24   11   58 1    
    25   12   13 ar   
    26   12   92 1    
    27   13   14 ar   
    28   13   15 1    
    29   14   93 1    
    30   15   16 1    
    31   15   94 1    
    32   15   95 1    
    33   16   17 1    
    34   17   18 1    
    35   17   96 1    
    36   17   97 1    
    37   18   19 1    
    38   18   22 1    
    39   18   98 1    
    40   19   20 am   BACKBONE|DICT|INTERRES
    41   19   21 2    
    42   20   99 1    
    43   20  100 1    
    44   22   23 am   BACKBONE|DICT|INTERRES
    45   22  101 1    
    46   23   24 2    
    47   23   25 1    
    48   25   26 1    
    49   25   27 1    
    50   25  102 1    
    51   26  103 1    
    52   26  104 1    
    53   26  105 1    
    54   27   28 am   BACKBONE|DICT|INTERRES
    55   27  106 1    
    56   28   29 2    
    57   28   30 1    
    58   30   31 1    
    59   30   32 1    
    60   30  107 1    
    61   31  108 1    
    62   31  109 1    
    63   31  110 1    
    64   32   33 am   BACKBONE|DICT|INTERRES
    65   32  111 1    
    66   33   34 2    
    67   33   35 1    
    68   35   36 1    
    69   35   37 1    
    70   35  112 1    
    71   36  113 1    
    72   36  114 1    
    73   36  115 1    
    74   37   38 am   BACKBONE|DICT|INTERRES
    75   37  116 1    
    76   38   39 2    
    77   38   40 1    
    78   40   41 1    
    79   40   42 1    
    80   40  117 1    
    81   41  118 1    
    82   41  119 1    
    83   41  120 1    
    84   42   43 am   BACKBONE|DICT|INTERRES
    85   42  121 1    
    86   43   44 2    
    87   43   45 1    
    88   45   46 1    
    89   45   47 1    
    90   45  122 1    
    91   46  123 1    
    92   46  124 1    
    93   46  125 1    
    94   47   48 am   BACKBONE|DICT|INTERRES
    95   47  126 1    
    96   48   49 2    
    97   48   50 1    
    98   50   51 1    
    99   50   52 1    
   100   50  127 1    
   101   51  128 1    
   102   51  129 1    
   103   51  130 1    
   104   52   53 am   BACKBONE|DICT|INTERRES
   105   52  131 1    
   106   53   54 2    
   107   53   55 1    
   108   55   56 1    
   109   55   59 1    
   110   55  132 1    
   111   56   57 1    
   112   56  133 1    
   113   56  134 1    
   114   57   58 1    
   115   58  135 1    
   116   58  136 1    
   117   59   60 am   BACKBONE|DICT|INTERRES
   118   59  137 1    
   119   60   61 2    
   120   60   62 1    
   121   62   63 1    
   122   62   64 1    
   123   62  138 1    
   124   63  139 1    
   125   63  140 1    
   126   63  141 1    
   127   64   65 am   BACKBONE|DICT|INTERRES
   128   64  142 1    
   129   65   66 2    
   130   65   67 1    
   131   67   68 1    
   132   67   69 1    
   133   67  143 1    
   134   68  144 1    
   135   68  145 1    
   136   68  146 1    
   137   69   70 am   BACKBONE|DICT|INTERRES
   138   69  147 1    
   139   70   71 2    
   140   70   72 1    
   141   72   73 1    
   142   72   74 1    
   143   72  148 1    
   144   73  149 1    
   145   73  150 1    
   146   73  151 1    
   147   74   75 am   BACKBONE|DICT|INTERRES
   148   74  152 1    
   149   75   76 2    
   150   75   77 1    
   151   77   78 1    
   152   77   79 1    
   153   77  153 1    
   154   78  154 1    
   155   78  155 1    
   156   78  156 1    
   157   79   80 am   BACKBONE|DICT|INTERRES
   158   79  157 1    
   159   80   81 2    
@<TRIPOS>SUBSTRUCTURE
     1 UNK         1 GROUP             0       ****    0 ROOT    
