@<TRIPOS>MOLECULE
3R207
157   159    1
SMALL
USER_CHARGES


@<TRIPOS>ATOM
      1 CA        -54.0334  -26.6571    3.3492 C.3       0 UNK        -0.1975 
      2 C         -52.6920  -26.7387    4.0633 C.2       0 UNK         0.4852 
      3 O         -51.6501  -26.6811    3.4086 O.2       0 UNK        -0.5216 
      4 N         -52.7160  -26.8768    5.3968 N.am      1 UNK        -0.4461 
      5 CA        -51.5471  -26.9251    6.2837 C.3       1 UNK         0.0864 
      6 C6        -50.6445  -28.1684    6.0181 C.3       14 UNK        -0.0898 
      7 S7        -49.8192  -28.7601    7.5322 S.3       14 UNK        -0.2598 
      8 C8        -50.9927  -30.0558    8.0529 C.3       14 UNK         0.0286 
      9 C9        -50.7839  -30.4774    9.5011 C.ar      14 UNK        -0.0844 
     10 C10       -49.6008  -31.1144    9.8845 C.ar      14 UNK        -0.0881 
     11 C11       -49.4054  -31.5145   11.2097 C.ar      14 UNK        -0.0643 
     12 C12       -50.4136  -31.2960   12.1521 C.ar      14 UNK        -0.0930 
     13 C13       -51.6049  -30.6670   11.7810 C.ar      14 UNK        -0.0827 
     14 C14       -51.7827  -30.2551   10.4557 C.ar      14 UNK        -0.1249 
     15 C15       -52.6914  -30.4151   12.8148 C.3       14 UNK         0.0141 
     16 S16       -54.1089  -31.5299   12.5719 S.3       14 UNK        -0.2313 
     17 C17       -55.3613  -30.7866   13.6735 C.3       14 UNK        -0.0915 
     18 CA        -56.3082  -29.8191   12.9102 C.3       13 UNK         0.0968 
     19 C         -57.5842  -29.4521   13.7235 C.2       13 UNK         0.5732 
     20 N         -58.0229  -28.1975   13.7570 N.am      13 UNK        -0.7310 
     21 O         -58.2133  -30.3276   14.3135 O.2       13 UNK        -0.5035 
     22 N         -55.5772  -28.6303   12.4590 N.am      13 UNK        -0.4233 
     23 C         -55.4264  -28.2305   11.1917 C.2       13 UNK         0.4989 
     24 O         -55.8699  -28.8449   10.2205 O.2       13 UNK        -0.4996 
     25 CA        -54.6166  -26.9352   10.9662 C.3       12 UNK         0.0216 
     26 CB        -55.0654  -26.1641    9.7076 C.3       12 UNK        -0.1964 
     27 N         -54.5579  -26.0362   12.1291 N.am      12 UNK        -0.4276 
     28 C         -55.5968  -25.5046   12.7916 C.2       12 UNK         0.5020 
     29 O         -56.7767  -25.6995   12.4906 O.2       12 UNK        -0.5489 
     30 CA        -55.2464  -24.6794   14.0436 C.3       11 UNK         0.0294 
     31 CB        -56.4824  -24.3505   14.9071 C.3       11 UNK        -0.2019 
     32 N         -54.2047  -25.3087   14.8664 N.am      11 UNK        -0.4493 
     33 C         -54.2155  -26.5341   15.4163 C.2       11 UNK         0.4932 
     34 O         -55.1185  -27.3524   15.2422 O.2       11 UNK        -0.5029 
     35 CA        -53.0037  -26.9431   16.2781 C.3       10 UNK         0.0280 
     36 CB        -52.2919  -28.1545   15.6565 C.3       10 UNK        -0.1976 
     37 N         -52.0236  -25.8707   16.4636 N.am      10 UNK        -0.4242 
     38 C         -52.1447  -24.8156   17.2791 C.2       10 UNK         0.5072 
     39 O         -53.0889  -24.6611   18.0539 O.2       10 UNK        -0.5224 
     40 CA        -51.0665  -23.7151   17.1826 C.3       9 UNK         0.0343 
     41 CB        -49.9328  -23.9522   18.2000 C.3       9 UNK        -0.2003 
     42 N         -50.5465  -23.4889   15.8208 N.am      9 UNK        -0.4272 
     43 C         -49.8073  -24.3140   15.0655 C.2       9 UNK         0.4988 
     44 O         -49.3778  -25.4020   15.4537 O.2       9 UNK        -0.5108 
     45 CA        -49.5404  -23.8678   13.6199 C.3       8 UNK         0.0248 
     46 CB        -48.1493  -23.2306   13.5032 C.3       8 UNK        -0.2001 
     47 N         -49.6342  -24.9978   12.6933 N.am      8 UNK        -0.4140 
     48 C         -50.7579  -25.6900   12.4468 C.2       8 UNK         0.5028 
     49 O         -51.8673  -25.3843   12.8907 O.2       8 UNK        -0.5428 
     50 CA        -50.6455  -26.9356   11.5523 C.3       7 UNK         0.0264 
     51 CB        -51.0159  -26.5771   10.1055 C.3       7 UNK        -0.1988 
     52 N         -49.3227  -27.5635   11.5836 N.am      7 UNK        -0.4454 
     53 C         -48.7858  -28.1595   12.6597 C.2       7 UNK         0.5027 
     54 O         -49.4307  -28.4105   13.6781 O.2       7 UNK        -0.5083 
     55 CA        -47.2691  -28.4764   12.6472 C.3       6 UNK         0.0844 
     56 C56       -46.9486  -29.9645   12.9787 C.3       14 UNK        -0.0967 
     57 S57       -46.6928  -31.0510   11.5259 S.3       14 UNK        -0.2604 
     58 C58       -48.1072  -32.1914   11.6165 C.3       14 UNK         0.0134 
     59 N         -46.5332  -28.0051   11.4670 N.am      6 UNK        -0.4116 
     60 C         -46.3780  -26.7430   11.0512 C.2       5 UNK         0.5034 
     61 O         -46.8655  -25.7669   11.6268 O.2       5 UNK        -0.5045 
     62 CA        -45.5792  -26.5768    9.7491 C.3       5 UNK         0.0224 
     63 CB        -46.2626  -27.3154    8.5809 C.3       5 UNK        -0.1978 
     64 N         -45.4482  -25.1647    9.3920 N.am      5 UNK        -0.4737 
     65 C         -44.3459  -24.4246    9.5732 C.2       4 UNK         0.5027 
     66 O         -43.3082  -24.8643   10.0703 O.2       4 UNK        -0.5211 
     67 CA        -44.3730  -22.9588    9.0950 C.3       4 UNK         0.0297 
     68 CB        -43.4384  -22.7735    7.8870 C.3       4 UNK        -0.1993 
     69 N         -45.7136  -22.5059    8.7210 N.am      4 UNK        -0.4486 
     70 C         -46.6213  -22.0109    9.5724 C.2       3 UNK         0.4961 
     71 O         -46.3828  -21.7625   10.7534 O.2       3 UNK        -0.5105 
     72 CA        -48.0361  -21.7482    9.0165 C.3       3 UNK         0.0299 
     73 CB        -48.2570  -20.2426    8.7983 C.3       3 UNK        -0.1972 
     74 N         -48.3301  -22.4653    7.7679 N.am      3 UNK        -0.4305 
     75 C         -48.4491  -23.7957    7.6656 C.2       2 UNK         0.5006 
     76 O         -48.3186  -24.5676    8.6161 O.2       2 UNK        -0.5106 
     77 CA        -48.6467  -24.3588    6.2521 C.3       2 UNK         0.0296 
     78 CB        -47.2849  -24.6999    5.6239 C.3       2 UNK        -0.2002 
     79 N         -49.4764  -25.5635    6.2705 N.am      2 UNK        -0.4032 
     80 C         -50.8152  -25.5598    6.3036 C.2       1 UNK         0.5000 
     81 O         -51.4858  -24.5240    6.3451 O.2       1 UNK        -0.5238 
     82 H82       -54.8710  -26.7319    4.0425 H         1 UNK         0.0889 
     83 H83       -54.1215  -27.4651    2.6233 H         1 UNK         0.0889 
     84 H84       -54.1175  -25.7099    2.8170 H         1 UNK         0.0889 
     85 H85       -53.6097  -26.8820    5.8681 H         1 UNK         0.3028 
     86 H86       -51.9768  -27.0308    7.2803 H         1 UNK         0.0864 
     87 H87       -51.2474  -28.9902    5.6280 H         1 UNK         0.0720 
     88 H88       -49.9022  -27.9786    5.2409 H         1 UNK         0.0720 
     89 H89       -50.8812  -30.9247    7.4029 H         1 UNK         0.0814 
     90 H90       -52.0125  -29.6940    7.9118 H         1 UNK         0.0814 
     91 H91       -48.8238  -31.2872    9.1522 H         1 UNK         0.1469 
     92 H92       -50.2670  -31.6056   13.1776 H         1 UNK         0.1381 
     93 H93       -52.7059  -29.7702   10.1694 H         1 UNK         0.1206 
     94 H94       -53.0098  -29.3758   12.7490 H         1 UNK         0.0813 
     95 H95       -52.3007  -30.5540   13.8235 H         1 UNK         0.0813 
     96 H96       -54.8738  -30.2789   14.5076 H         1 UNK         0.0638 
     97 H97       -55.9239  -31.6141   14.1089 H         1 UNK         0.0638 
     98 H98       -56.6936  -30.3585   12.0435 H         1 UNK         0.0568 
     99 H99       -58.8548  -27.9856   14.2832 H         1 UNK         0.3450 
    100 H100      -57.5343  -27.4554   13.2688 H         1 UNK         0.3450 
    101 H101      -55.2433  -28.0348   13.2076 H         1 UNK         0.2987 
    102 H102      -53.5968  -27.2753   10.7982 H         1 UNK         0.0766 
    103 H103      -54.4484  -25.2808    9.5428 H         1 UNK         0.0798 
    104 H104      -56.1034  -25.8389    9.7849 H         1 UNK         0.0798 
    105 H105      -54.9835  -26.7842    8.8141 H         1 UNK         0.0798 
    106 H106      -53.6224  -25.8138   12.4727 H         1 UNK         0.3198 
    107 H107      -54.8317  -23.7375   13.6812 H         1 UNK         0.0843 
    108 H108      -56.9717  -25.2545   15.2718 H         1 UNK         0.0831 
    109 H109      -57.2219  -23.7888   14.3349 H         1 UNK         0.0831 
    110 H110      -56.2128  -23.7435   15.7713 H         1 UNK         0.0831 
    111 H111      -53.3664  -24.7612   14.9984 H         1 UNK         0.3133 
    112 H112      -53.3843  -27.2345   17.2589 H         1 UNK         0.0566 
    113 H113      -51.9370  -27.9361   14.6485 H         1 UNK         0.0814 
    114 H114      -51.4327  -28.4638   16.2519 H         1 UNK         0.0814 
    115 H115      -52.9645  -29.0101   15.5931 H         1 UNK         0.0814 
    116 H116      -51.1761  -25.9233   15.9042 H         1 UNK         0.3091 
    117 H117      -51.5583  -22.7816   17.4612 H         1 UNK         0.0702 
    118 H118      -49.1945  -23.1512   18.1649 H         1 UNK         0.0785 
    119 H119      -49.4141  -24.8953   18.0262 H         1 UNK         0.0785 
    120 H120      -50.3269  -23.9858   19.2166 H         1 UNK         0.0785 
    121 H121      -50.8524  -22.6238   15.3958 H         1 UNK         0.2998 
    122 H122      -50.2907  -23.1310   13.3260 H         1 UNK         0.0697 
    123 H123      -47.3601  -23.9309   13.7807 H         1 UNK         0.0825 
    124 H124      -48.0582  -22.3581   14.1512 H         1 UNK         0.0825 
    125 H125      -47.9564  -22.9008   12.4836 H         1 UNK         0.0825 
    126 H126      -48.7601  -25.3277   12.2962 H         1 UNK         0.3029 
    127 H127      -51.3713  -27.6583   11.9281 H         1 UNK         0.0897 
    128 H128      -51.3263  -27.4662    9.5625 H         1 UNK         0.0792 
    129 H129      -50.1821  -26.1239    9.5706 H         1 UNK         0.0792 
    130 H130      -51.8460  -25.8708   10.0594 H         1 UNK         0.0792 
    131 H131      -48.7292  -27.4044   10.7835 H         1 UNK         0.3086 
    132 H132      -46.8799  -27.8881   13.4812 H         1 UNK         0.0583 
    133 H133      -46.0184  -29.9964   13.5482 H         1 UNK         0.1020 
    134 H134      -47.6935  -30.4010   13.6472 H         1 UNK         0.1020 
    135 H135      -47.9223  -33.0323   10.9466 H         1 UNK         0.0694 
    136 H136      -48.1754  -32.6112   12.6214 H         1 UNK         0.0694 
    137 H137      -46.1235  -28.7482   10.9181 H         1 UNK         0.2989 
    138 H138      -44.5928  -27.0189    9.9071 H         1 UNK         0.1055 
    139 H139      -46.3040  -28.3917    8.7521 H         1 UNK         0.0806 
    140 H140      -45.7166  -27.1676    7.6493 H         1 UNK         0.0806 
    141 H141      -47.2864  -26.9746    8.4259 H         1 UNK         0.0806 
    142 H142      -46.3051  -24.7134    9.0904 H         1 UNK         0.3061 
    143 H143      -43.9975  -22.3408    9.9136 H         1 UNK         0.0734 
    144 H144      -42.4160  -23.0611    8.1363 H         1 UNK         0.0832 
    145 H145      -43.4089  -21.7329    7.5632 H         1 UNK         0.0832 
    146 H146      -43.7491  -23.3828    7.0373 H         1 UNK         0.0832 
    147 H147      -45.9912  -22.6525    7.7622 H         1 UNK         0.3156 
    148 H148      -48.7461  -22.0907    9.7727 H         1 UNK         0.0589 
    149 H149      -47.5841  -19.8406    8.0398 H         1 UNK         0.0808 
    150 H150      -49.2806  -20.0315    8.4878 H         1 UNK         0.0808 
    151 H151      -48.0795  -19.6847    9.7191 H         1 UNK         0.0808 
    152 H152      -48.4363  -21.9002    6.9368 H         1 UNK         0.3098 
    153 H153      -49.1340  -23.6032    5.6317 H         1 UNK         0.0720 
    154 H154      -46.6545  -23.8135    5.5443 H         1 UNK         0.0791 
    155 H155      -47.4032  -25.0999    4.6166 H         1 UNK         0.0791 
    156 H156      -46.7386  -25.4366    6.2136 H         1 UNK         0.0791 
    157 H157      -48.9956  -26.4506    6.3139 H         1 UNK         0.3028 
@<TRIPOS>BOND
     1    1    2 1    
     2    1   82 1    
     3    1   83 1    
     4    1   84 1    
     5    2    3 2    
     6    2    4 am   BACKBONE|DICT|INTERRES
     7    4    5 1    
     8    4   85 1    
     9    5    6 1    
    10    5   80 1    
    11    5   86 1    
    12    6    7 1    
    13    6   87 1    
    14    6   88 1    
    15    7    8 1    
    16    8    9 1    
    17    8   89 1    
    18    8   90 1    
    19    9   10 ar   
    20    9   14 ar   
    21   10   11 ar   
    22   10   91 1    
    23   11   12 ar   
    24   11   58 1    
    25   12   13 ar   
    26   12   92 1    
    27   13   14 ar   
    28   13   15 1    
    29   14   93 1    
    30   15   16 1    
    31   15   94 1    
    32   15   95 1    
    33   16   17 1    
    34   17   18 1    
    35   17   96 1    
    36   17   97 1    
    37   18   19 1    
    38   18   22 1    
    39   18   98 1    
    40   19   20 am   BACKBONE|DICT|INTERRES
    41   19   21 2    
    42   20   99 1    
    43   20  100 1    
    44   22   23 am   BACKBONE|DICT|INTERRES
    45   22  101 1    
    46   23   24 2    
    47   23   25 1    
    48   25   26 1    
    49   25   27 1    
    50   25  102 1    
    51   26  103 1    
    52   26  104 1    
    53   26  105 1    
    54   27   28 am   BACKBONE|DICT|INTERRES
    55   27  106 1    
    56   28   29 2    
    57   28   30 1    
    58   30   31 1    
    59   30   32 1    
    60   30  107 1    
    61   31  108 1    
    62   31  109 1    
    63   31  110 1    
    64   32   33 am   BACKBONE|DICT|INTERRES
    65   32  111 1    
    66   33   34 2    
    67   33   35 1    
    68   35   36 1    
    69   35   37 1    
    70   35  112 1    
    71   36  113 1    
    72   36  114 1    
    73   36  115 1    
    74   37   38 am   BACKBONE|DICT|INTERRES
    75   37  116 1    
    76   38   39 2    
    77   38   40 1    
    78   40   41 1    
    79   40   42 1    
    80   40  117 1    
    81   41  118 1    
    82   41  119 1    
    83   41  120 1    
    84   42   43 am   BACKBONE|DICT|INTERRES
    85   42  121 1    
    86   43   44 2    
    87   43   45 1    
    88   45   46 1    
    89   45   47 1    
    90   45  122 1    
    91   46  123 1    
    92   46  124 1    
    93   46  125 1    
    94   47   48 am   BACKBONE|DICT|INTERRES
    95   47  126 1    
    96   48   49 2    
    97   48   50 1    
    98   50   51 1    
    99   50   52 1    
   100   50  127 1    
   101   51  128 1    
   102   51  129 1    
   103   51  130 1    
   104   52   53 am   BACKBONE|DICT|INTERRES
   105   52  131 1    
   106   53   54 2    
   107   53   55 1    
   108   55   56 1    
   109   55   59 1    
   110   55  132 1    
   111   56   57 1    
   112   56  133 1    
   113   56  134 1    
   114   57   58 1    
   115   58  135 1    
   116   58  136 1    
   117   59   60 am   BACKBONE|DICT|INTERRES
   118   59  137 1    
   119   60   61 2    
   120   60   62 1    
   121   62   63 1    
   122   62   64 1    
   123   62  138 1    
   124   63  139 1    
   125   63  140 1    
   126   63  141 1    
   127   64   65 am   BACKBONE|DICT|INTERRES
   128   64  142 1    
   129   65   66 2    
   130   65   67 1    
   131   67   68 1    
   132   67   69 1    
   133   67  143 1    
   134   68  144 1    
   135   68  145 1    
   136   68  146 1    
   137   69   70 am   BACKBONE|DICT|INTERRES
   138   69  147 1    
   139   70   71 2    
   140   70   72 1    
   141   72   73 1    
   142   72   74 1    
   143   72  148 1    
   144   73  149 1    
   145   73  150 1    
   146   73  151 1    
   147   74   75 am   BACKBONE|DICT|INTERRES
   148   74  152 1    
   149   75   76 2    
   150   75   77 1    
   151   77   78 1    
   152   77   79 1    
   153   77  153 1    
   154   78  154 1    
   155   78  155 1    
   156   78  156 1    
   157   79   80 am   BACKBONE|DICT|INTERRES
   158   79  157 1    
   159   80   81 2    
@<TRIPOS>SUBSTRUCTURE
     1 UNK         1 GROUP             0       ****    0 ROOT    
