@<TRIPOS>MOLECULE
3R207
157   159    1
SMALL
USER_CHARGES


@<TRIPOS>ATOM
      1 CA        -45.5900  -31.1526    3.8105 C.3       0 UNK        -0.1975 
      2 C         -46.9668  -30.5041    3.8142 C.2       0 UNK         0.4852 
      3 O         -47.2050  -29.5713    3.0457 O.2       0 UNK        -0.5216 
      4 N         -47.8756  -30.9973    4.6650 N.am      1 UNK        -0.4461 
      5 CA        -49.2182  -30.4445    4.8629 C.3       1 UNK         0.0864 
      6 C6        -50.1560  -31.4955    5.5079 C.3       14 UNK        -0.0898 
      7 S7        -51.9233  -31.0810    5.3100 S.3       14 UNK        -0.2598 
      8 C8        -52.5719  -31.3492    6.9912 C.3       14 UNK         0.0286 
      9 C9        -52.1661  -30.2527    7.9685 C.ar      14 UNK        -0.0844 
     10 C10       -51.1403  -30.4734    8.8935 C.ar      14 UNK        -0.0881 
     11 C11       -50.8117  -29.4962    9.8377 C.ar      14 UNK        -0.0643 
     12 C12       -51.5120  -28.2872    9.8462 C.ar      14 UNK        -0.0930 
     13 C13       -52.5351  -28.0490    8.9246 C.ar      14 UNK        -0.0827 
     14 C14       -52.8568  -29.0364    7.9871 C.ar      14 UNK        -0.1249 
     15 C15       -53.2918  -26.7260    8.9445 C.3       14 UNK         0.0141 
     16 S16       -54.0916  -26.4013   10.5503 S.3       14 UNK        -0.2313 
     17 C17       -55.2977  -27.7687   10.6594 C.3       14 UNK        -0.0915 
     18 CA        -56.7627  -27.2775   10.8623 C.3       13 UNK         0.0968 
     19 C         -57.7967  -28.4441   10.7991 C.2       13 UNK         0.5732 
     20 N         -58.8759  -28.4167   11.5723 N.am      13 UNK        -0.7310 
     21 O         -57.6437  -29.3731   10.0091 O.2       13 UNK        -0.5035 
     22 N         -56.9225  -26.3728   12.0187 N.am      13 UNK        -0.4233 
     23 C         -56.6633  -26.6764   13.2964 C.2       13 UNK         0.4989 
     24 O         -56.2876  -27.7830   13.6898 O.2       13 UNK        -0.4996 
     25 CA        -56.8761  -25.5556   14.3181 C.3       12 UNK         0.0216 
     26 CB        -58.2680  -25.6459   14.9674 C.3       12 UNK        -0.1964 
     27 N         -55.8398  -25.6818   15.3352 N.am      12 UNK        -0.4276 
     28 C         -55.2753  -24.6798   16.0142 C.2       12 UNK         0.5020 
     29 O         -55.6682  -23.5136   15.9562 O.2       12 UNK        -0.5489 
     30 CA        -54.0438  -25.0100   16.8777 C.3       11 UNK         0.0294 
     31 CB        -54.4370  -25.3418   18.3307 C.3       11 UNK        -0.2019 
     32 N         -53.1614  -26.0283   16.2892 N.am      11 UNK        -0.4493 
     33 C         -53.3506  -27.3501   16.1685 C.2       11 UNK         0.4932 
     34 O         -54.3465  -27.9412   16.5849 O.2       11 UNK        -0.5029 
     35 CA        -52.2715  -28.1466   15.4160 C.3       10 UNK         0.0280 
     36 CB        -52.6279  -28.2376   13.9223 C.3       10 UNK        -0.1976 
     37 N         -50.9232  -27.5915   15.5607 N.am      10 UNK        -0.4242 
     38 C         -50.2015  -27.6030   16.6904 C.2       10 UNK         0.5072 
     39 O         -50.5906  -28.0975   17.7495 O.2       10 UNK        -0.5224 
     40 CA        -48.8065  -26.9549   16.6305 C.3       9 UNK         0.0343 
     41 CB        -47.7854  -27.9044   15.9824 C.3       9 UNK        -0.2003 
     42 N         -48.8103  -25.6744   15.9197 N.am      9 UNK        -0.4272 
     43 C         -49.3585  -24.5479   16.3989 C.2       9 UNK         0.4988 
     44 O         -49.8610  -24.4522   17.5190 O.2       9 UNK        -0.5108 
     45 CA        -49.3670  -23.3212   15.4690 C.3       8 UNK         0.0248 
     46 CB        -48.0249  -22.5759   15.5427 C.3       8 UNK        -0.2001 
     47 N         -49.6762  -23.6549   14.0757 N.am      8 UNK        -0.4140 
     48 C         -50.8328  -24.1988   13.6683 C.2       8 UNK         0.5028 
     49 O         -51.7847  -24.4180   14.4156 O.2       8 UNK        -0.5428 
     50 CA        -50.9299  -24.6270   12.1959 C.3       7 UNK         0.0264 
     51 CB        -51.2853  -23.4361   11.2935 C.3       7 UNK        -0.1988 
     52 N         -49.7097  -25.2691   11.7063 N.am      7 UNK        -0.4454 
     53 C         -49.1833  -26.3983   12.2011 C.2       7 UNK         0.5027 
     54 O         -49.6833  -27.0332   13.1269 O.2       7 UNK        -0.5083 
     55 CA        -47.8518  -26.8693   11.5884 C.3       6 UNK         0.0844 
     56 C56       -48.0594  -27.5577   10.2094 C.3       14 UNK        -0.0967 
     57 S57       -48.0601  -29.3801   10.3139 S.3       14 UNK        -0.2604 
     58 C58       -49.7442  -29.7730   10.8862 C.3       14 UNK         0.0134 
     59 N         -46.8967  -25.7607   11.5307 N.am      6 UNK        -0.4116 
     60 C         -46.3556  -25.1647   12.6035 C.2       5 UNK         0.5034 
     61 O         -46.5628  -25.5160   13.7653 O.2       5 UNK        -0.5045 
     62 CA        -45.4588  -23.9451   12.3322 C.3       5 UNK         0.0224 
     63 CB        -44.0153  -24.3875   12.0449 C.3       5 UNK        -0.1978 
     64 N         -45.9478  -23.1144   11.2270 N.am      5 UNK        -0.4737 
     65 C         -47.0837  -22.4040   11.2675 C.2       4 UNK         0.5027 
     66 O         -47.8253  -22.3553   12.2480 O.2       4 UNK        -0.5211 
     67 CA        -47.4874  -21.6735    9.9750 C.3       4 UNK         0.0297 
     68 CB        -46.7180  -20.3501    9.8378 C.3       4 UNK        -0.1993 
     69 N         -47.3142  -22.4794    8.7583 N.am      4 UNK        -0.4486 
     70 C         -47.8954  -23.6674    8.5487 C.2       3 UNK         0.4961 
     71 O         -48.5907  -24.2484    9.3874 O.2       3 UNK        -0.5105 
     72 CA        -47.6506  -24.3429    7.1958 C.3       3 UNK         0.0299 
     73 CB        -46.2559  -24.9951    7.1468 C.3       3 UNK        -0.1972 
     74 N         -48.6940  -25.3501    7.0560 N.am      3 UNK        -0.4305 
     75 C         -49.0542  -26.0176    5.9600 C.2       2 UNK         0.5006 
     76 O         -48.5279  -25.8822    4.8530 O.2       2 UNK        -0.5106 
     77 CA        -50.2523  -26.9636    6.1393 C.3       2 UNK         0.0296 
     78 CB        -51.5516  -26.2844    5.6760 C.3       2 UNK        -0.2002 
     79 N         -50.0871  -28.2263    5.4236 N.am      2 UNK        -0.4032 
     80 C         -49.1527  -29.1467    5.6957 C.2       1 UNK         0.5000 
     81 O         -48.2957  -29.0249    6.5760 O.2       1 UNK        -0.5238 
     82 H82       -45.5230  -31.9723    4.5257 H         1 UNK         0.0889 
     83 H83       -44.8287  -30.4163    4.0668 H         1 UNK         0.0889 
     84 H84       -45.3636  -31.5474    2.8205 H         1 UNK         0.0889 
     85 H85       -47.6099  -31.7376    5.2984 H         1 UNK         0.3028 
     86 H86       -49.6139  -30.1965    3.8749 H         1 UNK         0.0864 
     87 H87       -49.9086  -31.6451    6.5598 H         1 UNK         0.0720 
     88 H88       -50.0102  -32.4651    5.0288 H         1 UNK         0.0720 
     89 H89       -52.2514  -32.3279    7.3519 H         1 UNK         0.0814 
     90 H90       -53.6608  -31.3933    6.9390 H         1 UNK         0.0814 
     91 H91       -50.6104  -31.4159    8.8973 H         1 UNK         0.1469 
     92 H92       -51.2799  -27.5350   10.5858 H         1 UNK         0.1381 
     93 H93       -53.6538  -28.8662    7.2763 H         1 UNK         0.1206 
     94 H94       -54.0471  -26.6939    8.1578 H         1 UNK         0.0813 
     95 H95       -52.5916  -25.9169    8.7330 H         1 UNK         0.0813 
     96 H96       -55.2274  -28.3677    9.7503 H         1 UNK         0.0638 
     97 H97       -54.9913  -28.4289   11.4717 H         1 UNK         0.0638 
     98 H98       -57.0075  -26.6647    9.9943 H         1 UNK         0.0568 
     99 H99       -59.0236  -27.6592   12.2186 H         1 UNK         0.3450 
    100 H100      -59.5432  -29.1695   11.5131 H         1 UNK         0.3450 
    101 H101      -57.2478  -25.4436   11.7951 H         1 UNK         0.2987 
    102 H102      -56.7705  -24.5931   13.8123 H         1 UNK         0.0766 
    103 H103      -58.4173  -24.8488   15.6960 H         1 UNK         0.0798 
    104 H104      -58.4115  -26.5982   15.4798 H         1 UNK         0.0798 
    105 H105      -59.0564  -25.5528   14.2196 H         1 UNK         0.0798 
    106 H106      -55.4625  -26.6193   15.4486 H         1 UNK         0.3198 
    107 H107      -53.4393  -24.1017   16.9060 H         1 UNK         0.0843 
    108 H108      -55.0973  -26.2070   18.3911 H         1 UNK         0.0831 
    109 H109      -54.9648  -24.5037   18.7874 H         1 UNK         0.0831 
    110 H110      -53.5579  -25.5447   18.9424 H         1 UNK         0.0831 
    111 H111      -52.3735  -25.6304   15.7814 H         1 UNK         0.3133 
    112 H112      -52.2621  -29.1588   15.8252 H         1 UNK         0.0566 
    113 H113      -51.9158  -28.8583   13.3789 H         1 UNK         0.0814 
    114 H114      -53.6153  -28.6794   13.7810 H         1 UNK         0.0814 
    115 H115      -52.6428  -27.2546   13.4501 H         1 UNK         0.0814 
    116 H116      -50.4901  -27.2244   14.7136 H         1 UNK         0.3091 
    117 H117      -48.4838  -26.7687   17.6571 H         1 UNK         0.0702 
    118 H118      -47.7437  -28.8549   16.5158 H         1 UNK         0.0785 
    119 H119      -48.0342  -28.1237   14.9438 H         1 UNK         0.0785 
    120 H120      -46.7824  -27.4774   16.0001 H         1 UNK         0.0785 
    121 H121      -48.3817  -25.6598   15.0015 H         1 UNK         0.2998 
    122 H122      -50.1487  -22.6460   15.8236 H         1 UNK         0.0697 
    123 H123      -47.2029  -23.1863   15.1682 H         1 UNK         0.0825 
    124 H124      -47.7862  -22.3010   16.5709 H         1 UNK         0.0825 
    125 H125      -48.0503  -21.6554   14.9591 H         1 UNK         0.0825 
    126 H126      -48.9657  -23.4343   13.3822 H         1 UNK         0.3029 
    127 H127      -51.7353  -25.3598   12.1237 H         1 UNK         0.0897 
    128 H128      -51.4399  -23.7547   10.2624 H         1 UNK         0.0792 
    129 H129      -50.5001  -22.6794   11.2958 H         1 UNK         0.0792 
    130 H130      -52.2066  -22.9563   11.6265 H         1 UNK         0.0792 
    131 H131      -49.2397  -24.8125   10.9244 H         1 UNK         0.3086 
    132 H132      -47.4235  -27.5986   12.2800 H         1 UNK         0.0583 
    133 H133      -48.9513  -27.2091    9.6872 H         1 UNK         0.1020 
    134 H134      -47.2363  -27.3079    9.5388 H         1 UNK         0.1020 
    135 H135      -49.7732  -30.8294   11.1571 H         1 UNK         0.0694 
    136 H136      -49.9611  -29.2327   11.8063 H         1 UNK         0.0694 
    137 H137      -46.7190  -25.3588   10.6230 H         1 UNK         0.2989 
    138 H138      -45.4559  -23.3345   13.2381 H         1 UNK         0.1055 
    139 H139      -43.6238  -24.9935   12.8635 H         1 UNK         0.0806 
    140 H140      -43.3520  -23.5293   11.9349 H         1 UNK         0.0806 
    141 H141      -43.9458  -24.9852   11.1351 H         1 UNK         0.0806 
    142 H142      -45.3981  -23.0964   10.3799 H         1 UNK         0.3061 
    143 H143      -48.5506  -21.4381   10.0575 H         1 UNK         0.0734 
    144 H144      -47.0770  -19.7678    8.9890 H         1 UNK         0.0832 
    145 H145      -46.8452  -19.7319   10.7278 H         1 UNK         0.0832 
    146 H146      -45.6478  -20.5135    9.7055 H         1 UNK         0.0832 
    147 H147      -46.7522  -22.0764    8.0217 H         1 UNK         0.3156 
    148 H148      -47.7540  -23.6028    6.4000 H         1 UNK         0.0589 
    149 H149      -46.1311  -25.7434    7.9299 H         1 UNK         0.0808 
    150 H150      -46.0799  -25.4861    6.1896 H         1 UNK         0.0808 
    151 H151      -45.4678  -24.2521    7.2741 H         1 UNK         0.0808 
    152 H152      -49.2166  -25.4761    7.9151 H         1 UNK         0.3098 
    153 H153      -50.3499  -27.2082    7.1991 H         1 UNK         0.0720 
    154 H154      -52.4170  -26.9262    5.8411 H         1 UNK         0.0791 
    155 H155      -51.5178  -26.0322    4.6153 H         1 UNK         0.0791 
    156 H156      -51.7263  -25.3586    6.2257 H         1 UNK         0.0791 
    157 H157      -50.7505  -28.4149    4.6868 H         1 UNK         0.3028 
@<TRIPOS>BOND
     1    1    2 1    
     2    1   82 1    
     3    1   83 1    
     4    1   84 1    
     5    2    3 2    
     6    2    4 am   BACKBONE|DICT|INTERRES
     7    4    5 1    
     8    4   85 1    
     9    5    6 1    
    10    5   80 1    
    11    5   86 1    
    12    6    7 1    
    13    6   87 1    
    14    6   88 1    
    15    7    8 1    
    16    8    9 1    
    17    8   89 1    
    18    8   90 1    
    19    9   10 ar   
    20    9   14 ar   
    21   10   11 ar   
    22   10   91 1    
    23   11   12 ar   
    24   11   58 1    
    25   12   13 ar   
    26   12   92 1    
    27   13   14 ar   
    28   13   15 1    
    29   14   93 1    
    30   15   16 1    
    31   15   94 1    
    32   15   95 1    
    33   16   17 1    
    34   17   18 1    
    35   17   96 1    
    36   17   97 1    
    37   18   19 1    
    38   18   22 1    
    39   18   98 1    
    40   19   20 am   BACKBONE|DICT|INTERRES
    41   19   21 2    
    42   20   99 1    
    43   20  100 1    
    44   22   23 am   BACKBONE|DICT|INTERRES
    45   22  101 1    
    46   23   24 2    
    47   23   25 1    
    48   25   26 1    
    49   25   27 1    
    50   25  102 1    
    51   26  103 1    
    52   26  104 1    
    53   26  105 1    
    54   27   28 am   BACKBONE|DICT|INTERRES
    55   27  106 1    
    56   28   29 2    
    57   28   30 1    
    58   30   31 1    
    59   30   32 1    
    60   30  107 1    
    61   31  108 1    
    62   31  109 1    
    63   31  110 1    
    64   32   33 am   BACKBONE|DICT|INTERRES
    65   32  111 1    
    66   33   34 2    
    67   33   35 1    
    68   35   36 1    
    69   35   37 1    
    70   35  112 1    
    71   36  113 1    
    72   36  114 1    
    73   36  115 1    
    74   37   38 am   BACKBONE|DICT|INTERRES
    75   37  116 1    
    76   38   39 2    
    77   38   40 1    
    78   40   41 1    
    79   40   42 1    
    80   40  117 1    
    81   41  118 1    
    82   41  119 1    
    83   41  120 1    
    84   42   43 am   BACKBONE|DICT|INTERRES
    85   42  121 1    
    86   43   44 2    
    87   43   45 1    
    88   45   46 1    
    89   45   47 1    
    90   45  122 1    
    91   46  123 1    
    92   46  124 1    
    93   46  125 1    
    94   47   48 am   BACKBONE|DICT|INTERRES
    95   47  126 1    
    96   48   49 2    
    97   48   50 1    
    98   50   51 1    
    99   50   52 1    
   100   50  127 1    
   101   51  128 1    
   102   51  129 1    
   103   51  130 1    
   104   52   53 am   BACKBONE|DICT|INTERRES
   105   52  131 1    
   106   53   54 2    
   107   53   55 1    
   108   55   56 1    
   109   55   59 1    
   110   55  132 1    
   111   56   57 1    
   112   56  133 1    
   113   56  134 1    
   114   57   58 1    
   115   58  135 1    
   116   58  136 1    
   117   59   60 am   BACKBONE|DICT|INTERRES
   118   59  137 1    
   119   60   61 2    
   120   60   62 1    
   121   62   63 1    
   122   62   64 1    
   123   62  138 1    
   124   63  139 1    
   125   63  140 1    
   126   63  141 1    
   127   64   65 am   BACKBONE|DICT|INTERRES
   128   64  142 1    
   129   65   66 2    
   130   65   67 1    
   131   67   68 1    
   132   67   69 1    
   133   67  143 1    
   134   68  144 1    
   135   68  145 1    
   136   68  146 1    
   137   69   70 am   BACKBONE|DICT|INTERRES
   138   69  147 1    
   139   70   71 2    
   140   70   72 1    
   141   72   73 1    
   142   72   74 1    
   143   72  148 1    
   144   73  149 1    
   145   73  150 1    
   146   73  151 1    
   147   74   75 am   BACKBONE|DICT|INTERRES
   148   74  152 1    
   149   75   76 2    
   150   75   77 1    
   151   77   78 1    
   152   77   79 1    
   153   77  153 1    
   154   78  154 1    
   155   78  155 1    
   156   78  156 1    
   157   79   80 am   BACKBONE|DICT|INTERRES
   158   79  157 1    
   159   80   81 2    
@<TRIPOS>SUBSTRUCTURE
     1 UNK         1 GROUP             0       ****    0 ROOT    
