@<TRIPOS>MOLECULE
3R207
157   159    1
SMALL
USER_CHARGES


@<TRIPOS>ATOM
      1 CA        -46.3476  -32.0887    3.6059 C.3       0 UNK        -0.1975 
      2 C         -47.3166  -31.0895    4.2196 C.2       0 UNK         0.4852 
      3 O         -47.5556  -31.1338    5.4273 O.2       0 UNK        -0.5216 
      4 N         -47.8641  -30.1785    3.4014 N.am      1 UNK        -0.4461 
      5 CA        -48.8331  -29.1244    3.7433 C.3       1 UNK         0.0864 
      6 C6        -50.1393  -29.6782    4.3771 C.3       14 UNK        -0.0898 
      7 S7        -51.6221  -28.6941    3.9687 S.3       14 UNK        -0.2598 
      8 C8        -51.7874  -27.5849    5.4051 C.3       14 UNK         0.0286 
      9 C9        -52.0779  -28.3355    6.6963 C.ar      14 UNK        -0.0844 
     10 C10       -51.0574  -28.5466    7.6274 C.ar      14 UNK        -0.0881 
     11 C11       -51.3043  -29.2356    8.8158 C.ar      14 UNK        -0.0643 
     12 C12       -52.5928  -29.7168    9.0698 C.ar      14 UNK        -0.0930 
     13 C13       -53.6281  -29.4978    8.1562 C.ar      14 UNK        -0.0827 
     14 C14       -53.3654  -28.8079    6.9686 C.ar      14 UNK        -0.1249 
     15 C15       -55.0271  -30.0068    8.4615 C.3       14 UNK         0.0141 
     16 S16       -56.0001  -28.7362    9.3223 S.3       14 UNK        -0.2313 
     17 C17       -57.3343  -29.7602   10.0273 C.3       14 UNK        -0.0915 
     18 CA        -58.4640  -28.9181   10.6973 C.3       13 UNK         0.0968 
     19 C         -59.6394  -29.7756   11.2611 C.2       13 UNK         0.5732 
     20 N         -59.9744  -30.8966   10.6351 N.am      13 UNK        -0.7310 
     21 O         -60.2949  -29.4082   12.2354 O.2       13 UNK        -0.5035 
     22 N         -57.9521  -27.9324   11.6660 N.am      13 UNK        -0.4233 
     23 C         -57.3083  -28.2033   12.8077 C.2       13 UNK         0.4989 
     24 O         -57.0526  -29.3386   13.2202 O.2       13 UNK        -0.4996 
     25 CA        -56.8826  -26.9865   13.6365 C.3       12 UNK         0.0216 
     26 CB        -58.0355  -26.4912   14.5276 C.3       12 UNK        -0.1964 
     27 N         -55.7444  -27.3590   14.4728 N.am      12 UNK        -0.4276 
     28 C         -54.6858  -26.5838   14.7243 C.2       12 UNK         0.5020 
     29 O         -54.5648  -25.4307   14.3000 O.2       12 UNK        -0.5489 
     30 CA        -53.5679  -27.2210   15.5682 C.3       11 UNK         0.0294 
     31 CB        -52.7402  -28.2068   14.7265 C.3       11 UNK        -0.2019 
     32 N         -52.6725  -26.1971   16.1054 N.am      11 UNK        -0.4493 
     33 C         -52.9125  -25.4728   17.2058 C.2       11 UNK         0.4932 
     34 O         -53.8782  -25.6614   17.9488 O.2       11 UNK        -0.5029 
     35 CA        -51.9044  -24.3483   17.5196 C.3       10 UNK         0.0280 
     36 CB        -52.0265  -23.8020   18.9583 C.3       10 UNK        -0.1976 
     37 N         -50.5192  -24.7196   17.2093 N.am      10 UNK        -0.4242 
     38 C         -49.7909  -25.7052   17.7582 C.2       10 UNK         0.5072 
     39 O         -50.1847  -26.4142   18.6856 O.2       10 UNK        -0.5224 
     40 CA        -48.3894  -25.9736   17.1714 C.3       9 UNK         0.0343 
     41 CB        -48.3665  -27.3321   16.4506 C.3       9 UNK        -0.2003 
     42 N         -47.9218  -24.9390   16.2443 N.am      9 UNK        -0.4272 
     43 C         -47.4991  -23.7186   16.6028 C.2       9 UNK         0.4988 
     44 O         -47.3839  -23.3498   17.7719 O.2       9 UNK        -0.5108 
     45 CA        -47.1887  -22.7288   15.4651 C.3       8 UNK         0.0248 
     46 CB        -45.7461  -22.9099   14.9672 C.3       8 UNK        -0.2001 
     47 N         -48.1221  -22.8299   14.3363 N.am      8 UNK        -0.4140 
     48 C         -49.4403  -22.5889   14.4159 C.2       8 UNK         0.5028 
     49 O         -50.0064  -22.2200   15.4448 O.2       8 UNK        -0.5428 
     50 CA        -50.2839  -22.8570   13.1583 C.3       7 UNK         0.0264 
     51 CB        -50.1327  -21.7161   12.1401 C.3       7 UNK        -0.1988 
     52 N         -49.9667  -24.1426   12.5302 N.am      7 UNK        -0.4454 
     53 C         -50.1443  -25.3333   13.1218 C.2       7 UNK         0.5027 
     54 O         -50.6605  -25.4665   14.2318 O.2       7 UNK        -0.5083 
     55 CA        -49.6104  -26.5868   12.3977 C.3       6 UNK         0.0844 
     56 C56       -50.6518  -27.2002   11.4273 C.3       14 UNK        -0.0967 
     57 S57       -50.5940  -29.0223   11.5070 S.3       14 UNK        -0.2604 
     58 C58       -50.1669  -29.4843    9.7994 C.3       14 UNK         0.0134 
     59 N         -48.3133  -26.3469   11.7582 N.am      6 UNK        -0.4116 
     60 C         -47.1909  -26.0594   12.4333 C.2       5 UNK         0.5034 
     61 O         -47.1157  -26.0250   13.6610 O.2       5 UNK        -0.5045 
     62 CA        -45.9590  -25.6870   11.5985 C.3       5 UNK         0.0224 
     63 CB        -45.2631  -26.9421   11.0486 C.3       5 UNK        -0.1978 
     64 N         -46.3058  -24.7750   10.5061 N.am      5 UNK        -0.4737 
     65 C         -46.6660  -23.4963   10.6900 C.2       4 UNK         0.5027 
     66 O         -46.7078  -22.9527   11.7929 O.2       4 UNK        -0.5211 
     67 CA        -47.0822  -22.6967    9.4441 C.3       4 UNK         0.0297 
     68 CB        -45.8508  -22.0682    8.7736 C.3       4 UNK        -0.1993 
     69 N         -47.8209  -23.4953    8.4636 N.am      4 UNK        -0.4486 
     70 C         -49.0177  -24.0585    8.6823 C.2       3 UNK         0.4961 
     71 O         -49.6446  -23.9570    9.7351 O.2       3 UNK        -0.5105 
     72 CA        -49.5866  -24.9277    7.5500 C.3       3 UNK         0.0299 
     73 CB        -50.3082  -24.0484    6.5159 C.3       3 UNK        -0.1972 
     74 N         -48.5740  -25.7516    6.8801 N.am      3 UNK        -0.4305 
     75 C         -47.7663  -26.6352    7.4824 C.2       2 UNK         0.5006 
     76 O         -47.7806  -26.8508    8.6964 O.2       2 UNK        -0.5106 
     77 CA        -46.8018  -27.4114    6.5664 C.3       2 UNK         0.0296 
     78 CB        -45.7600  -28.2188    7.3620 C.3       2 UNK        -0.2002 
     79 N         -47.5098  -28.3209    5.6628 N.am      2 UNK        -0.4032 
     80 C         -48.2146  -27.9784    4.5764 C.2       1 UNK         0.5000 
     81 O         -48.3672  -26.8101    4.2125 O.2       1 UNK        -0.5238 
     82 H82       -46.2266  -31.9353    2.5337 H         1 UNK         0.0889 
     83 H83       -46.7079  -33.1048    3.7644 H         1 UNK         0.0889 
     84 H84       -45.3682  -31.9973    4.0748 H         1 UNK         0.0889 
     85 H85       -47.5909  -30.1892    2.4278 H         1 UNK         0.3028 
     86 H86       -49.0952  -28.6861    2.7785 H         1 UNK         0.0864 
     87 H87       -50.3370  -30.6763    3.9831 H         1 UNK         0.0720 
     88 H88       -50.0411  -29.8186    5.4533 H         1 UNK         0.0720 
     89 H89       -52.5933  -26.8756    5.2113 H         1 UNK         0.0814 
     90 H90       -50.8802  -26.9900    5.5030 H         1 UNK         0.0814 
     91 H91       -50.0619  -28.1876    7.4189 H         1 UNK         0.1469 
     92 H92       -52.7919  -30.2541    9.9870 H         1 UNK         0.1381 
     93 H93       -54.1615  -28.6388    6.2563 H         1 UNK         0.1206 
     94 H94       -55.5376  -30.2955    7.5415 H         1 UNK         0.0813 
     95 H95       -54.9683  -30.9053    9.0780 H         1 UNK         0.0813 
     96 H96       -56.8955  -30.4552   10.7452 H         1 UNK         0.0638 
     97 H97       -57.7397  -30.3672    9.2166 H         1 UNK         0.0638 
     98 H98       -58.9236  -28.3187    9.9109 H         1 UNK         0.0568 
     99 H99       -60.7473  -31.4393   10.9876 H         1 UNK         0.3450 
    100 H100      -59.4724  -31.2107    9.8201 H         1 UNK         0.3450 
    101 H101      -58.1417  -26.9682   11.4359 H         1 UNK         0.2987 
    102 H102      -56.5922  -26.1920   12.9451 H         1 UNK         0.0766 
    103 H103      -57.7388  -25.6174   15.1082 H         1 UNK         0.0798 
    104 H104      -58.3636  -27.2619   15.2265 H         1 UNK         0.0798 
    105 H105      -58.9007  -26.2037   13.9289 H         1 UNK         0.0798 
    106 H106      -55.7466  -28.3257   14.7747 H         1 UNK         0.3198 
    107 H107      -54.0248  -27.7660   16.3973 H         1 UNK         0.0843 
    108 H108      -52.2907  -27.7162   13.8643 H         1 UNK         0.0831 
    109 H109      -53.3569  -29.0237   14.3499 H         1 UNK         0.0831 
    110 H110      -51.9358  -28.6521   15.3123 H         1 UNK         0.0831 
    111 H111      -51.8957  -25.9226   15.5055 H         1 UNK         0.3133 
    112 H112      -52.1500  -23.5315   16.8396 H         1 UNK         0.0566 
    113 H113      -51.3104  -23.0004   19.1393 H         1 UNK         0.0814 
    114 H114      -53.0215  -23.3927   19.1368 H         1 UNK         0.0814 
    115 H115      -51.8575  -24.5791   19.7041 H         1 UNK         0.0814 
    116 H116      -50.1045  -24.2017   16.4436 H         1 UNK         0.3091 
    117 H117      -47.6908  -26.0211   18.0092 H         1 UNK         0.0702 
    118 H118      -47.3730  -27.5616   16.0650 H         1 UNK         0.0785 
    119 H119      -49.0645  -27.3531   15.6133 H         1 UNK         0.0785 
    120 H120      -48.6460  -28.1405   17.1275 H         1 UNK         0.0785 
    121 H121      -47.9049  -25.1882   15.2593 H         1 UNK         0.2998 
    122 H122      -47.2808  -21.7207   15.8744 H         1 UNK         0.0697 
    123 H123      -45.5947  -23.8905   14.5152 H         1 UNK         0.0825 
    124 H124      -45.0341  -22.8148   15.7881 H         1 UNK         0.0825 
    125 H125      -45.4859  -22.1562   14.2237 H         1 UNK         0.0825 
    126 H126      -47.7211  -23.0783   13.4350 H         1 UNK         0.3029 
    127 H127      -51.3310  -22.8951   13.4674 H         1 UNK         0.0897 
    128 H128      -50.7784  -21.8685   11.2751 H         1 UNK         0.0792 
    129 H129      -50.4068  -20.7586   12.5849 H         1 UNK         0.0792 
    130 H130      -49.1079  -21.6266   11.7809 H         1 UNK         0.0792 
    131 H131      -49.6177  -24.1116   11.5739 H         1 UNK         0.3086 
    132 H132      -49.4270  -27.3068   13.1986 H         1 UNK         0.0583 
    133 H133      -51.6718  -26.9072   11.6845 H         1 UNK         0.1020 
    134 H134      -50.4974  -26.8492   10.4050 H         1 UNK         0.1020 
    135 H135      -49.2627  -28.9498    9.5047 H         1 UNK         0.0694 
    136 H136      -49.9171  -30.5457    9.7778 H         1 UNK         0.0694 
    137 H137      -48.2790  -26.3711   10.7454 H         1 UNK         0.2989 
    138 H138      -45.2556  -25.1729   12.2578 H         1 UNK         0.1055 
    139 H139      -44.9273  -27.5846   11.8636 H         1 UNK         0.0806 
    140 H140      -44.3842  -26.6838   10.4579 H         1 UNK         0.0806 
    141 H141      -45.9272  -27.5384   10.4230 H         1 UNK         0.0806 
    142 H142      -46.3682  -25.1725    9.5790 H         1 UNK         0.3061 
    143 H143      -47.7383  -21.8889    9.7744 H         1 UNK         0.0734 
    144 H144      -46.1360  -21.4256    7.9405 H         1 UNK         0.0832 
    145 H145      -45.2964  -21.4499    9.4813 H         1 UNK         0.0832 
    146 H146      -45.1631  -22.8257    8.3956 H         1 UNK         0.0832 
    147 H147      -47.3832  -23.6401    7.5654 H         1 UNK         0.3156 
    148 H148      -50.3187  -25.6058    7.9929 H         1 UNK         0.0589 
    149 H149      -49.6211  -23.3641    6.0165 H         1 UNK         0.0808 
    150 H150      -50.7982  -24.6460    5.7484 H         1 UNK         0.0808 
    151 H151      -51.0810  -23.4431    6.9922 H         1 UNK         0.0808 
    152 H152      -48.5262  -25.6976    5.8666 H         1 UNK         0.3098 
    153 H153      -46.2629  -26.6774    5.9637 H         1 UNK         0.0720 
    154 H154      -45.0595  -28.7258    6.6981 H         1 UNK         0.0791 
    155 H155      -46.2297  -28.9750    7.9928 H         1 UNK         0.0791 
    156 H156      -45.1737  -27.5673    8.0109 H         1 UNK         0.0791 
    157 H157      -47.4495  -29.3158    5.8690 H         1 UNK         0.3028 
@<TRIPOS>BOND
     1    1    2 1    
     2    1   82 1    
     3    1   83 1    
     4    1   84 1    
     5    2    3 2    
     6    2    4 am   BACKBONE|DICT|INTERRES
     7    4    5 1    
     8    4   85 1    
     9    5    6 1    
    10    5   80 1    
    11    5   86 1    
    12    6    7 1    
    13    6   87 1    
    14    6   88 1    
    15    7    8 1    
    16    8    9 1    
    17    8   89 1    
    18    8   90 1    
    19    9   10 ar   
    20    9   14 ar   
    21   10   11 ar   
    22   10   91 1    
    23   11   12 ar   
    24   11   58 1    
    25   12   13 ar   
    26   12   92 1    
    27   13   14 ar   
    28   13   15 1    
    29   14   93 1    
    30   15   16 1    
    31   15   94 1    
    32   15   95 1    
    33   16   17 1    
    34   17   18 1    
    35   17   96 1    
    36   17   97 1    
    37   18   19 1    
    38   18   22 1    
    39   18   98 1    
    40   19   20 am   BACKBONE|DICT|INTERRES
    41   19   21 2    
    42   20   99 1    
    43   20  100 1    
    44   22   23 am   BACKBONE|DICT|INTERRES
    45   22  101 1    
    46   23   24 2    
    47   23   25 1    
    48   25   26 1    
    49   25   27 1    
    50   25  102 1    
    51   26  103 1    
    52   26  104 1    
    53   26  105 1    
    54   27   28 am   BACKBONE|DICT|INTERRES
    55   27  106 1    
    56   28   29 2    
    57   28   30 1    
    58   30   31 1    
    59   30   32 1    
    60   30  107 1    
    61   31  108 1    
    62   31  109 1    
    63   31  110 1    
    64   32   33 am   BACKBONE|DICT|INTERRES
    65   32  111 1    
    66   33   34 2    
    67   33   35 1    
    68   35   36 1    
    69   35   37 1    
    70   35  112 1    
    71   36  113 1    
    72   36  114 1    
    73   36  115 1    
    74   37   38 am   BACKBONE|DICT|INTERRES
    75   37  116 1    
    76   38   39 2    
    77   38   40 1    
    78   40   41 1    
    79   40   42 1    
    80   40  117 1    
    81   41  118 1    
    82   41  119 1    
    83   41  120 1    
    84   42   43 am   BACKBONE|DICT|INTERRES
    85   42  121 1    
    86   43   44 2    
    87   43   45 1    
    88   45   46 1    
    89   45   47 1    
    90   45  122 1    
    91   46  123 1    
    92   46  124 1    
    93   46  125 1    
    94   47   48 am   BACKBONE|DICT|INTERRES
    95   47  126 1    
    96   48   49 2    
    97   48   50 1    
    98   50   51 1    
    99   50   52 1    
   100   50  127 1    
   101   51  128 1    
   102   51  129 1    
   103   51  130 1    
   104   52   53 am   BACKBONE|DICT|INTERRES
   105   52  131 1    
   106   53   54 2    
   107   53   55 1    
   108   55   56 1    
   109   55   59 1    
   110   55  132 1    
   111   56   57 1    
   112   56  133 1    
   113   56  134 1    
   114   57   58 1    
   115   58  135 1    
   116   58  136 1    
   117   59   60 am   BACKBONE|DICT|INTERRES
   118   59  137 1    
   119   60   61 2    
   120   60   62 1    
   121   62   63 1    
   122   62   64 1    
   123   62  138 1    
   124   63  139 1    
   125   63  140 1    
   126   63  141 1    
   127   64   65 am   BACKBONE|DICT|INTERRES
   128   64  142 1    
   129   65   66 2    
   130   65   67 1    
   131   67   68 1    
   132   67   69 1    
   133   67  143 1    
   134   68  144 1    
   135   68  145 1    
   136   68  146 1    
   137   69   70 am   BACKBONE|DICT|INTERRES
   138   69  147 1    
   139   70   71 2    
   140   70   72 1    
   141   72   73 1    
   142   72   74 1    
   143   72  148 1    
   144   73  149 1    
   145   73  150 1    
   146   73  151 1    
   147   74   75 am   BACKBONE|DICT|INTERRES
   148   74  152 1    
   149   75   76 2    
   150   75   77 1    
   151   77   78 1    
   152   77   79 1    
   153   77  153 1    
   154   78  154 1    
   155   78  155 1    
   156   78  156 1    
   157   79   80 am   BACKBONE|DICT|INTERRES
   158   79  157 1    
   159   80   81 2    
@<TRIPOS>SUBSTRUCTURE
     1 UNK         1 GROUP             0       ****    0 ROOT    
