@<TRIPOS>MOLECULE
3R207
157   159    1
SMALL
USER_CHARGES


@<TRIPOS>ATOM
      1 CA        -49.2370  -31.8397    5.6162 C.3       0 UNK        -0.1975 
      2 C         -48.5862  -30.8678    4.6425 C.2       0 UNK         0.4852 
      3 O         -47.8510  -31.2936    3.7500 O.2       0 UNK        -0.5216 
      4 N         -48.8628  -29.5679    4.8023 N.am      1 UNK        -0.4461 
      5 CA        -48.3026  -28.4729    4.0004 C.3       1 UNK         0.0864 
      6 C6        -49.1010  -27.1348    4.1270 C.3       14 UNK        -0.0898 
      7 S7        -50.8366  -27.2686    4.6878 S.3       14 UNK        -0.2598 
      8 C8        -50.5800  -26.8544    6.4400 C.3       14 UNK         0.0286 
      9 C9        -51.8607  -26.9104    7.2518 C.ar      14 UNK        -0.0844 
     10 C10       -52.4869  -25.7274    7.6547 C.ar      14 UNK        -0.0881 
     11 C11       -53.6237  -25.7703    8.4656 C.ar      14 UNK        -0.0643 
     12 C12       -54.1434  -27.0065    8.8575 C.ar      14 UNK        -0.0930 
     13 C13       -53.5158  -28.1936    8.4742 C.ar      14 UNK        -0.0827 
     14 C14       -52.3829  -28.1422    7.6578 C.ar      14 UNK        -0.1249 
     15 C15       -54.0437  -29.5233    8.9827 C.3       14 UNK         0.0141 
     16 S16       -53.1882  -29.9962   10.5184 S.3       14 UNK        -0.2313 
     17 C17       -54.3701  -31.1881   11.2408 C.3       14 UNK        -0.0915 
     18 CA        -54.8987  -30.7667   12.6404 C.3       13 UNK         0.0968 
     19 C         -53.8535  -31.0188   13.7699 C.2       13 UNK         0.5732 
     20 N         -53.4446  -30.0262   14.5522 N.am      13 UNK        -0.7310 
     21 O         -53.4167  -32.1527   13.9535 O.2       13 UNK        -0.5035 
     22 N         -55.4681  -29.4111   12.6210 N.am      13 UNK        -0.4233 
     23 C         -56.3701  -28.9513   13.4936 C.2       13 UNK         0.4989 
     24 O         -56.9422  -29.6478   14.3350 O.2       13 UNK        -0.4996 
     25 CA        -56.6694  -27.4438   13.4299 C.3       12 UNK         0.0216 
     26 CB        -58.1132  -27.1856   12.9693 C.3       12 UNK        -0.1964 
     27 N         -56.4434  -26.8050   14.7295 N.am      12 UNK        -0.4276 
     28 C         -55.2532  -26.7430   15.3397 C.2       12 UNK         0.5020 
     29 O         -54.2102  -27.1863   14.8517 O.2       12 UNK        -0.5489 
     30 CA        -55.2195  -26.1163   16.7364 C.3       11 UNK         0.0294 
     31 CB        -55.4423  -27.2013   17.8082 C.3       11 UNK        -0.2019 
     32 N         -53.9166  -25.4811   16.9061 N.am      11 UNK        -0.4493 
     33 C         -53.5382  -24.6685   17.8995 C.2       11 UNK         0.4932 
     34 O         -54.2811  -24.3266   18.8214 O.2       11 UNK        -0.5029 
     35 CA        -52.0890  -24.1398   17.8419 C.3       10 UNK         0.0280 
     36 CB        -51.5604  -23.6580   19.2097 C.3       10 UNK        -0.1976 
     37 N         -51.1613  -25.0882   17.2130 N.am      10 UNK        -0.4242 
     38 C         -50.8120  -26.3085   17.6483 C.2       10 UNK         0.5072 
     39 O         -51.1619  -26.7845   18.7291 O.2       10 UNK        -0.5224 
     40 CA        -49.9463  -27.1652   16.7064 C.3       9 UNK         0.0343 
     41 CB        -50.8268  -28.1882   15.9717 C.3       9 UNK        -0.2003 
     42 N         -49.2018  -26.3794   15.7180 N.am      9 UNK        -0.4272 
     43 C         -48.0967  -25.6704   15.9899 C.2       9 UNK         0.4988 
     44 O         -47.5580  -25.6384   17.0970 O.2       9 UNK        -0.5108 
     45 CA        -47.5014  -24.8405   14.8382 C.3       8 UNK         0.0248 
     46 CB        -46.7099  -25.7331   13.8688 C.3       8 UNK        -0.2001 
     47 N         -48.5162  -24.0856   14.0990 N.am      8 UNK        -0.4140 
     48 C         -49.2618  -23.0984   14.6179 C.2       8 UNK         0.5028 
     49 O         -49.1474  -22.6792   15.7695 O.2       8 UNK        -0.5428 
     50 CA        -50.3446  -22.4992   13.7093 C.3       7 UNK         0.0264 
     51 CB        -49.7603  -21.4071   12.7993 C.3       7 UNK        -0.1988 
     52 N         -50.9991  -23.5268   12.8992 N.am      7 UNK        -0.4454 
     53 C         -51.8839  -24.4109   13.3817 C.2       7 UNK         0.5027 
     54 O         -52.2580  -24.4264   14.5538 O.2       7 UNK        -0.5083 
     55 CA        -52.4303  -25.4702   12.4036 C.3       6 UNK         0.0844 
     56 C56       -53.7024  -24.9590   11.6824 C.3       14 UNK        -0.0967 
     57 S57       -53.3753  -23.7511   10.3452 S.3       14 UNK        -0.2604 
     58 C58       -54.2741  -24.4800    8.9382 C.3       14 UNK         0.0134 
     59 N         -51.4073  -25.9914   11.4911 N.am      6 UNK        -0.4116 
     60 C         -50.3146  -26.6611   11.8884 C.2       5 UNK         0.5034 
     61 O         -50.0761  -26.9507   13.0600 O.2       5 UNK        -0.5045 
     62 CA        -49.2712  -27.0125   10.8150 C.3       5 UNK         0.0224 
     63 CB        -49.6058  -28.3565   10.1527 C.3       5 UNK        -0.1978 
     64 N         -49.0931  -25.9810    9.7878 N.am      5 UNK        -0.4737 
     65 C         -48.7688  -24.7033   10.0212 C.2       4 UNK         0.5027 
     66 O         -48.6152  -24.2332   11.1499 O.2       4 UNK        -0.5211 
     67 CA        -48.5692  -23.8147    8.7812 C.3       4 UNK         0.0297 
     68 CB        -48.7714  -22.3228    9.1026 C.3       4 UNK        -0.1993 
     69 N         -47.2393  -24.0051    8.1974 N.am      4 UNK        -0.4486 
     70 C         -46.8509  -25.0805    7.5013 C.2       3 UNK         0.4961 
     71 O         -47.5857  -26.0410    7.2595 O.2       3 UNK        -0.5105 
     72 CA        -45.3998  -25.0871    7.0037 C.3       3 UNK         0.0299 
     73 CB        -44.4355  -25.5018    8.1279 C.3       3 UNK        -0.1972 
     74 N         -45.2907  -26.0350    5.8988 N.am      3 UNK        -0.4305 
     75 C         -44.5917  -25.8730    4.7715 C.2       2 UNK         0.5006 
     76 O         -43.8563  -24.9074    4.5617 O.2       2 UNK        -0.5106 
     77 CA        -44.7471  -26.9432    3.6685 C.3       2 UNK         0.0296 
     78 CB        -43.7072  -28.0694    3.8350 C.3       2 UNK        -0.2002 
     79 N         -46.1135  -27.4745    3.5085 N.am      2 UNK        -0.4032 
     80 C         -46.8191  -28.2320    4.3624 C.2       1 UNK         0.5000 
     81 O         -46.3694  -28.6459    5.4351 O.2       1 UNK        -0.5238 
     82 H82       -49.8718  -31.3285    6.3400 H         1 UNK         0.0889 
     83 H83       -48.4720  -32.3886    6.1646 H         1 UNK         0.0889 
     84 H84       -49.8514  -32.5587    5.0749 H         1 UNK         0.0889 
     85 H85       -49.4795  -29.2771    5.5456 H         1 UNK         0.3028 
     86 H86       -48.3398  -28.7917    2.9561 H         1 UNK         0.0864 
     87 H87       -48.5991  -26.4237    4.7868 H         1 UNK         0.0720 
     88 H88       -49.1151  -26.6385    3.1553 H         1 UNK         0.0720 
     89 H89       -50.1431  -25.8570    6.5024 H         1 UNK         0.0814 
     90 H90       -49.8485  -27.5377    6.8739 H         1 UNK         0.0814 
     91 H91       -52.0801  -24.7702    7.3576 H         1 UNK         0.1469 
     92 H92       -55.0230  -27.0464    9.4846 H         1 UNK         0.1381 
     93 H93       -51.8882  -29.0590    7.3675 H         1 UNK         0.1206 
     94 H94       -55.1180  -29.4493    9.1585 H         1 UNK         0.0813 
     95 H95       -53.9040  -30.3028    8.2322 H         1 UNK         0.0813 
     96 H96       -53.8914  -32.1682   11.2809 H         1 UNK         0.0638 
     97 H97       -55.2162  -31.3133   10.5641 H         1 UNK         0.0638 
     98 H98       -55.7181  -31.4496   12.8723 H         1 UNK         0.0568 
     99 H99       -53.7929  -29.0789   14.4459 H         1 UNK         0.3450 
    100 H100      -52.7740  -30.2290   15.2738 H         1 UNK         0.3450 
    101 H101      -55.0188  -28.7700   11.9852 H         1 UNK         0.2987 
    102 H102      -55.9951  -26.9765   12.7095 H         1 UNK         0.0766 
    103 H103      -58.3156  -26.1186   12.8738 H         1 UNK         0.0798 
    104 H104      -58.8411  -27.6055   13.6648 H         1 UNK         0.0798 
    105 H105      -58.2974  -27.6375   11.9936 H         1 UNK         0.0798 
    106 H106      -57.2602  -26.4611   15.2136 H         1 UNK         0.3198 
    107 H107      -55.9960  -25.3523   16.8091 H         1 UNK         0.0843 
    108 H108      -56.3885  -27.7206   17.6505 H         1 UNK         0.0831 
    109 H109      -55.4728  -26.7776   18.8118 H         1 UNK         0.0831 
    110 H110      -54.6507  -27.9517   17.7862 H         1 UNK         0.0831 
    111 H111      -53.2695  -25.6590   16.1431 H         1 UNK         0.3133 
    112 H112      -52.1143  -23.2726   17.1804 H         1 UNK         0.0566 
    113 H113      -50.5371  -23.2906   19.1309 H         1 UNK         0.0814 
    114 H114      -52.1686  -22.8397   19.5967 H         1 UNK         0.0814 
    115 H115      -51.5766  -24.4534   19.9552 H         1 UNK         0.0814 
    116 H116      -50.8561  -24.8236   16.2852 H         1 UNK         0.3091 
    117 H117      -49.2310  -27.7129   17.3235 H         1 UNK         0.0702 
    118 H118      -50.2283  -28.8554   15.3512 H         1 UNK         0.0785 
    119 H119      -51.5564  -27.6980   15.3255 H         1 UNK         0.0785 
    120 H120      -51.3805  -28.8077   16.6783 H         1 UNK         0.0785 
    121 H121      -49.5462  -26.4130   14.7601 H         1 UNK         0.2998 
    122 H122      -46.8084  -24.1173   15.2731 H         1 UNK         0.0697 
    123 H123      -47.3399  -26.5009   13.4205 H         1 UNK         0.0825 
    124 H124      -45.8963  -26.2426   14.3867 H         1 UNK         0.0825 
    125 H125      -46.2670  -25.1495   13.0613 H         1 UNK         0.0825 
    126 H126      -48.6450  -24.3181   13.1177 H         1 UNK         0.3029 
    127 H127      -51.0991  -22.0365   14.3498 H         1 UNK         0.0897 
    128 H128      -50.5272  -20.9698   12.1598 H         1 UNK         0.0792 
    129 H129      -49.3323  -20.5979   13.3924 H         1 UNK         0.0792 
    130 H130      -48.9670  -21.7920   12.1586 H         1 UNK         0.0792 
    131 H131      -50.6946  -23.6151   11.9391 H         1 UNK         0.3086 
    132 H132      -52.7330  -26.3190   13.0168 H         1 UNK         0.0583 
    133 H133      -54.2441  -25.8135   11.2838 H         1 UNK         0.1020 
    134 H134      -54.3940  -24.5064   12.3965 H         1 UNK         0.1020 
    135 H135      -55.3153  -24.6483    9.2182 H         1 UNK         0.0694 
    136 H136      -54.2914  -23.7596    8.1191 H         1 UNK         0.0694 
    137 H137      -51.5298  -25.7878   10.5096 H         1 UNK         0.2989 
    138 H138      -48.3108  -27.1198   11.3222 H         1 UNK         0.1055 
    139 H139      -49.6569  -29.1537   10.8958 H         1 UNK         0.0806 
    140 H140      -48.8509  -28.6428    9.4202 H         1 UNK         0.0806 
    141 H141      -50.5712  -28.3255    9.6510 H         1 UNK         0.0806 
    142 H142      -49.0817  -26.2916    8.8241 H         1 UNK         0.3061 
    143 H143      -49.3217  -24.0960    8.0418 H         1 UNK         0.0734 
    144 H144      -49.7515  -22.1498    9.5496 H         1 UNK         0.0832 
    145 H145      -48.0230  -21.9529    9.8046 H         1 UNK         0.0832 
    146 H146      -48.7162  -21.7119    8.2015 H         1 UNK         0.0832 
    147 H147      -46.5618  -23.2789    8.3815 H         1 UNK         0.3156 
    148 H148      -45.1515  -24.0813    6.6586 H         1 UNK         0.0589 
    149 H149      -44.6666  -26.4980    8.5077 H         1 UNK         0.0808 
    150 H150      -43.4025  -25.5087    7.7795 H         1 UNK         0.0808 
    151 H151      -44.4885  -24.8102    8.9696 H         1 UNK         0.0808 
    152 H152      -45.8794  -26.8615    5.9838 H         1 UNK         0.3098 
    153 H153      -44.5252  -26.4407    2.7256 H         1 UNK         0.0720 
    154 H154      -43.7766  -28.7966    3.0260 H         1 UNK         0.0791 
    155 H155      -43.8268  -28.6035    4.7780 H         1 UNK         0.0791 
    156 H156      -42.6941  -27.6653    3.8218 H         1 UNK         0.0791 
    157 H157      -46.5867  -27.1560    2.6736 H         1 UNK         0.3028 
@<TRIPOS>BOND
     1    1    2 1    
     2    1   82 1    
     3    1   83 1    
     4    1   84 1    
     5    2    3 2    
     6    2    4 am   BACKBONE|DICT|INTERRES
     7    4    5 1    
     8    4   85 1    
     9    5    6 1    
    10    5   80 1    
    11    5   86 1    
    12    6    7 1    
    13    6   87 1    
    14    6   88 1    
    15    7    8 1    
    16    8    9 1    
    17    8   89 1    
    18    8   90 1    
    19    9   10 ar   
    20    9   14 ar   
    21   10   11 ar   
    22   10   91 1    
    23   11   12 ar   
    24   11   58 1    
    25   12   13 ar   
    26   12   92 1    
    27   13   14 ar   
    28   13   15 1    
    29   14   93 1    
    30   15   16 1    
    31   15   94 1    
    32   15   95 1    
    33   16   17 1    
    34   17   18 1    
    35   17   96 1    
    36   17   97 1    
    37   18   19 1    
    38   18   22 1    
    39   18   98 1    
    40   19   20 am   BACKBONE|DICT|INTERRES
    41   19   21 2    
    42   20   99 1    
    43   20  100 1    
    44   22   23 am   BACKBONE|DICT|INTERRES
    45   22  101 1    
    46   23   24 2    
    47   23   25 1    
    48   25   26 1    
    49   25   27 1    
    50   25  102 1    
    51   26  103 1    
    52   26  104 1    
    53   26  105 1    
    54   27   28 am   BACKBONE|DICT|INTERRES
    55   27  106 1    
    56   28   29 2    
    57   28   30 1    
    58   30   31 1    
    59   30   32 1    
    60   30  107 1    
    61   31  108 1    
    62   31  109 1    
    63   31  110 1    
    64   32   33 am   BACKBONE|DICT|INTERRES
    65   32  111 1    
    66   33   34 2    
    67   33   35 1    
    68   35   36 1    
    69   35   37 1    
    70   35  112 1    
    71   36  113 1    
    72   36  114 1    
    73   36  115 1    
    74   37   38 am   BACKBONE|DICT|INTERRES
    75   37  116 1    
    76   38   39 2    
    77   38   40 1    
    78   40   41 1    
    79   40   42 1    
    80   40  117 1    
    81   41  118 1    
    82   41  119 1    
    83   41  120 1    
    84   42   43 am   BACKBONE|DICT|INTERRES
    85   42  121 1    
    86   43   44 2    
    87   43   45 1    
    88   45   46 1    
    89   45   47 1    
    90   45  122 1    
    91   46  123 1    
    92   46  124 1    
    93   46  125 1    
    94   47   48 am   BACKBONE|DICT|INTERRES
    95   47  126 1    
    96   48   49 2    
    97   48   50 1    
    98   50   51 1    
    99   50   52 1    
   100   50  127 1    
   101   51  128 1    
   102   51  129 1    
   103   51  130 1    
   104   52   53 am   BACKBONE|DICT|INTERRES
   105   52  131 1    
   106   53   54 2    
   107   53   55 1    
   108   55   56 1    
   109   55   59 1    
   110   55  132 1    
   111   56   57 1    
   112   56  133 1    
   113   56  134 1    
   114   57   58 1    
   115   58  135 1    
   116   58  136 1    
   117   59   60 am   BACKBONE|DICT|INTERRES
   118   59  137 1    
   119   60   61 2    
   120   60   62 1    
   121   62   63 1    
   122   62   64 1    
   123   62  138 1    
   124   63  139 1    
   125   63  140 1    
   126   63  141 1    
   127   64   65 am   BACKBONE|DICT|INTERRES
   128   64  142 1    
   129   65   66 2    
   130   65   67 1    
   131   67   68 1    
   132   67   69 1    
   133   67  143 1    
   134   68  144 1    
   135   68  145 1    
   136   68  146 1    
   137   69   70 am   BACKBONE|DICT|INTERRES
   138   69  147 1    
   139   70   71 2    
   140   70   72 1    
   141   72   73 1    
   142   72   74 1    
   143   72  148 1    
   144   73  149 1    
   145   73  150 1    
   146   73  151 1    
   147   74   75 am   BACKBONE|DICT|INTERRES
   148   74  152 1    
   149   75   76 2    
   150   75   77 1    
   151   77   78 1    
   152   77   79 1    
   153   77  153 1    
   154   78  154 1    
   155   78  155 1    
   156   78  156 1    
   157   79   80 am   BACKBONE|DICT|INTERRES
   158   79  157 1    
   159   80   81 2    
@<TRIPOS>SUBSTRUCTURE
     1 UNK         1 GROUP             0       ****    0 ROOT    
