@<TRIPOS>MOLECULE
3R207
157   159    1
SMALL
USER_CHARGES


@<TRIPOS>ATOM
      1 CA        -45.3562  -31.3909    5.0226 C.3       0 UNK        -0.1975 
      2 C         -46.2149  -30.2725    5.5936 C.2       0 UNK         0.4852 
      3 O         -45.7774  -29.5792    6.5129 O.2       0 UNK        -0.5216 
      4 N         -47.4232  -30.0845    5.0428 N.am      1 UNK        -0.4461 
      5 CA        -48.4601  -29.1082    5.4200 C.3       1 UNK         0.0864 
      6 C6        -48.9851  -29.2778    6.8726 C.3       14 UNK        -0.0898 
      7 S7        -49.9390  -30.8162    7.1135 S.3       14 UNK        -0.2598 
      8 C8        -51.5564  -30.4225    6.3622 C.3       14 UNK         0.0286 
      9 C9        -52.3204  -29.3464    7.1223 C.ar      14 UNK        -0.0844 
     10 C10       -52.1428  -28.0006    6.7949 C.ar      14 UNK        -0.0881 
     11 C11       -52.8232  -26.9988    7.4905 C.ar      14 UNK        -0.0643 
     12 C12       -53.7311  -27.3524    8.4934 C.ar      14 UNK        -0.0930 
     13 C13       -53.9601  -28.6999    8.7936 C.ar      14 UNK        -0.0827 
     14 C14       -53.2366  -29.6909    8.1205 C.ar      14 UNK        -0.1249 
     15 C15       -55.0476  -29.0947    9.7805 C.3       14 UNK         0.0141 
     16 S16       -54.3939  -29.5536   11.4155 S.3       14 UNK        -0.2313 
     17 C17       -55.9211  -30.2134   12.1685 C.3       14 UNK        -0.0915 
     18 CA        -56.5505  -29.2368   13.2070 C.3       13 UNK         0.0968 
     19 C         -58.0691  -29.5022   13.4636 C.2       13 UNK         0.5732 
     20 N         -58.5966  -29.2882   14.6648 N.am      13 UNK        -0.7310 
     21 O         -58.8008  -29.8721   12.5481 O.2       13 UNK        -0.5035 
     22 N         -55.7488  -29.1005   14.4344 N.am      13 UNK        -0.4233 
     23 C         -55.5296  -30.0656   15.3427 C.2       13 UNK         0.4989 
     24 O         -55.8374  -31.2475   15.1851 O.2       13 UNK        -0.4996 
     25 CA        -54.9087  -29.6437   16.6881 C.3       12 UNK         0.0216 
     26 CB        -53.4193  -30.0191   16.7367 C.3       12 UNK        -0.1964 
     27 N         -55.0862  -28.2183   16.9958 N.am      12 UNK        -0.4276 
     28 C         -56.2804  -27.6366   17.2012 C.2       12 UNK         0.5020 
     29 O         -57.3427  -28.2610   17.2051 O.2       12 UNK        -0.5489 
     30 CA        -56.3258  -26.1079   17.3849 C.3       11 UNK         0.0294 
     31 CB        -56.4435  -25.7517   18.8754 C.3       11 UNK        -0.2019 
     32 N         -55.1863  -25.3908   16.8081 N.am      11 UNK        -0.4493 
     33 C         -54.8307  -25.3856   15.5156 C.2       11 UNK         0.4932 
     34 O         -55.4426  -25.9904   14.6330 O.2       11 UNK        -0.5029 
     35 CA        -53.5364  -24.6286   15.1551 C.3       10 UNK         0.0280 
     36 CB        -53.0520  -23.6504   16.2486 C.3       10 UNK        -0.1976 
     37 N         -52.4530  -25.5466   14.7884 N.am      10 UNK        -0.4242 
     38 C         -52.0294  -26.6167   15.4797 C.2       10 UNK         0.5072 
     39 O         -52.4879  -26.9637   16.5699 O.2       10 UNK        -0.5224 
     40 CA        -50.9001  -27.4416   14.8449 C.3       9 UNK         0.0343 
     41 CB        -51.3629  -28.1066   13.5364 C.3       9 UNK        -0.2003 
     42 N         -49.7044  -26.6355   14.6023 N.am      9 UNK        -0.4272 
     43 C         -48.9240  -26.1238   15.5661 C.2       9 UNK         0.4988 
     44 O         -49.0814  -26.3405   16.7682 O.2       9 UNK        -0.5108 
     45 CA        -47.7690  -25.2124   15.1188 C.3       8 UNK         0.0248 
     46 CB        -46.5506  -26.0500   14.6993 C.3       8 UNK        -0.2001 
     47 N         -48.1519  -24.3022   14.0361 N.am      8 UNK        -0.4140 
     48 C         -49.0378  -23.3037   14.1694 C.2       8 UNK         0.5028 
     49 O         -49.5647  -22.9943   15.2382 O.2       8 UNK        -0.5428 
     50 CA        -49.4120  -22.5177   12.9017 C.3       7 UNK         0.0264 
     51 CB        -48.3914  -21.4001   12.6343 C.3       7 UNK        -0.1988 
     52 N         -49.5399  -23.3588   11.7099 N.am      7 UNK        -0.4454 
     53 C         -50.4644  -24.3176   11.5393 C.2       7 UNK         0.5027 
     54 O         -51.3320  -24.5956   12.3678 O.2       7 UNK        -0.5083 
     55 CA        -50.3813  -25.1211   10.2247 C.3       6 UNK         0.0844 
     56 C56       -50.9672  -24.2653    9.0714 C.3       14 UNK        -0.0967 
     57 S57       -50.8758  -25.0334    7.4227 S.3       14 UNK        -0.2604 
     58 C58       -52.5961  -25.5441    7.1117 C.3       14 UNK         0.0134 
     59 N         -49.0115  -25.6004    9.9866 N.am      6 UNK        -0.4116 
     60 C         -48.3202  -26.3819   10.8343 C.2       5 UNK         0.5034 
     61 O         -48.7931  -26.8668   11.8616 O.2       5 UNK        -0.5045 
     62 CA        -46.8283  -26.6019   10.5424 C.3       5 UNK         0.0224 
     63 CB        -46.6047  -27.7849    9.5886 C.3       5 UNK        -0.1978 
     64 N         -46.1950  -25.3940   10.0125 N.am      5 UNK        -0.4737 
     65 C         -45.9038  -24.3142   10.7508 C.2       4 UNK         0.5027 
     66 O         -46.0930  -24.2499   11.9641 O.2       4 UNK        -0.5211 
     67 CA        -45.3428  -23.0875   10.0107 C.3       4 UNK         0.0297 
     68 CB        -43.8167  -23.1960    9.8691 C.3       4 UNK        -0.1993 
     69 N         -45.9459  -22.8956    8.6901 N.am      4 UNK        -0.4486 
     70 C         -47.2353  -22.5927    8.4844 C.2       3 UNK         0.4961 
     71 O         -48.0389  -22.3737    9.3913 O.2       3 UNK        -0.5105 
     72 CA        -47.7216  -22.5876    7.0224 C.3       3 UNK         0.0299 
     73 CB        -47.5238  -21.1982    6.3966 C.3       3 UNK        -0.1972 
     74 N         -47.0943  -23.6078    6.1679 N.am      3 UNK        -0.4305 
     75 C         -47.0963  -24.9250    6.4197 C.2       2 UNK         0.5006 
     76 O         -47.5673  -25.4187    7.4443 O.2       2 UNK        -0.5106 
     77 CA        -46.3932  -25.8329    5.3970 C.3       2 UNK         0.0296 
     78 CB        -44.8745  -25.8277    5.6382 C.3       2 UNK        -0.2002 
     79 N         -46.8743  -27.2136    5.4859 N.am      2 UNK        -0.4032 
     80 C         -48.0904  -27.6372    5.1212 C.2       1 UNK         0.5000 
     81 O         -48.9129  -26.9220    4.5453 O.2       1 UNK        -0.5238 
     82 H82       -44.4213  -30.9856    4.6366 H         1 UNK         0.0889 
     83 H83       -45.8580  -31.9190    4.2121 H         1 UNK         0.0889 
     84 H84       -45.1182  -32.1140    5.8022 H         1 UNK         0.0889 
     85 H85       -47.6871  -30.6838    4.2728 H         1 UNK         0.3028 
     86 H86       -49.2917  -29.3209    4.7475 H         1 UNK         0.0864 
     87 H87       -48.1536  -29.3052    7.5750 H         1 UNK         0.0720 
     88 H88       -49.5857  -28.4269    7.1914 H         1 UNK         0.0720 
     89 H89       -52.1511  -31.3367    6.3289 H         1 UNK         0.0814 
     90 H90       -51.4195  -30.1233    5.3226 H         1 UNK         0.0814 
     91 H91       -51.4574  -27.7233    6.0050 H         1 UNK         0.1469 
     92 H92       -54.2846  -26.5829    9.0140 H         1 UNK         0.1381 
     93 H93       -53.4069  -30.7325    8.3574 H         1 UNK         0.1206 
     94 H94       -55.6041  -29.9352    9.3628 H         1 UNK         0.0813 
     95 H95       -55.7678  -28.2837    9.9010 H         1 UNK         0.0813 
     96 H96       -55.6934  -31.1788   12.6200 H         1 UNK         0.0638 
     97 H97       -56.6259  -30.4383   11.3672 H         1 UNK         0.0638 
     98 H98       -56.5432  -28.2437   12.7567 H         1 UNK         0.0568 
     99 H99       -59.5811  -29.4538   14.7988 H         1 UNK         0.3450 
    100 H100      -58.0332  -28.9681   15.4450 H         1 UNK         0.3450 
    101 H101      -55.4813  -28.1503   14.6619 H         1 UNK         0.2987 
    102 H102      -55.4210  -30.2082   17.4701 H         1 UNK         0.0766 
    103 H103      -52.9586  -29.7121   17.6759 H         1 UNK         0.0798 
    104 H104      -52.8609  -29.5617   15.9212 H         1 UNK         0.0798 
    105 H105      -53.2891  -31.0986   16.6488 H         1 UNK         0.0798 
    106 H106      -54.2475  -27.6405   16.9799 H         1 UNK         0.3198 
    107 H107      -57.2241  -25.7523   16.8759 H         1 UNK         0.0843 
    108 H108      -55.5589  -26.0586   19.4351 H         1 UNK         0.0831 
    109 H109      -57.3032  -26.2480   19.3283 H         1 UNK         0.0831 
    110 H110      -56.5794  -24.6797   19.0197 H         1 UNK         0.0831 
    111 H111      -54.5894  -24.8986   17.4572 H         1 UNK         0.3133 
    112 H112      -53.7614  -24.0433   14.2624 H         1 UNK         0.0566 
    113 H113      -52.2170  -23.0513   15.8857 H         1 UNK         0.0814 
    114 H114      -53.8394  -22.9521   16.5360 H         1 UNK         0.0814 
    115 H115      -52.7119  -24.1667   17.1471 H         1 UNK         0.0814 
    116 H116      -52.0039  -25.3410   13.8966 H         1 UNK         0.3091 
    117 H117      -50.6339  -28.2346   15.5470 H         1 UNK         0.0702 
    118 H118      -50.6026  -28.7853   13.1495 H         1 UNK         0.0785 
    119 H119      -51.5762  -27.3739   12.7572 H         1 UNK         0.0785 
    120 H120      -52.2712  -28.6908   13.6896 H         1 UNK         0.0785 
    121 H121      -49.4605  -26.4649   13.6304 H         1 UNK         0.2998 
    122 H122      -47.4776  -24.6019   15.9761 H         1 UNK         0.0697 
    123 H123      -46.7732  -26.6837   13.8411 H         1 UNK         0.0825 
    124 H124      -46.2292  -26.7033   15.5115 H         1 UNK         0.0825 
    125 H125      -45.7027  -25.4162   14.4391 H         1 UNK         0.0825 
    126 H126      -47.6840  -24.4282   13.1435 H         1 UNK         0.3029 
    127 H127      -50.3847  -22.0545   13.0812 H         1 UNK         0.0897 
    128 H128      -48.6901  -20.7853   11.7849 H         1 UNK         0.0792 
    129 H129      -48.3001  -20.7395   13.4975 H         1 UNK         0.0792 
    130 H130      -47.3997  -21.8014   12.4229 H         1 UNK         0.0792 
    131 H131      -48.8935  -23.1654   10.9483 H         1 UNK         0.3086 
    132 H132      -51.0104  -26.0068   10.3373 H         1 UNK         0.0583 
    133 H133      -52.0052  -24.0089    9.2905 H         1 UNK         0.1020 
    134 H134      -50.4460  -23.3099    8.9983 H         1 UNK         0.1020 
    135 H135      -53.2956  -24.8835    7.6253 H         1 UNK         0.0694 
    136 H136      -52.8008  -25.4281    6.0465 H         1 UNK         0.0694 
    137 H137      -48.5637  -25.3053    9.1232 H         1 UNK         0.2989 
    138 H138      -46.3442  -26.8498   11.4892 H         1 UNK         0.1055 
    139 H139      -47.0713  -28.6919    9.9755 H         1 UNK         0.0806 
    140 H140      -45.5431  -27.9964    9.4600 H         1 UNK         0.0806 
    141 H141      -47.0257  -27.5986    8.6028 H         1 UNK         0.0806 
    142 H142      -46.1223  -25.3319    9.0050 H         1 UNK         0.3061 
    143 H143      -45.5683  -22.2057   10.6143 H         1 UNK         0.0734 
    144 H144      -43.3942  -22.2977    9.4186 H         1 UNK         0.0832 
    145 H145      -43.3441  -23.3197   10.8448 H         1 UNK         0.0832 
    146 H146      -43.5253  -24.0501    9.2563 H         1 UNK         0.0832 
    147 H147      -45.3577  -23.0567    7.8858 H         1 UNK         0.3156 
    148 H148      -48.7922  -22.7992    7.0395 H         1 UNK         0.0589 
    149 H149      -46.4678  -20.9398    6.3085 H         1 UNK         0.0808 
    150 H150      -47.9686  -21.1427    5.4029 H         1 UNK         0.0808 
    151 H151      -47.9985  -20.4261    7.0042 H         1 UNK         0.0808 
    152 H152      -46.6688  -23.2797    5.3125 H         1 UNK         0.3098 
    153 H153      -46.6001  -25.4577    4.3927 H         1 UNK         0.0720 
    154 H154      -44.3568  -26.4533    4.9106 H         1 UNK         0.0791 
    155 H155      -44.6237  -26.1975    6.6337 H         1 UNK         0.0791 
    156 H156      -44.4620  -24.8220    5.5484 H         1 UNK         0.0791 
    157 H157      -46.2835  -27.8854    5.9705 H         1 UNK         0.3028 
@<TRIPOS>BOND
     1    1    2 1    
     2    1   82 1    
     3    1   83 1    
     4    1   84 1    
     5    2    3 2    
     6    2    4 am   BACKBONE|DICT|INTERRES
     7    4    5 1    
     8    4   85 1    
     9    5    6 1    
    10    5   80 1    
    11    5   86 1    
    12    6    7 1    
    13    6   87 1    
    14    6   88 1    
    15    7    8 1    
    16    8    9 1    
    17    8   89 1    
    18    8   90 1    
    19    9   10 ar   
    20    9   14 ar   
    21   10   11 ar   
    22   10   91 1    
    23   11   12 ar   
    24   11   58 1    
    25   12   13 ar   
    26   12   92 1    
    27   13   14 ar   
    28   13   15 1    
    29   14   93 1    
    30   15   16 1    
    31   15   94 1    
    32   15   95 1    
    33   16   17 1    
    34   17   18 1    
    35   17   96 1    
    36   17   97 1    
    37   18   19 1    
    38   18   22 1    
    39   18   98 1    
    40   19   20 am   BACKBONE|DICT|INTERRES
    41   19   21 2    
    42   20   99 1    
    43   20  100 1    
    44   22   23 am   BACKBONE|DICT|INTERRES
    45   22  101 1    
    46   23   24 2    
    47   23   25 1    
    48   25   26 1    
    49   25   27 1    
    50   25  102 1    
    51   26  103 1    
    52   26  104 1    
    53   26  105 1    
    54   27   28 am   BACKBONE|DICT|INTERRES
    55   27  106 1    
    56   28   29 2    
    57   28   30 1    
    58   30   31 1    
    59   30   32 1    
    60   30  107 1    
    61   31  108 1    
    62   31  109 1    
    63   31  110 1    
    64   32   33 am   BACKBONE|DICT|INTERRES
    65   32  111 1    
    66   33   34 2    
    67   33   35 1    
    68   35   36 1    
    69   35   37 1    
    70   35  112 1    
    71   36  113 1    
    72   36  114 1    
    73   36  115 1    
    74   37   38 am   BACKBONE|DICT|INTERRES
    75   37  116 1    
    76   38   39 2    
    77   38   40 1    
    78   40   41 1    
    79   40   42 1    
    80   40  117 1    
    81   41  118 1    
    82   41  119 1    
    83   41  120 1    
    84   42   43 am   BACKBONE|DICT|INTERRES
    85   42  121 1    
    86   43   44 2    
    87   43   45 1    
    88   45   46 1    
    89   45   47 1    
    90   45  122 1    
    91   46  123 1    
    92   46  124 1    
    93   46  125 1    
    94   47   48 am   BACKBONE|DICT|INTERRES
    95   47  126 1    
    96   48   49 2    
    97   48   50 1    
    98   50   51 1    
    99   50   52 1    
   100   50  127 1    
   101   51  128 1    
   102   51  129 1    
   103   51  130 1    
   104   52   53 am   BACKBONE|DICT|INTERRES
   105   52  131 1    
   106   53   54 2    
   107   53   55 1    
   108   55   56 1    
   109   55   59 1    
   110   55  132 1    
   111   56   57 1    
   112   56  133 1    
   113   56  134 1    
   114   57   58 1    
   115   58  135 1    
   116   58  136 1    
   117   59   60 am   BACKBONE|DICT|INTERRES
   118   59  137 1    
   119   60   61 2    
   120   60   62 1    
   121   62   63 1    
   122   62   64 1    
   123   62  138 1    
   124   63  139 1    
   125   63  140 1    
   126   63  141 1    
   127   64   65 am   BACKBONE|DICT|INTERRES
   128   64  142 1    
   129   65   66 2    
   130   65   67 1    
   131   67   68 1    
   132   67   69 1    
   133   67  143 1    
   134   68  144 1    
   135   68  145 1    
   136   68  146 1    
   137   69   70 am   BACKBONE|DICT|INTERRES
   138   69  147 1    
   139   70   71 2    
   140   70   72 1    
   141   72   73 1    
   142   72   74 1    
   143   72  148 1    
   144   73  149 1    
   145   73  150 1    
   146   73  151 1    
   147   74   75 am   BACKBONE|DICT|INTERRES
   148   74  152 1    
   149   75   76 2    
   150   75   77 1    
   151   77   78 1    
   152   77   79 1    
   153   77  153 1    
   154   78  154 1    
   155   78  155 1    
   156   78  156 1    
   157   79   80 am   BACKBONE|DICT|INTERRES
   158   79  157 1    
   159   80   81 2    
@<TRIPOS>SUBSTRUCTURE
     1 UNK         1 GROUP             0       ****    0 ROOT    
