@<TRIPOS>MOLECULE
3R207
157   159    1
SMALL
USER_CHARGES


@<TRIPOS>ATOM
      1 CA        -45.7350  -26.9059    4.0172 C.3       0 UNK        -0.1975 
      2 C         -46.8330  -26.0137    4.5755 C.2       0 UNK         0.4852 
      3 O         -46.6648  -24.7945    4.6343 O.2       0 UNK        -0.5216 
      4 N         -47.9535  -26.6121    4.9997 N.am      1 UNK        -0.4461 
      5 CA        -49.1018  -25.9336    5.6090 C.3       1 UNK         0.0864 
      6 C6        -50.2830  -26.9169    5.7946 C.3       14 UNK        -0.0898 
      7 S7        -51.9067  -26.0935    5.7307 S.3       14 UNK        -0.2598 
      8 C8        -53.0255  -27.5224    5.9088 C.3       14 UNK         0.0286 
      9 C9        -53.0906  -28.0202    7.3467 C.ar      14 UNK        -0.0844 
     10 C10       -52.1741  -28.9665    7.8108 C.ar      14 UNK        -0.0881 
     11 C11       -52.2122  -29.4057    9.1360 C.ar      14 UNK        -0.0643 
     12 C12       -53.2022  -28.9183    9.9950 C.ar      14 UNK        -0.0930 
     13 C13       -54.1426  -27.9820    9.5399 C.ar      14 UNK        -0.0827 
     14 C14       -54.0735  -27.5380    8.2150 C.ar      14 UNK        -0.1249 
     15 C15       -55.2782  -27.4622   10.4204 C.3       14 UNK         0.0141 
     16 S16       -54.9381  -27.4753   12.2116 S.3       14 UNK        -0.2313 
     17 C17       -56.5649  -26.9687   12.8721 C.3       14 UNK        -0.0915 
     18 CA        -57.4333  -28.1452   13.3967 C.3       13 UNK         0.0968 
     19 C         -58.0596  -28.9845   12.2453 C.2       13 UNK         0.5732 
     20 N         -57.7410  -30.2658   12.1037 N.am      13 UNK        -0.7310 
     21 O         -58.8589  -28.4625   11.4719 O.2       13 UNK        -0.5035 
     22 N         -56.7156  -28.9276   14.4110 N.am      13 UNK        -0.4233 
     23 C         -57.2764  -29.6850   15.3595 C.2       13 UNK         0.4989 
     24 O         -58.4940  -29.7952   15.5084 O.2       13 UNK        -0.4996 
     25 CA        -56.3398  -30.4309   16.3327 C.3       12 UNK         0.0216 
     26 CB        -56.2293  -31.9242   15.9644 C.3       12 UNK        -0.1964 
     27 N         -55.0142  -29.8137   16.5105 N.am      12 UNK        -0.4276 
     28 C         -54.0118  -29.7092   15.6273 C.2       12 UNK         0.5020 
     29 O         -54.0477  -30.1680   14.4847 O.2       12 UNK        -0.5489 
     30 CA        -52.8057  -28.8667   16.0671 C.3       11 UNK         0.0294 
     31 CB        -51.4760  -29.4956   15.6182 C.3       11 UNK        -0.2019 
     32 N         -52.9070  -27.5177   15.5125 N.am      11 UNK        -0.4493 
     33 C         -53.7880  -26.5825   15.8930 C.2       11 UNK         0.4932 
     34 O         -54.6213  -26.7470   16.7862 O.2       11 UNK        -0.5029 
     35 CA        -53.6765  -25.2289   15.1669 C.3       10 UNK         0.0280 
     36 CB        -54.6558  -24.1613   15.6978 C.3       10 UNK        -0.1976 
     37 N         -52.2938  -24.7407   15.1688 N.am      10 UNK        -0.4242 
     38 C         -51.5340  -24.4327   16.2319 C.2       10 UNK         0.5072 
     39 O         -51.9443  -24.3987   17.3928 O.2       10 UNK        -0.5224 
     40 CA        -50.0456  -24.1421   15.9662 C.3       9 UNK         0.0343 
     41 CB        -49.1960  -25.3668   16.3456 C.3       9 UNK        -0.2003 
     42 N         -49.7612  -23.7871   14.5749 N.am      9 UNK        -0.4272 
     43 C         -50.0642  -22.6143   14.0024 C.2       9 UNK         0.4988 
     44 O         -50.5699  -21.6655   14.6026 O.2       9 UNK        -0.5108 
     45 CA        -49.7759  -22.4935   12.4977 C.3       8 UNK         0.0248 
     46 CB        -48.2902  -22.1903   12.2419 C.3       8 UNK        -0.2001 
     47 N         -50.1680  -23.6994   11.7645 N.am      8 UNK        -0.4140 
     48 C         -51.4356  -24.0579   11.5129 C.2       8 UNK         0.5028 
     49 O         -52.4165  -23.4009   11.8600 O.2       8 UNK        -0.5428 
     50 CA        -51.6445  -25.3724   10.7449 C.3       7 UNK         0.0264 
     51 CB        -51.6053  -25.1109    9.2349 C.3       7 UNK        -0.1988 
     52 N         -50.6549  -26.3967   11.0853 N.am      7 UNK        -0.4454 
     53 C         -50.6306  -27.0461   12.2571 C.2       7 UNK         0.5027 
     54 O         -51.4278  -26.8387   13.1729 O.2       7 UNK        -0.5083 
     55 CA        -49.4870  -28.0550   12.4787 C.3       6 UNK         0.0844 
     56 C56       -49.8228  -29.4587   11.9148 C.3       14 UNK        -0.0967 
     57 S57       -49.6247  -29.6267   10.1044 S.3       14 UNK        -0.2604 
     58 C58       -51.1897  -30.4234    9.6170 C.3       14 UNK         0.0134 
     59 N         -48.1722  -27.5632   12.0502 N.am      6 UNK        -0.4116 
     60 C         -47.5879  -26.4337   12.4693 C.2       5 UNK         0.5034 
     61 O         -48.1266  -25.6334   13.2320 O.2       5 UNK        -0.5045 
     62 CA        -46.1781  -26.1065   11.9559 C.3       5 UNK         0.0224 
     63 CB        -45.1022  -26.6369   12.9227 C.3       5 UNK        -0.1978 
     64 N         -45.9056  -26.5036   10.5692 N.am      5 UNK        -0.4737 
     65 C         -45.7653  -27.7289   10.0391 C.2       4 UNK         0.5027 
     66 O         -45.9264  -28.7670   10.6803 O.2       4 UNK        -0.5211 
     67 CA        -45.3977  -27.8180    8.5435 C.3       4 UNK         0.0297 
     68 CB        -46.3970  -28.7000    7.7733 C.3       4 UNK        -0.1993 
     69 N         -45.3259  -26.4939    7.9165 N.am      4 UNK        -0.4486 
     70 C         -44.2287  -25.7197    7.8979 C.2       3 UNK         0.4961 
     71 O         -43.1234  -26.1015    8.2823 O.2       3 UNK        -0.5105 
     72 CA        -44.3792  -24.2658    7.4084 C.3       3 UNK         0.0299 
     73 CB        -43.6681  -24.0600    6.0608 C.3       3 UNK        -0.1972 
     74 N         -45.7744  -23.8252    7.3058 N.am      3 UNK        -0.4305 
     75 C         -46.5456  -23.5087    8.3587 C.2       2 UNK         0.5006 
     76 O         -46.1482  -23.5337    9.5233 O.2       2 UNK        -0.5106 
     77 CA        -48.0240  -23.1747    8.0796 C.3       2 UNK         0.0296 
     78 CB        -48.2040  -21.6703    7.8266 C.3       2 UNK        -0.2002 
     79 N         -48.5875  -23.9372    6.9597 N.am      2 UNK        -0.4032 
     80 C         -48.6799  -25.2744    6.9391 C.2       1 UNK         0.5000 
     81 O         -48.3692  -25.9848    7.8976 O.2       1 UNK        -0.5238 
     82 H82       -46.0985  -27.9109    3.8039 H         1 UNK         0.0889 
     83 H83       -44.9155  -26.9849    4.7310 H         1 UNK         0.0889 
     84 H84       -45.3433  -26.4858    3.0912 H         1 UNK         0.0889 
     85 H85       -48.0240  -27.6178    4.9432 H         1 UNK         0.3028 
     86 H86       -49.4075  -25.1519    4.9099 H         1 UNK         0.0864 
     87 H87       -50.1828  -27.4771    6.7246 H         1 UNK         0.0720 
     88 H88       -50.2826  -27.6607    4.9959 H         1 UNK         0.0720 
     89 H89       -52.7103  -28.3260    5.2415 H         1 UNK         0.0814 
     90 H90       -54.0218  -27.2285    5.5750 H         1 UNK         0.0814 
     91 H91       -51.4183  -29.3570    7.1437 H         1 UNK         0.1469 
     92 H92       -53.2404  -29.2796   11.0130 H         1 UNK         0.1381 
     93 H93       -54.7922  -26.8150    7.8538 H         1 UNK         0.1206 
     94 H94       -56.1621  -28.0670   10.2180 H         1 UNK         0.0813 
     95 H95       -55.5269  -26.4393   10.1331 H         1 UNK         0.0813 
     96 H96       -57.1051  -26.3860   12.1236 H         1 UNK         0.0638 
     97 H97       -56.3755  -26.2756   13.6927 H         1 UNK         0.0638 
     98 H98       -58.2872  -27.6910   13.9028 H         1 UNK         0.0568 
     99 H99       -58.1581  -30.7994   11.3579 H         1 UNK         0.3450 
    100 H100      -57.0758  -30.6965   12.7250 H         1 UNK         0.3450 
    101 H101      -55.7086  -28.9724   14.3038 H         1 UNK         0.2987 
    102 H102      -56.8180  -30.3732   17.3118 H         1 UNK         0.0766 
    103 H103      -57.2130  -32.3954   15.9564 H         1 UNK         0.0798 
    104 H104      -55.6171  -32.4662   16.6851 H         1 UNK         0.0798 
    105 H105      -55.7943  -32.0726   14.9758 H         1 UNK         0.0798 
    106 H106      -54.9029  -29.3095   17.3809 H         1 UNK         0.3198 
    107 H107      -52.7952  -28.7954   17.1569 H         1 UNK         0.0843 
    108 H108      -51.4182  -29.5801   14.5334 H         1 UNK         0.0831 
    109 H109      -51.3619  -30.4992   16.0294 H         1 UNK         0.0831 
    110 H110      -50.6233  -28.9058   15.9551 H         1 UNK         0.0831 
    111 H111      -52.3102  -27.3054   14.7141 H         1 UNK         0.3133 
    112 H112      -53.9275  -25.4126   14.1219 H         1 UNK         0.0566 
    113 H113      -54.5562  -23.2257   15.1477 H         1 UNK         0.0814 
    114 H114      -55.6885  -24.4945   15.5882 H         1 UNK         0.0814 
    115 H115      -54.4955  -23.9488   16.7551 H         1 UNK         0.0814 
    116 H116      -51.8288  -24.7822   14.2715 H         1 UNK         0.3091 
    117 H117      -49.7511  -23.3057   16.6035 H         1 UNK         0.0702 
    118 H118      -48.1322  -25.1683   16.2136 H         1 UNK         0.0785 
    119 H119      -49.4515  -26.2362   15.7375 H         1 UNK         0.0785 
    120 H120      -49.3484  -25.6420   17.3901 H         1 UNK         0.0785 
    121 H121      -49.2801  -24.4929   14.0189 H         1 UNK         0.2998 
    122 H122      -50.3618  -21.6560   12.1124 H         1 UNK         0.0697 
    123 H123      -47.6424  -22.9945   12.5918 H         1 UNK         0.0825 
    124 H124      -47.9850  -21.2799   12.7594 H         1 UNK         0.0825 
    125 H125      -48.0915  -22.0394   11.1808 H         1 UNK         0.0825 
    126 H126      -49.4280  -24.3273   11.4877 H         1 UNK         0.3029 
    127 H127      -52.6325  -25.7622   10.9999 H         1 UNK         0.0897 
    128 H128      -52.4656  -24.5200    8.9187 H         1 UNK         0.0792 
    129 H129      -51.6260  -26.0441    8.6754 H         1 UNK         0.0792 
    130 H130      -50.7096  -24.5671    8.9400 H         1 UNK         0.0792 
    131 H131      -49.9769  -26.6451   10.3773 H         1 UNK         0.3086 
    132 H132      -49.4092  -28.1693   13.5621 H         1 UNK         0.0583 
    133 H133      -49.1634  -30.1940   12.3784 H         1 UNK         0.1020 
    134 H134      -50.8312  -29.7536   12.2105 H         1 UNK         0.1020 
    135 H135      -50.9787  -31.1295    8.8124 H         1 UNK         0.0694 
    136 H136      -51.5910  -31.0216   10.4363 H         1 UNK         0.0694 
    137 H137      -47.6361  -28.1683   11.4355 H         1 UNK         0.2989 
    138 H138      -46.1040  -25.0175   11.9588 H         1 UNK         0.1055 
    139 H139      -45.2550  -26.2406   13.9276 H         1 UNK         0.0806 
    140 H140      -44.1029  -26.3386   12.6058 H         1 UNK         0.0806 
    141 H141      -45.1200  -27.7244   12.9995 H         1 UNK         0.0806 
    142 H142      -45.8039  -25.7201    9.9355 H         1 UNK         0.3061 
    143 H143      -44.4193  -28.2991    8.4833 H         1 UNK         0.0734 
    144 H144      -46.1577  -28.7409    6.7111 H         1 UNK         0.0832 
    145 H145      -46.3764  -29.7243    8.1477 H         1 UNK         0.0832 
    146 H146      -47.4224  -28.3467    7.8776 H         1 UNK         0.0832 
    147 H147      -46.2144  -26.0966    7.6348 H         1 UNK         0.3156 
    148 H148      -43.8794  -23.6302    8.1427 H         1 UNK         0.0589 
    149 H149      -44.0837  -24.6914    5.2769 H         1 UNK         0.0808 
    150 H150      -43.7380  -23.0240    5.7291 H         1 UNK         0.0808 
    151 H151      -42.6073  -24.3017    6.1404 H         1 UNK         0.0808 
    152 H152      -46.1841  -23.8407    6.3761 H         1 UNK         0.3098 
    153 H153      -48.5877  -23.4360    8.9772 H         1 UNK         0.0720 
    154 H154      -49.2574  -21.4089    7.7238 H         1 UNK         0.0791 
    155 H155      -47.6863  -21.3468    6.9227 H         1 UNK         0.0791 
    156 H156      -47.8068  -21.0849    8.6572 H         1 UNK         0.0791 
    157 H157      -48.8244  -23.4175    6.1263 H         1 UNK         0.3028 
@<TRIPOS>BOND
     1    1    2 1    
     2    1   82 1    
     3    1   83 1    
     4    1   84 1    
     5    2    3 2    
     6    2    4 am   BACKBONE|DICT|INTERRES
     7    4    5 1    
     8    4   85 1    
     9    5    6 1    
    10    5   80 1    
    11    5   86 1    
    12    6    7 1    
    13    6   87 1    
    14    6   88 1    
    15    7    8 1    
    16    8    9 1    
    17    8   89 1    
    18    8   90 1    
    19    9   10 ar   
    20    9   14 ar   
    21   10   11 ar   
    22   10   91 1    
    23   11   12 ar   
    24   11   58 1    
    25   12   13 ar   
    26   12   92 1    
    27   13   14 ar   
    28   13   15 1    
    29   14   93 1    
    30   15   16 1    
    31   15   94 1    
    32   15   95 1    
    33   16   17 1    
    34   17   18 1    
    35   17   96 1    
    36   17   97 1    
    37   18   19 1    
    38   18   22 1    
    39   18   98 1    
    40   19   20 am   BACKBONE|DICT|INTERRES
    41   19   21 2    
    42   20   99 1    
    43   20  100 1    
    44   22   23 am   BACKBONE|DICT|INTERRES
    45   22  101 1    
    46   23   24 2    
    47   23   25 1    
    48   25   26 1    
    49   25   27 1    
    50   25  102 1    
    51   26  103 1    
    52   26  104 1    
    53   26  105 1    
    54   27   28 am   BACKBONE|DICT|INTERRES
    55   27  106 1    
    56   28   29 2    
    57   28   30 1    
    58   30   31 1    
    59   30   32 1    
    60   30  107 1    
    61   31  108 1    
    62   31  109 1    
    63   31  110 1    
    64   32   33 am   BACKBONE|DICT|INTERRES
    65   32  111 1    
    66   33   34 2    
    67   33   35 1    
    68   35   36 1    
    69   35   37 1    
    70   35  112 1    
    71   36  113 1    
    72   36  114 1    
    73   36  115 1    
    74   37   38 am   BACKBONE|DICT|INTERRES
    75   37  116 1    
    76   38   39 2    
    77   38   40 1    
    78   40   41 1    
    79   40   42 1    
    80   40  117 1    
    81   41  118 1    
    82   41  119 1    
    83   41  120 1    
    84   42   43 am   BACKBONE|DICT|INTERRES
    85   42  121 1    
    86   43   44 2    
    87   43   45 1    
    88   45   46 1    
    89   45   47 1    
    90   45  122 1    
    91   46  123 1    
    92   46  124 1    
    93   46  125 1    
    94   47   48 am   BACKBONE|DICT|INTERRES
    95   47  126 1    
    96   48   49 2    
    97   48   50 1    
    98   50   51 1    
    99   50   52 1    
   100   50  127 1    
   101   51  128 1    
   102   51  129 1    
   103   51  130 1    
   104   52   53 am   BACKBONE|DICT|INTERRES
   105   52  131 1    
   106   53   54 2    
   107   53   55 1    
   108   55   56 1    
   109   55   59 1    
   110   55  132 1    
   111   56   57 1    
   112   56  133 1    
   113   56  134 1    
   114   57   58 1    
   115   58  135 1    
   116   58  136 1    
   117   59   60 am   BACKBONE|DICT|INTERRES
   118   59  137 1    
   119   60   61 2    
   120   60   62 1    
   121   62   63 1    
   122   62   64 1    
   123   62  138 1    
   124   63  139 1    
   125   63  140 1    
   126   63  141 1    
   127   64   65 am   BACKBONE|DICT|INTERRES
   128   64  142 1    
   129   65   66 2    
   130   65   67 1    
   131   67   68 1    
   132   67   69 1    
   133   67  143 1    
   134   68  144 1    
   135   68  145 1    
   136   68  146 1    
   137   69   70 am   BACKBONE|DICT|INTERRES
   138   69  147 1    
   139   70   71 2    
   140   70   72 1    
   141   72   73 1    
   142   72   74 1    
   143   72  148 1    
   144   73  149 1    
   145   73  150 1    
   146   73  151 1    
   147   74   75 am   BACKBONE|DICT|INTERRES
   148   74  152 1    
   149   75   76 2    
   150   75   77 1    
   151   77   78 1    
   152   77   79 1    
   153   77  153 1    
   154   78  154 1    
   155   78  155 1    
   156   78  156 1    
   157   79   80 am   BACKBONE|DICT|INTERRES
   158   79  157 1    
   159   80   81 2    
@<TRIPOS>SUBSTRUCTURE
     1 UNK         1 GROUP             0       ****    0 ROOT    
