@<TRIPOS>MOLECULE
3R207
157   159    1
SMALL
USER_CHARGES


@<TRIPOS>ATOM
      1 CA        -48.3588  -27.3680    0.8523 C.3       0 UNK        -0.1975 
      2 C         -48.9251  -26.8161    2.1521 C.2       0 UNK         0.4852 
      3 O         -48.7302  -25.6376    2.4546 O.2       0 UNK        -0.5216 
      4 N         -49.6309  -27.6547    2.9206 N.am      1 UNK        -0.4461 
      5 CA        -50.2002  -27.3290    4.2296 C.3       1 UNK         0.0864 
      6 C6        -51.3887  -28.2587    4.6060 C.3       14 UNK        -0.0898 
      7 S7        -51.0914  -30.0424    4.3346 S.3       14 UNK        -0.2598 
      8 C8        -52.3772  -30.7884    5.3934 C.3       14 UNK         0.0286 
      9 C9        -52.1424  -30.6163    6.8936 C.ar      14 UNK        -0.0844 
     10 C10       -50.8672  -30.7632    7.4541 C.ar      14 UNK        -0.0881 
     11 C11       -50.6790  -30.6525    8.8349 C.ar      14 UNK        -0.0643 
     12 C12       -51.7776  -30.4087    9.6619 C.ar      14 UNK        -0.0930 
     13 C13       -53.0550  -30.2544    9.1192 C.ar      14 UNK        -0.0827 
     14 C14       -53.2300  -30.3566    7.7353 C.ar      14 UNK        -0.1249 
     15 C15       -54.2486  -30.0042   10.0288 C.3       14 UNK         0.0141 
     16 S16       -54.4831  -28.2301   10.3492 S.3       14 UNK        -0.2313 
     17 C17       -56.1356  -28.2504   11.1234 C.3       14 UNK        -0.0915 
     18 CA        -56.2481  -27.2900   12.3425 C.3       13 UNK         0.0968 
     19 C         -57.7157  -27.0865   12.8335 C.2       13 UNK         0.5732 
     20 N         -57.9588  -26.8224   14.1138 N.am      13 UNK        -0.7310 
     21 O         -58.6538  -27.1377   12.0411 O.2       13 UNK        -0.5035 
     22 N         -55.2993  -27.5879   13.4275 N.am      13 UNK        -0.4233 
     23 C         -55.2761  -28.6880   14.1953 C.2       13 UNK         0.4989 
     24 O         -55.9478  -29.6965   13.9769 O.2       13 UNK        -0.4996 
     25 CA        -54.3855  -28.6483   15.4554 C.3       12 UNK         0.0216 
     26 CB        -53.2063  -29.6274   15.3393 C.3       12 UNK        -0.1964 
     27 N         -53.8994  -27.3013   15.7890 N.am      12 UNK        -0.4276 
     28 C         -54.6876  -26.3251   16.2658 C.2       12 UNK         0.5020 
     29 O         -55.8873  -26.4735   16.5054 O.2       12 UNK        -0.5489 
     30 CA        -54.0537  -24.9364   16.4343 C.3       11 UNK         0.0294 
     31 CB        -53.2393  -24.8675   17.7348 C.3       11 UNK        -0.2019 
     32 N         -53.2149  -24.5559   15.2930 N.am      11 UNK        -0.4493 
     33 C         -53.6729  -24.3515   14.0470 C.2       11 UNK         0.4932 
     34 O         -54.8603  -24.4669   13.7429 O.2       11 UNK        -0.5029 
     35 CA        -52.6516  -24.0067   12.9428 C.3       10 UNK         0.0280 
     36 CB        -53.2540  -23.1469   11.8125 C.3       10 UNK        -0.1976 
     37 N         -51.4020  -23.4230   13.4357 N.am      10 UNK        -0.4242 
     38 C         -51.2416  -22.2757   14.1155 C.2       10 UNK         0.5072 
     39 O         -52.1546  -21.4847   14.3580 O.2       10 UNK        -0.5224 
     40 CA        -49.8149  -21.9832   14.6290 C.3       9 UNK         0.0343 
     41 CB        -49.7952  -21.0072   15.8255 C.3       9 UNK        -0.2003 
     42 N         -49.0618  -23.2099   14.9333 N.am      9 UNK        -0.4272 
     43 C         -49.3956  -24.1367   15.8440 C.2       9 UNK         0.4988 
     44 O         -50.3647  -24.0348   16.5964 O.2       9 UNK        -0.5108 
     45 CA        -48.5328  -25.4084   15.8743 C.3       8 UNK         0.0248 
     46 CB        -48.5441  -26.0874   17.2599 C.3       8 UNK        -0.2001 
     47 N         -48.9221  -26.3662   14.8313 N.am      8 UNK        -0.4140 
     48 C         -50.1227  -26.9415   14.6338 C.2       8 UNK         0.5028 
     49 O         -51.1215  -26.7224   15.3211 O.2       8 UNK        -0.5428 
     50 CA        -50.2398  -27.9645   13.4902 C.3       7 UNK         0.0264 
     51 CB        -51.5049  -27.7513   12.6340 C.3       7 UNK        -0.1988 
     52 N         -49.0572  -27.9740   12.6260 N.am      7 UNK        -0.4454 
     53 C         -48.1290  -28.9409   12.6140 C.2       7 UNK         0.5027 
     54 O         -48.1990  -29.9621   13.2996 O.2       7 UNK        -0.5083 
     55 CA        -46.8954  -28.7415   11.7066 C.3       6 UNK         0.0844 
     56 C56       -46.9467  -29.6089   10.4235 C.3       14 UNK        -0.0967 
     57 S57       -48.3590  -29.2514    9.3259 S.3       14 UNK        -0.2604 
     58 C58       -49.2933  -30.8056    9.4394 C.3       14 UNK         0.0134 
     59 N         -46.5639  -27.3382   11.4262 N.am      6 UNK        -0.4116 
     60 C         -46.0624  -26.4949   12.3415 C.2       5 UNK         0.5034 
     61 O         -46.0495  -26.7278   13.5505 O.2       5 UNK        -0.5045 
     62 CA        -45.4620  -25.1806   11.8264 C.3       5 UNK         0.0224 
     63 CB        -44.3195  -25.4346   10.8262 C.3       5 UNK        -0.1978 
     64 N         -46.4907  -24.3634   11.1959 N.am      5 UNK        -0.4737 
     65 C         -47.1784  -23.3986   11.8192 C.2       4 UNK         0.5027 
     66 O         -46.9735  -23.0485   12.9814 O.2       4 UNK        -0.5211 
     67 CA        -48.3287  -22.7457   11.0288 C.3       4 UNK         0.0297 
     68 CB        -47.8160  -21.5419   10.2244 C.3       4 UNK        -0.1993 
     69 N         -49.0163  -23.6789   10.1344 N.am      4 UNK        -0.4486 
     70 C         -49.5940  -24.8217   10.5294 C.2       3 UNK         0.4961 
     71 O         -49.6877  -25.1602   11.7096 O.2       3 UNK        -0.5105 
     72 CA        -50.0916  -25.7736    9.4288 C.3       3 UNK         0.0299 
     73 CB        -51.5937  -25.5699    9.1741 C.3       3 UNK        -0.1972 
     74 N         -49.3653  -25.6643    8.1573 N.am      3 UNK        -0.4305 
     75 C         -48.0448  -25.8356    7.9760 C.2       2 UNK         0.5006 
     76 O         -47.2479  -26.0290    8.8979 O.2       2 UNK        -0.5106 
     77 CA        -47.5246  -25.7209    6.5282 C.3       2 UNK         0.0296 
     78 CB        -46.2034  -26.4903    6.3113 C.3       2 UNK        -0.2002 
     79 N         -48.5299  -26.0747    5.5131 N.am      2 UNK        -0.4032 
     80 C         -49.0919  -27.2769    5.3045 C.2       1 UNK         0.5000 
     81 O         -48.7645  -28.3022    5.9011 O.2       1 UNK        -0.5238 
     82 H82       -47.2725  -27.2816    0.8503 H         1 UNK         0.0889 
     83 H83       -48.7476  -26.8043    0.0047 H         1 UNK         0.0889 
     84 H84       -48.6162  -28.4173    0.7086 H         1 UNK         0.0889 
     85 H85       -49.7437  -28.6197    2.6414 H         1 UNK         0.3028 
     86 H86       -50.6220  -26.3233    4.1625 H         1 UNK         0.0864 
     87 H87       -51.6855  -28.0936    5.6438 H         1 UNK         0.0720 
     88 H88       -52.2587  -27.9851    4.0071 H         1 UNK         0.0720 
     89 H89       -52.4258  -31.8561    5.1765 H         1 UNK         0.0814 
     90 H90       -53.3445  -30.3733    5.1056 H         1 UNK         0.0814 
     91 H91       -50.0151  -30.9578    6.8172 H         1 UNK         0.1469 
     92 H92       -51.6360  -30.3464   10.7302 H         1 UNK         0.1381 
     93 H93       -54.2210  -30.2481    7.3156 H         1 UNK         0.1206 
     94 H94       -54.1190  -30.5268   10.9780 H         1 UNK         0.0813 
     95 H95       -55.1517  -30.4129    9.5725 H         1 UNK         0.0813 
     96 H96       -56.8456  -27.9660   10.3452 H         1 UNK         0.0638 
     97 H97       -56.4019  -29.2673   11.4137 H         1 UNK         0.0638 
     98 H98       -55.9588  -26.3020   11.9837 H         1 UNK         0.0568 
     99 H99       -58.9110  -26.6828   14.4115 H         1 UNK         0.3450 
    100 H100      -57.2060  -26.7464   14.7862 H         1 UNK         0.3450 
    101 H101      -54.7469  -26.7969   13.7243 H         1 UNK         0.2987 
    102 H102      -55.0054  -28.9849   16.2893 H         1 UNK         0.0766 
    103 H103      -52.6274  -29.4647   14.4338 H         1 UNK         0.0798 
    104 H104      -53.5652  -30.6567   15.3035 H         1 UNK         0.0798 
    105 H105      -52.5323  -29.5488   16.1925 H         1 UNK         0.0798 
    106 H106      -52.9124  -27.0962   15.6249 H         1 UNK         0.3198 
    107 H107      -54.8651  -24.2088   16.5043 H         1 UNK         0.0843 
    108 H108      -52.8522  -23.8630   17.9064 H         1 UNK         0.0831 
    109 H109      -52.3904  -25.5528   17.7154 H         1 UNK         0.0831 
    110 H110      -53.8539  -25.1308   18.5966 H         1 UNK         0.0831 
    111 H111      -52.2175  -24.4945   15.4719 H         1 UNK         0.3133 
    112 H112      -52.3717  -24.9620   12.5021 H         1 UNK         0.0566 
    113 H113      -54.0896  -23.6585   11.3334 H         1 UNK         0.0814 
    114 H114      -53.6275  -22.1930   12.1857 H         1 UNK         0.0814 
    115 H115      -52.5166  -22.9399   11.0369 H         1 UNK         0.0814 
    116 H116      -50.5794  -23.9898   13.2595 H         1 UNK         0.3091 
    117 H117      -49.2873  -21.4915   13.8123 H         1 UNK         0.0702 
    118 H118      -48.7782  -20.8272   16.1737 H         1 UNK         0.0785 
    119 H119      -50.3775  -21.3826   16.6675 H         1 UNK         0.0785 
    120 H120      -50.2169  -20.0406   15.5473 H         1 UNK         0.0785 
    121 H121      -48.2417  -23.3615   14.3487 H         1 UNK         0.2998 
    122 H122      -47.5046  -25.1119   15.6597 H         1 UNK         0.0697 
    123 H123      -47.8730  -26.9458   17.2853 H         1 UNK         0.0825 
    124 H124      -48.2161  -25.3939   18.0349 H         1 UNK         0.0825 
    125 H125      -49.5407  -26.4337   17.5367 H         1 UNK         0.0825 
    126 H126      -48.1728  -26.6322   14.2044 H         1 UNK         0.3029 
    127 H127      -50.3477  -28.9287   13.9900 H         1 UNK         0.0897 
    128 H128      -51.7814  -28.6684   12.1211 H         1 UNK         0.0792 
    129 H129      -52.3683  -27.4568   13.2287 H         1 UNK         0.0792 
    130 H130      -51.3706  -26.9901   11.8727 H         1 UNK         0.0792 
    131 H131      -48.9277  -27.1514   12.0481 H         1 UNK         0.3086 
    132 H132      -46.0541  -29.1283   12.2866 H         1 UNK         0.0583 
    133 H133      -46.0312  -29.4654    9.8476 H         1 UNK         0.1020 
    134 H134      -46.9499  -30.6669   10.6923 H         1 UNK         0.1020 
    135 H135      -48.7452  -31.5968    8.9258 H         1 UNK         0.0694 
    136 H136      -49.3720  -31.1079   10.4851 H         1 UNK         0.0694 
    137 H137      -46.6382  -27.0361   10.4581 H         1 UNK         0.2989 
    138 H138      -45.0379  -24.6531   12.6843 H         1 UNK         0.1055 
    139 H139      -44.6679  -25.9168    9.9120 H         1 UNK         0.0806 
    140 H140      -43.5531  -26.0762   11.2632 H         1 UNK         0.0806 
    141 H141      -43.8342  -24.5009   10.5417 H         1 UNK         0.0806 
    142 H142      -46.7848  -24.6524   10.2680 H         1 UNK         0.3061 
    143 H143      -49.0680  -22.3873   11.7441 H         1 UNK         0.0734 
    144 H144      -48.6324  -21.0187    9.7263 H         1 UNK         0.0832 
    145 H145      -47.3221  -20.8203   10.8769 H         1 UNK         0.0832 
    146 H146      -47.0930  -21.8411    9.4644 H         1 UNK         0.0832 
    147 H147      -48.9832  -23.4779    9.1459 H         1 UNK         0.3156 
    148 H148      -49.9473  -26.7904    9.7972 H         1 UNK         0.0589 
    149 H149      -51.8029  -24.5908    8.7415 H         1 UNK         0.0808 
    150 H150      -51.9863  -26.3303    8.4982 H         1 UNK         0.0808 
    151 H151      -52.1672  -25.6436   10.0984 H         1 UNK         0.0808 
    152 H152      -49.9291  -25.4941    7.3384 H         1 UNK         0.3098 
    153 H153      -47.3091  -24.6625    6.3762 H         1 UNK         0.0720 
    154 H154      -45.4126  -26.0964    6.9510 H         1 UNK         0.0791 
    155 H155      -46.3086  -27.5499    6.5467 H         1 UNK         0.0791 
    156 H156      -45.8583  -26.4062    5.2809 H         1 UNK         0.0791 
    157 H157      -48.8163  -25.3177    4.9048 H         1 UNK         0.3028 
@<TRIPOS>BOND
     1    1    2 1    
     2    1   82 1    
     3    1   83 1    
     4    1   84 1    
     5    2    3 2    
     6    2    4 am   BACKBONE|DICT|INTERRES
     7    4    5 1    
     8    4   85 1    
     9    5    6 1    
    10    5   80 1    
    11    5   86 1    
    12    6    7 1    
    13    6   87 1    
    14    6   88 1    
    15    7    8 1    
    16    8    9 1    
    17    8   89 1    
    18    8   90 1    
    19    9   10 ar   
    20    9   14 ar   
    21   10   11 ar   
    22   10   91 1    
    23   11   12 ar   
    24   11   58 1    
    25   12   13 ar   
    26   12   92 1    
    27   13   14 ar   
    28   13   15 1    
    29   14   93 1    
    30   15   16 1    
    31   15   94 1    
    32   15   95 1    
    33   16   17 1    
    34   17   18 1    
    35   17   96 1    
    36   17   97 1    
    37   18   19 1    
    38   18   22 1    
    39   18   98 1    
    40   19   20 am   BACKBONE|DICT|INTERRES
    41   19   21 2    
    42   20   99 1    
    43   20  100 1    
    44   22   23 am   BACKBONE|DICT|INTERRES
    45   22  101 1    
    46   23   24 2    
    47   23   25 1    
    48   25   26 1    
    49   25   27 1    
    50   25  102 1    
    51   26  103 1    
    52   26  104 1    
    53   26  105 1    
    54   27   28 am   BACKBONE|DICT|INTERRES
    55   27  106 1    
    56   28   29 2    
    57   28   30 1    
    58   30   31 1    
    59   30   32 1    
    60   30  107 1    
    61   31  108 1    
    62   31  109 1    
    63   31  110 1    
    64   32   33 am   BACKBONE|DICT|INTERRES
    65   32  111 1    
    66   33   34 2    
    67   33   35 1    
    68   35   36 1    
    69   35   37 1    
    70   35  112 1    
    71   36  113 1    
    72   36  114 1    
    73   36  115 1    
    74   37   38 am   BACKBONE|DICT|INTERRES
    75   37  116 1    
    76   38   39 2    
    77   38   40 1    
    78   40   41 1    
    79   40   42 1    
    80   40  117 1    
    81   41  118 1    
    82   41  119 1    
    83   41  120 1    
    84   42   43 am   BACKBONE|DICT|INTERRES
    85   42  121 1    
    86   43   44 2    
    87   43   45 1    
    88   45   46 1    
    89   45   47 1    
    90   45  122 1    
    91   46  123 1    
    92   46  124 1    
    93   46  125 1    
    94   47   48 am   BACKBONE|DICT|INTERRES
    95   47  126 1    
    96   48   49 2    
    97   48   50 1    
    98   50   51 1    
    99   50   52 1    
   100   50  127 1    
   101   51  128 1    
   102   51  129 1    
   103   51  130 1    
   104   52   53 am   BACKBONE|DICT|INTERRES
   105   52  131 1    
   106   53   54 2    
   107   53   55 1    
   108   55   56 1    
   109   55   59 1    
   110   55  132 1    
   111   56   57 1    
   112   56  133 1    
   113   56  134 1    
   114   57   58 1    
   115   58  135 1    
   116   58  136 1    
   117   59   60 am   BACKBONE|DICT|INTERRES
   118   59  137 1    
   119   60   61 2    
   120   60   62 1    
   121   62   63 1    
   122   62   64 1    
   123   62  138 1    
   124   63  139 1    
   125   63  140 1    
   126   63  141 1    
   127   64   65 am   BACKBONE|DICT|INTERRES
   128   64  142 1    
   129   65   66 2    
   130   65   67 1    
   131   67   68 1    
   132   67   69 1    
   133   67  143 1    
   134   68  144 1    
   135   68  145 1    
   136   68  146 1    
   137   69   70 am   BACKBONE|DICT|INTERRES
   138   69  147 1    
   139   70   71 2    
   140   70   72 1    
   141   72   73 1    
   142   72   74 1    
   143   72  148 1    
   144   73  149 1    
   145   73  150 1    
   146   73  151 1    
   147   74   75 am   BACKBONE|DICT|INTERRES
   148   74  152 1    
   149   75   76 2    
   150   75   77 1    
   151   77   78 1    
   152   77   79 1    
   153   77  153 1    
   154   78  154 1    
   155   78  155 1    
   156   78  156 1    
   157   79   80 am   BACKBONE|DICT|INTERRES
   158   79  157 1    
   159   80   81 2    
@<TRIPOS>SUBSTRUCTURE
     1 UNK         1 GROUP             0       ****    0 ROOT    
