@<TRIPOS>MOLECULE
3R207
157   159    1
SMALL
USER_CHARGES


@<TRIPOS>ATOM
      1 CA        -46.3503  -27.0992    6.8590 C.3       0 UNK        -0.1975 
      2 C         -47.2148  -28.3083    6.5496 C.2       0 UNK         0.4852 
      3 O         -47.7197  -28.4309    5.4316 O.2       0 UNK        -0.5216 
      4 N         -47.4154  -29.1932    7.5348 N.am      1 UNK        -0.4461 
      5 CA        -48.1641  -30.4578    7.4507 C.3       1 UNK         0.0864 
      6 C6        -47.7533  -31.4901    8.5545 C.3       14 UNK        -0.0898 
      7 S7        -46.0369  -31.3408    9.1830 S.3       14 UNK        -0.2598 
      8 C8        -46.2955  -30.5546   10.8153 C.3       14 UNK         0.0286 
      9 C9        -46.9356  -29.1781   10.6887 C.ar      14 UNK        -0.0844 
     10 C10       -46.1488  -28.0327   10.5262 C.ar      14 UNK        -0.0881 
     11 C11       -46.7414  -26.7769   10.3427 C.ar      14 UNK        -0.0643 
     12 C12       -48.1389  -26.6927   10.2724 C.ar      14 UNK        -0.0930 
     13 C13       -48.9334  -27.8216   10.4757 C.ar      14 UNK        -0.0827 
     14 C14       -48.3264  -29.0534   10.7131 C.ar      14 UNK        -0.1249 
     15 C15       -50.4468  -27.7291   10.4009 C.3       14 UNK         0.0141 
     16 S16       -51.1602  -27.0282   11.9191 S.3       14 UNK        -0.2313 
     17 C17       -52.9250  -27.3828   11.6175 C.3       14 UNK        -0.0915 
     18 CA        -53.8004  -26.1150   11.4519 C.3       13 UNK         0.0968 
     19 C         -55.2452  -26.5074   11.0169 C.2       13 UNK         0.5732 
     20 N         -56.2805  -26.2860   11.8203 N.am      13 UNK        -0.7310 
     21 O         -55.4302  -27.0257    9.9188 O.2       13 UNK        -0.5035 
     22 N         -53.7448  -25.2507   12.6410 N.am      13 UNK        -0.4233 
     23 C         -54.1370  -23.9685   12.6495 C.2       13 UNK         0.4989 
     24 O         -54.4661  -23.3594   11.6314 O.2       13 UNK        -0.4996 
     25 CA        -54.1787  -23.2440   14.0130 C.3       12 UNK         0.0216 
     26 CB        -55.1669  -22.0586   14.0202 C.3       12 UNK        -0.1964 
     27 N         -54.4397  -24.1321   15.1555 N.am      12 UNK        -0.4276 
     28 C         -55.4809  -24.9621   15.3143 C.2       12 UNK         0.5020 
     29 O         -56.4115  -25.0764   14.5132 O.2       12 UNK        -0.5489 
     30 CA        -55.4294  -25.8814   16.5474 C.3       11 UNK         0.0294 
     31 CB        -56.6523  -25.6556   17.4517 C.3       11 UNK        -0.2019 
     32 N         -55.3597  -27.2951   16.1624 N.am      11 UNK        -0.4493 
     33 C         -54.4199  -27.8322   15.3722 C.2       11 UNK         0.4932 
     34 O         -53.4795  -27.1903   14.8965 O.2       11 UNK        -0.5029 
     35 CA        -54.5908  -29.3230   15.0247 C.3       10 UNK         0.0280 
     36 CB        -55.7130  -29.5075   13.9885 C.3       10 UNK        -0.1976 
     37 N         -53.3568  -29.9003   14.4866 N.am      10 UNK        -0.4242 
     38 C         -52.2405  -30.1230   15.1919 C.2       10 UNK         0.5072 
     39 O         -52.1742  -30.0149   16.4179 O.2       10 UNK        -0.5224 
     40 CA        -50.9785  -30.5146   14.4050 C.3       9 UNK         0.0343 
     41 CB        -51.2353  -30.8971   12.9316 C.3       9 UNK        -0.2003 
     42 N         -50.0593  -29.3808   14.4492 N.am      9 UNK        -0.4272 
     43 C         -48.9641  -29.2998   15.2160 C.2       9 UNK         0.4988 
     44 O         -48.5335  -30.2258   15.9050 O.2       9 UNK        -0.5108 
     45 CA        -48.2130  -27.9570   15.2216 C.3       8 UNK         0.0248 
     46 CB        -47.0385  -27.9839   14.2320 C.3       8 UNK        -0.2001 
     47 N         -49.0771  -26.8196   14.9011 N.am      8 UNK        -0.4140 
     48 C         -49.8924  -26.2069   15.7714 C.2       8 UNK         0.5028 
     49 O         -49.9999  -26.5394   16.9528 O.2       8 UNK        -0.5428 
     50 CA        -50.7191  -25.0211   15.2299 C.3       7 UNK         0.0264 
     51 CB        -51.0710  -23.9923   16.3276 C.3       7 UNK        -0.1988 
     52 N         -50.1073  -24.3770   14.0581 N.am      7 UNK        -0.4454 
     53 C         -48.9637  -23.6722   14.0205 C.2       7 UNK         0.5027 
     54 O         -48.2939  -23.3900   15.0145 O.2       7 UNK        -0.5083 
     55 CA        -48.4385  -23.2608   12.6276 C.3       6 UNK         0.0844 
     56 C56       -47.2225  -24.1545   12.2635 C.3       14 UNK        -0.0967 
     57 S57       -46.6254  -23.9299   10.5535 S.3       14 UNK        -0.2604 
     58 C58       -45.8364  -25.5467   10.2171 C.3       14 UNK         0.0134 
     59 N         -49.4832  -23.2416   11.5895 N.am      6 UNK        -0.4116 
     60 C         -50.4786  -22.3455   11.5307 C.2       5 UNK         0.5034 
     61 O         -50.6623  -21.4831   12.3912 O.2       5 UNK        -0.5045 
     62 CA        -51.4047  -22.4097   10.3017 C.3       5 UNK         0.0224 
     63 CB        -52.3711  -21.2105   10.2333 C.3       5 UNK        -0.1978 
     64 N         -50.6430  -22.4592    9.0513 N.am      5 UNK        -0.4737 
     65 C         -50.3300  -23.5740    8.3841 C.2       4 UNK         0.5027 
     66 O         -50.5822  -24.7086    8.7885 O.2       4 UNK        -0.5211 
     67 CA        -49.5923  -23.3855    7.0560 C.3       4 UNK         0.0297 
     68 CB        -48.0862  -23.1710    7.2808 C.3       4 UNK        -0.1993 
     69 N         -49.7961  -24.5623    6.2134 N.am      4 UNK        -0.4486 
     70 C         -49.9103  -24.5359    4.8805 C.2       3 UNK         0.4961 
     71 O         -49.8594  -23.4970    4.2199 O.2       3 UNK        -0.5105 
     72 CA        -50.0868  -25.8711    4.1326 C.3       3 UNK         0.0299 
     73 CB        -48.8910  -26.1166    3.1953 C.3       3 UNK        -0.1972 
     74 N         -50.2410  -27.0431    5.0002 N.am      3 UNK        -0.4305 
     75 C         -51.4076  -27.4617    5.5202 C.2       2 UNK         0.5006 
     76 O         -52.4557  -26.8254    5.4072 O.2       2 UNK        -0.5106 
     77 CA        -51.4423  -28.8110    6.2687 C.3       2 UNK         0.0296 
     78 CB        -52.3876  -29.8107    5.5760 C.3       2 UNK        -0.2002 
     79 N         -50.1139  -29.4061    6.4106 N.am      2 UNK        -0.4032 
     80 C         -49.6918  -30.1879    7.4085 C.2       1 UNK         0.5000 
     81 O         -50.4401  -30.6344    8.2803 O.2       1 UNK        -0.5238 
     82 H82       -45.5697  -27.3492    7.5766 H         1 UNK         0.0889 
     83 H83       -46.9624  -26.2979    7.2698 H         1 UNK         0.0889 
     84 H84       -45.8683  -26.7326    5.9531 H         1 UNK         0.0889 
     85 H85       -47.0243  -29.0106    8.4510 H         1 UNK         0.3028 
     86 H86       -47.9056  -30.9101    6.4906 H         1 UNK         0.0864 
     87 H87       -47.8658  -32.4973    8.1504 H         1 UNK         0.0720 
     88 H88       -48.4188  -31.4741    9.4155 H         1 UNK         0.0720 
     89 H89       -46.9129  -31.2036   11.4386 H         1 UNK         0.0814 
     90 H90       -45.3346  -30.4710   11.3251 H         1 UNK         0.0814 
     91 H91       -45.0706  -28.1204   10.5393 H         1 UNK         0.1469 
     92 H92       -48.6212  -25.7475   10.0809 H         1 UNK         0.1381 
     93 H93       -48.9456  -29.9247   10.8705 H         1 UNK         0.1206 
     94 H94       -50.8653  -28.7224   10.2321 H         1 UNK         0.0813 
     95 H95       -50.7441  -27.1299    9.5411 H         1 UNK         0.0813 
     96 H96       -53.2919  -27.9895   12.4425 H         1 UNK         0.0638 
     97 H97       -53.0129  -28.0153   10.7324 H         1 UNK         0.0638 
     98 H98       -53.3846  -25.5466   10.6175 H         1 UNK         0.0568 
     99 H99       -57.2016  -26.5459   11.5076 H         1 UNK         0.3450 
    100 H100      -56.1684  -25.8427   12.7272 H         1 UNK         0.3450 
    101 H101      -53.5460  -25.7255   13.5152 H         1 UNK         0.2987 
    102 H102      -53.1777  -22.8355   14.1571 H         1 UNK         0.0766 
    103 H103      -55.1633  -21.5442   14.9811 H         1 UNK         0.0798 
    104 H104      -56.1879  -22.3845   13.8179 H         1 UNK         0.0798 
    105 H105      -54.9036  -21.3214   13.2605 H         1 UNK         0.0798 
    106 H106      -53.7252  -24.1399   15.8691 H         1 UNK         0.3198 
    107 H107      -54.5315  -25.6548   17.1263 H         1 UNK         0.0843 
    108 H108      -57.5838  -25.9025   16.9403 H         1 UNK         0.0831 
    109 H109      -56.7194  -24.6120   17.7623 H         1 UNK         0.0831 
    110 H110      -56.5953  -26.2589   18.3579 H         1 UNK         0.0831 
    111 H111      -56.1157  -27.8840   16.4806 H         1 UNK         0.3133 
    112 H112      -54.8570  -29.8628   15.9359 H         1 UNK         0.0566 
    113 H113      -55.8612  -30.5602   13.7471 H         1 UNK         0.0814 
    114 H114      -56.6645  -29.1286   14.3637 H         1 UNK         0.0814 
    115 H115      -55.4999  -28.9775   13.0597 H         1 UNK         0.0814 
    116 H116      -53.3102  -30.0081   13.4852 H         1 UNK         0.3091 
    117 H117      -50.5466  -31.3837   14.9052 H         1 UNK         0.0702 
    118 H118      -50.3139  -31.2338   12.4563 H         1 UNK         0.0785 
    119 H119      -51.6164  -30.0628   12.3428 H         1 UNK         0.0785 
    120 H120      -51.9480  -31.7194   12.8541 H         1 UNK         0.0785 
    121 H121      -50.3503  -28.5550   13.9453 H         1 UNK         0.2998 
    122 H122      -47.8046  -27.8151   16.2246 H         1 UNK         0.0697 
    123 H123      -47.3880  -28.0589   13.2039 H         1 UNK         0.0825 
    124 H124      -46.3842  -28.8366   14.4185 H         1 UNK         0.0825 
    125 H125      -46.4292  -27.0836   14.3126 H         1 UNK         0.0825 
    126 H126      -49.0620  -26.4916   13.9473 H         1 UNK         0.3029 
    127 H127      -51.6529  -25.4501   14.8719 H         1 UNK         0.0897 
    128 H128      -51.7170  -24.4372   17.0853 H         1 UNK         0.0792 
    129 H129      -51.5877  -23.1245   15.9199 H         1 UNK         0.0792 
    130 H130      -50.1799  -23.6322   16.8427 H         1 UNK         0.0792 
    131 H131      -50.5592  -24.5655   13.1738 H         1 UNK         0.3086 
    132 H132      -48.0711  -22.2365   12.7212 H         1 UNK         0.0583 
    133 H133      -46.3892  -23.9404   12.9360 H         1 UNK         0.1020 
    134 H134      -47.4608  -25.2059   12.4262 H         1 UNK         0.1020 
    135 H135      -45.4186  -25.5179    9.2110 H         1 UNK         0.0694 
    136 H136      -44.9901  -25.6515   10.8978 H         1 UNK         0.0694 
    137 H137      -49.3806  -23.8961   10.8270 H         1 UNK         0.2989 
    138 H138      -52.0055  -23.3163   10.4038 H         1 UNK         0.1055 
    139 H139      -52.9788  -21.1410   11.1365 H         1 UNK         0.0806 
    140 H140      -53.0598  -21.3063    9.3939 H         1 UNK         0.0806 
    141 H141      -51.8382  -20.2649   10.1268 H         1 UNK         0.0806 
    142 H142      -50.3508  -21.5689    8.6723 H         1 UNK         0.3061 
    143 H143      -50.0129  -22.5035    6.5677 H         1 UNK         0.0734 
    144 H144      -47.6242  -24.0407    7.7468 H         1 UNK         0.0832 
    145 H145      -47.5684  -22.9825    6.3404 H         1 UNK         0.0832 
    146 H146      -47.8994  -22.3149    7.9304 H         1 UNK         0.0832 
    147 H147      -49.9397  -25.4287    6.7154 H         1 UNK         0.3156 
    148 H148      -50.9803  -25.7740    3.5120 H         1 UNK         0.0589 
    149 H149      -47.9540  -26.1929    3.7486 H         1 UNK         0.0808 
    150 H150      -49.0170  -27.0350    2.6215 H         1 UNK         0.0808 
    151 H151      -48.7794  -25.3027    2.4776 H         1 UNK         0.0808 
    152 H152      -49.3901  -27.5760    5.1447 H         1 UNK         0.3098 
    153 H153      -51.8333  -28.5958    7.2656 H         1 UNK         0.0720 
    154 H154      -52.4790  -30.7333    6.1495 H         1 UNK         0.0791 
    155 H155      -52.0341  -30.0699    4.5774 H         1 UNK         0.0791 
    156 H156      -53.3915  -29.3968    5.4718 H         1 UNK         0.0791 
    157 H157      -49.3961  -29.1023    5.7592 H         1 UNK         0.3028 
@<TRIPOS>BOND
     1    1    2 1    
     2    1   82 1    
     3    1   83 1    
     4    1   84 1    
     5    2    3 2    
     6    2    4 am   BACKBONE|DICT|INTERRES
     7    4    5 1    
     8    4   85 1    
     9    5    6 1    
    10    5   80 1    
    11    5   86 1    
    12    6    7 1    
    13    6   87 1    
    14    6   88 1    
    15    7    8 1    
    16    8    9 1    
    17    8   89 1    
    18    8   90 1    
    19    9   10 ar   
    20    9   14 ar   
    21   10   11 ar   
    22   10   91 1    
    23   11   12 ar   
    24   11   58 1    
    25   12   13 ar   
    26   12   92 1    
    27   13   14 ar   
    28   13   15 1    
    29   14   93 1    
    30   15   16 1    
    31   15   94 1    
    32   15   95 1    
    33   16   17 1    
    34   17   18 1    
    35   17   96 1    
    36   17   97 1    
    37   18   19 1    
    38   18   22 1    
    39   18   98 1    
    40   19   20 am   BACKBONE|DICT|INTERRES
    41   19   21 2    
    42   20   99 1    
    43   20  100 1    
    44   22   23 am   BACKBONE|DICT|INTERRES
    45   22  101 1    
    46   23   24 2    
    47   23   25 1    
    48   25   26 1    
    49   25   27 1    
    50   25  102 1    
    51   26  103 1    
    52   26  104 1    
    53   26  105 1    
    54   27   28 am   BACKBONE|DICT|INTERRES
    55   27  106 1    
    56   28   29 2    
    57   28   30 1    
    58   30   31 1    
    59   30   32 1    
    60   30  107 1    
    61   31  108 1    
    62   31  109 1    
    63   31  110 1    
    64   32   33 am   BACKBONE|DICT|INTERRES
    65   32  111 1    
    66   33   34 2    
    67   33   35 1    
    68   35   36 1    
    69   35   37 1    
    70   35  112 1    
    71   36  113 1    
    72   36  114 1    
    73   36  115 1    
    74   37   38 am   BACKBONE|DICT|INTERRES
    75   37  116 1    
    76   38   39 2    
    77   38   40 1    
    78   40   41 1    
    79   40   42 1    
    80   40  117 1    
    81   41  118 1    
    82   41  119 1    
    83   41  120 1    
    84   42   43 am   BACKBONE|DICT|INTERRES
    85   42  121 1    
    86   43   44 2    
    87   43   45 1    
    88   45   46 1    
    89   45   47 1    
    90   45  122 1    
    91   46  123 1    
    92   46  124 1    
    93   46  125 1    
    94   47   48 am   BACKBONE|DICT|INTERRES
    95   47  126 1    
    96   48   49 2    
    97   48   50 1    
    98   50   51 1    
    99   50   52 1    
   100   50  127 1    
   101   51  128 1    
   102   51  129 1    
   103   51  130 1    
   104   52   53 am   BACKBONE|DICT|INTERRES
   105   52  131 1    
   106   53   54 2    
   107   53   55 1    
   108   55   56 1    
   109   55   59 1    
   110   55  132 1    
   111   56   57 1    
   112   56  133 1    
   113   56  134 1    
   114   57   58 1    
   115   58  135 1    
   116   58  136 1    
   117   59   60 am   BACKBONE|DICT|INTERRES
   118   59  137 1    
   119   60   61 2    
   120   60   62 1    
   121   62   63 1    
   122   62   64 1    
   123   62  138 1    
   124   63  139 1    
   125   63  140 1    
   126   63  141 1    
   127   64   65 am   BACKBONE|DICT|INTERRES
   128   64  142 1    
   129   65   66 2    
   130   65   67 1    
   131   67   68 1    
   132   67   69 1    
   133   67  143 1    
   134   68  144 1    
   135   68  145 1    
   136   68  146 1    
   137   69   70 am   BACKBONE|DICT|INTERRES
   138   69  147 1    
   139   70   71 2    
   140   70   72 1    
   141   72   73 1    
   142   72   74 1    
   143   72  148 1    
   144   73  149 1    
   145   73  150 1    
   146   73  151 1    
   147   74   75 am   BACKBONE|DICT|INTERRES
   148   74  152 1    
   149   75   76 2    
   150   75   77 1    
   151   77   78 1    
   152   77   79 1    
   153   77  153 1    
   154   78  154 1    
   155   78  155 1    
   156   78  156 1    
   157   79   80 am   BACKBONE|DICT|INTERRES
   158   79  157 1    
   159   80   81 2    
@<TRIPOS>SUBSTRUCTURE
     1 UNK         1 GROUP             0       ****    0 ROOT    
