@<TRIPOS>MOLECULE
3R207
157   159    1
SMALL
USER_CHARGES


@<TRIPOS>ATOM
      1 CA        -44.0687  -26.7722    7.3558 C.3       0 UNK        -0.1975 
      2 C         -44.6559  -27.9870    6.6527 C.2       0 UNK         0.4852 
      3 O         -43.9470  -28.6628    5.9063 O.2       0 UNK        -0.5216 
      4 N         -45.9468  -28.2651    6.8772 N.am      1 UNK        -0.4461 
      5 CA        -46.6968  -29.3444    6.2193 C.3       1 UNK         0.0864 
      6 C6        -47.8934  -29.8118    7.0900 C.3       14 UNK        -0.0898 
      7 S7        -49.1567  -28.5217    7.3781 S.3       14 UNK        -0.2598 
      8 C8        -49.8496  -29.0398    8.9857 C.3       14 UNK         0.0286 
      9 C9        -51.0748  -28.2377    9.4255 C.ar      14 UNK        -0.0844 
     10 C10       -51.2652  -26.9026    9.0489 C.ar      14 UNK        -0.0881 
     11 C11       -52.3938  -26.1894    9.4655 C.ar      14 UNK        -0.0643 
     12 C12       -53.3343  -26.8178   10.2871 C.ar      14 UNK        -0.0930 
     13 C13       -53.1552  -28.1468   10.6815 C.ar      14 UNK        -0.0827 
     14 C14       -52.0280  -28.8491   10.2446 C.ar      14 UNK        -0.1249 
     15 C15       -54.1725  -28.8299   11.5819 C.3       14 UNK         0.0141 
     16 S16       -55.4904  -29.6166   10.6063 S.3       14 UNK        -0.2313 
     17 C17       -56.2145  -30.7490   11.8409 C.3       14 UNK        -0.0915 
     18 CA        -57.6768  -30.3896   12.2393 C.3       13 UNK         0.0968 
     19 C         -58.3349  -31.4875   13.1322 C.2       13 UNK         0.5732 
     20 N         -59.2083  -31.1439   14.0718 N.am      13 UNK        -0.7310 
     21 O         -58.0812  -32.6764   12.9510 O.2       13 UNK        -0.5035 
     22 N         -57.8383  -29.0133   12.7478 N.am      13 UNK        -0.4233 
     23 C         -57.2480  -28.4940   13.8317 C.2       13 UNK         0.4989 
     24 O         -56.4340  -29.0913   14.5381 O.2       13 UNK        -0.4996 
     25 CA        -57.6841  -27.0760   14.2246 C.3       12 UNK         0.0216 
     26 CB        -58.5551  -27.1061   15.4915 C.3       12 UNK        -0.1964 
     27 N         -56.5213  -26.2257   14.4639 N.am      12 UNK        -0.4276 
     28 C         -55.8119  -25.6144   13.5124 C.2       12 UNK         0.5020 
     29 O         -56.0836  -25.6903   12.3140 O.2       12 UNK        -0.5489 
     30 CA        -54.6189  -24.7436   13.9493 C.3       11 UNK         0.0294 
     31 CB        -55.0948  -23.3382   14.3616 C.3       11 UNK        -0.2019 
     32 N         -53.7249  -25.3082   14.9708 N.am      11 UNK        -0.4493 
     33 C         -53.9735  -25.6698   16.2381 C.2       11 UNK         0.4932 
     34 O         -55.0942  -25.6544   16.7507 O.2       11 UNK        -0.5029 
     35 CA        -52.7509  -26.0795   17.0847 C.3       10 UNK         0.0280 
     36 CB        -53.1277  -26.9002   18.3369 C.3       10 UNK        -0.1976 
     37 N         -51.6930  -26.7389   16.3088 N.am      10 UNK        -0.4242 
     38 C         -51.7345  -27.9372   15.7054 C.2       10 UNK         0.5072 
     39 O         -52.7069  -28.6910   15.7435 O.2       10 UNK        -0.5224 
     40 CA        -50.4857  -28.3819   14.9139 C.3       9 UNK         0.0343 
     41 CB        -50.8002  -28.4755   13.4138 C.3       9 UNK        -0.2003 
     42 N         -49.3214  -27.5111   15.0897 N.am      9 UNK        -0.4272 
     43 C         -48.5463  -27.4656   16.1819 C.2       9 UNK         0.4988 
     44 O         -48.6993  -28.1900   17.1654 O.2       9 UNK        -0.5108 
     45 CA        -47.4311  -26.4077   16.1857 C.3       8 UNK         0.0248 
     46 CB        -46.1603  -26.9514   15.5120 C.3       8 UNK        -0.2001 
     47 N         -47.8506  -25.1691   15.5240 N.am      8 UNK        -0.4140 
     48 C         -48.6999  -24.2783   16.0562 C.2       8 UNK         0.5028 
     49 O         -49.1831  -24.3815   17.1837 O.2       8 UNK        -0.5428 
     50 CA        -49.1075  -23.0884   15.1700 C.3       7 UNK         0.0264 
     51 CB        -48.0565  -21.9694   15.2463 C.3       7 UNK        -0.1988 
     52 N         -49.3275  -23.4593   13.7694 N.am      7 UNK        -0.4454 
     53 C         -50.3070  -24.2723   13.3456 C.2       7 UNK         0.5027 
     54 O         -51.1354  -24.7895   14.0924 O.2       7 UNK        -0.5083 
     55 CA        -50.3551  -24.5894   11.8391 C.3       6 UNK         0.0844 
     56 C56       -51.1826  -23.5073   11.0987 C.3       14 UNK        -0.0967 
     57 S57       -51.1677  -23.6823    9.2817 S.3       14 UNK        -0.2604 
     58 C58       -52.6151  -24.7540    9.0012 C.3       14 UNK         0.0134 
     59 N         -49.0331  -24.7938   11.2402 N.am      6 UNK        -0.4116 
     60 C         -48.0681  -25.6213   11.6648 C.2       5 UNK         0.5034 
     61 O         -48.1494  -26.2924   12.6942 O.2       5 UNK        -0.5045 
     62 CA        -46.7913  -25.7180   10.8077 C.3       5 UNK         0.0224 
     63 CB        -46.5247  -27.1717   10.3821 C.3       5 UNK        -0.1978 
     64 N         -46.8162  -24.8681    9.6114 N.am      5 UNK        -0.4737 
     65 C         -46.6254  -23.5451    9.5826 C.2       4 UNK         0.5027 
     66 O         -46.3761  -22.8772   10.5854 O.2       4 UNK        -0.5211 
     67 CA        -46.7805  -22.8375    8.2227 C.3       4 UNK         0.0297 
     68 CB        -45.4572  -22.8645    7.4334 C.3       4 UNK        -0.1993 
     69 N         -47.9084  -23.3008    7.3941 N.am      4 UNK        -0.4486 
     70 C         -48.0895  -24.4891    6.7993 C.2       3 UNK         0.4961 
     71 O         -47.3214  -25.4481    6.9368 O.2       3 UNK        -0.5105 
     72 CA        -49.3560  -24.6587    5.9313 C.3       3 UNK         0.0299 
     73 CB        -49.8947  -23.3432    5.3251 C.3       3 UNK        -0.1972 
     74 N         -49.1318  -25.6895    4.9118 N.am      3 UNK        -0.4305 
     75 C         -48.2677  -25.6297    3.8852 C.2       2 UNK         0.5006 
     76 O         -47.7663  -24.5930    3.4470 O.2       2 UNK        -0.5106 
     77 CA        -47.7898  -26.9929    3.3700 C.3       2 UNK         0.0296 
     78 CB        -46.7754  -26.9032    2.2132 C.3       2 UNK        -0.2002 
     79 N         -47.1842  -27.6444    4.5250 N.am      2 UNK        -0.4032 
     80 C         -47.1540  -28.9534    4.7939 C.2       1 UNK         0.5000 
     81 O         -47.4975  -29.8279    3.9962 O.2       1 UNK        -0.5238 
     82 H82       -43.6057  -26.1057    6.6287 H         1 UNK         0.0889 
     83 H83       -43.3062  -27.0826    8.0694 H         1 UNK         0.0889 
     84 H84       -44.8275  -26.2055    7.8929 H         1 UNK         0.0889 
     85 H85       -46.4977  -27.6492    7.4603 H         1 UNK         0.3028 
     86 H86       -46.0283  -30.2006    6.1037 H         1 UNK         0.0864 
     87 H87       -48.3823  -30.6739    6.6322 H         1 UNK         0.0720 
     88 H88       -47.5206  -30.1622    8.0539 H         1 UNK         0.0720 
     89 H89       -50.1127  -30.0964    8.9148 H         1 UNK         0.0814 
     90 H90       -49.0846  -28.9614    9.7581 H         1 UNK         0.0814 
     91 H91       -50.5346  -26.4082    8.4273 H         1 UNK         0.1469 
     92 H92       -54.2136  -26.2790   10.6114 H         1 UNK         0.1381 
     93 H93       -51.8920  -29.8780   10.5490 H         1 UNK         0.1206 
     94 H94       -53.6731  -29.5821   12.1934 H         1 UNK         0.0813 
     95 H95       -54.6097  -28.1126   12.2768 H         1 UNK         0.0813 
     96 H96       -56.1806  -31.7453   11.3969 H         1 UNK         0.0638 
     97 H97       -55.5778  -30.8021   12.7247 H         1 UNK         0.0638 
     98 H98       -58.2636  -30.4153   11.3207 H         1 UNK         0.0568 
     99 H99       -59.6351  -31.8641   14.6328 H         1 UNK         0.3450 
    100 H100      -59.4441  -30.1776   14.2255 H         1 UNK         0.3450 
    101 H101      -58.4977  -28.4440   12.2371 H         1 UNK         0.2987 
    102 H102      -58.2760  -26.6413   13.4159 H         1 UNK         0.0766 
    103 H103      -58.8917  -26.1057   15.7645 H         1 UNK         0.0798 
    104 H104      -58.0139  -27.5203   16.3436 H         1 UNK         0.0798 
    105 H105      -59.4458  -27.7173   15.3410 H         1 UNK         0.0798 
    106 H106      -56.1882  -26.1363   15.4230 H         1 UNK         0.3198 
    107 H107      -53.9929  -24.6255   13.0631 H         1 UNK         0.0843 
    108 H108      -55.7080  -23.3650   15.2629 H         1 UNK         0.0831 
    109 H109      -55.6958  -22.8827   13.5733 H         1 UNK         0.0831 
    110 H110      -54.2509  -22.6744   14.5495 H         1 UNK         0.0831 
    111 H111      -52.7462  -25.3324   14.6844 H         1 UNK         0.3133 
    112 H112      -52.3111  -25.1443   17.4341 H         1 UNK         0.0566 
    113 H113      -53.6512  -27.8206   18.0768 H         1 UNK         0.0814 
    114 H114      -52.2445  -27.1674   18.9171 H         1 UNK         0.0814 
    115 H115      -53.7853  -26.3299   18.9940 H         1 UNK         0.0814 
    116 H116      -50.8570  -26.1872   16.1685 H         1 UNK         0.3091 
    117 H117      -50.2173  -29.3798   15.2667 H         1 UNK         0.0702 
    118 H118      -51.5700  -29.2242   13.2297 H         1 UNK         0.0785 
    119 H119      -51.1641  -27.5272   13.0181 H         1 UNK         0.0785 
    120 H120      -49.9231  -28.7657   12.8348 H         1 UNK         0.0785 
    121 H121      -49.0704  -26.9243   14.2989 H         1 UNK         0.2998 
    122 H122      -47.1913  -26.1783   17.2263 H         1 UNK         0.0697 
    123 H123      -46.3302  -27.2065   14.4654 H         1 UNK         0.0825 
    124 H124      -45.8117  -27.8552   16.0136 H         1 UNK         0.0825 
    125 H125      -45.3479  -26.2257   15.5531 H         1 UNK         0.0825 
    126 H126      -47.5539  -25.0443   14.5659 H         1 UNK         0.3029 
    127 H127      -50.0495  -22.6978   15.5619 H         1 UNK         0.0897 
    128 H128      -48.3795  -21.0837   14.6988 H         1 UNK         0.0792 
    129 H129      -47.0957  -22.2854   14.8378 H         1 UNK         0.0792 
    130 H130      -47.8867  -21.6643   16.2800 H         1 UNK         0.0792 
    131 H131      -48.6841  -23.0829   13.0874 H         1 UNK         0.3086 
    132 H132      -50.8794  -25.5402   11.7377 H         1 UNK         0.0583 
    133 H133      -50.7968  -22.5107   11.3234 H         1 UNK         0.1020 
    134 H134      -52.2163  -23.5114   11.4502 H         1 UNK         0.1020 
    135 H135      -53.4873  -24.3134    9.4867 H         1 UNK         0.0694 
    136 H136      -52.8330  -24.7681    7.9326 H         1 UNK         0.0694 
    137 H137      -48.8713  -24.2985   10.3763 H         1 UNK         0.2989 
    138 H138      -45.9666  -25.3947   11.4467 H         1 UNK         0.1055 
    139 H139      -46.5712  -27.8524   11.2336 H         1 UNK         0.0806 
    140 H140      -45.5318  -27.2804    9.9476 H         1 UNK         0.0806 
    141 H141      -47.2538  -27.5141    9.6493 H         1 UNK         0.0806 
    142 H142      -47.0253  -25.3129    8.7198 H         1 UNK         0.3061 
    143 H143      -46.9984  -21.7922    8.4483 H         1 UNK         0.0734 
    144 H144      -45.5286  -22.2701    6.5225 H         1 UNK         0.0832 
    145 H145      -44.6409  -22.4505    8.0268 H         1 UNK         0.0832 
    146 H146      -45.1687  -23.8758    7.1485 H         1 UNK         0.0832 
    147 H147      -48.6303  -22.6089    7.2466 H         1 UNK         0.3156 
    148 H148      -50.1292  -25.0552    6.5888 H         1 UNK         0.0589 
    149 H149      -49.1222  -22.7880    4.7918 H         1 UNK         0.0808 
    150 H150      -50.7062  -23.5378    4.6238 H         1 UNK         0.0808 
    151 H151      -50.2978  -22.6880    6.0981 H         1 UNK         0.0808 
    152 H152      -49.4454  -26.6115    5.1839 H         1 UNK         0.3098 
    153 H153      -48.6651  -27.5562    3.0393 H         1 UNK         0.0720 
    154 H154      -45.8782  -26.3560    2.5052 H         1 UNK         0.0791 
    155 H155      -47.2091  -26.3903    1.3539 H         1 UNK         0.0791 
    156 H156      -46.4681  -27.8944    1.8797 H         1 UNK         0.0791 
    157 H157      -46.9077  -27.0128    5.2687 H         1 UNK         0.3028 
@<TRIPOS>BOND
     1    1    2 1    
     2    1   82 1    
     3    1   83 1    
     4    1   84 1    
     5    2    3 2    
     6    2    4 am   BACKBONE|DICT|INTERRES
     7    4    5 1    
     8    4   85 1    
     9    5    6 1    
    10    5   80 1    
    11    5   86 1    
    12    6    7 1    
    13    6   87 1    
    14    6   88 1    
    15    7    8 1    
    16    8    9 1    
    17    8   89 1    
    18    8   90 1    
    19    9   10 ar   
    20    9   14 ar   
    21   10   11 ar   
    22   10   91 1    
    23   11   12 ar   
    24   11   58 1    
    25   12   13 ar   
    26   12   92 1    
    27   13   14 ar   
    28   13   15 1    
    29   14   93 1    
    30   15   16 1    
    31   15   94 1    
    32   15   95 1    
    33   16   17 1    
    34   17   18 1    
    35   17   96 1    
    36   17   97 1    
    37   18   19 1    
    38   18   22 1    
    39   18   98 1    
    40   19   20 am   BACKBONE|DICT|INTERRES
    41   19   21 2    
    42   20   99 1    
    43   20  100 1    
    44   22   23 am   BACKBONE|DICT|INTERRES
    45   22  101 1    
    46   23   24 2    
    47   23   25 1    
    48   25   26 1    
    49   25   27 1    
    50   25  102 1    
    51   26  103 1    
    52   26  104 1    
    53   26  105 1    
    54   27   28 am   BACKBONE|DICT|INTERRES
    55   27  106 1    
    56   28   29 2    
    57   28   30 1    
    58   30   31 1    
    59   30   32 1    
    60   30  107 1    
    61   31  108 1    
    62   31  109 1    
    63   31  110 1    
    64   32   33 am   BACKBONE|DICT|INTERRES
    65   32  111 1    
    66   33   34 2    
    67   33   35 1    
    68   35   36 1    
    69   35   37 1    
    70   35  112 1    
    71   36  113 1    
    72   36  114 1    
    73   36  115 1    
    74   37   38 am   BACKBONE|DICT|INTERRES
    75   37  116 1    
    76   38   39 2    
    77   38   40 1    
    78   40   41 1    
    79   40   42 1    
    80   40  117 1    
    81   41  118 1    
    82   41  119 1    
    83   41  120 1    
    84   42   43 am   BACKBONE|DICT|INTERRES
    85   42  121 1    
    86   43   44 2    
    87   43   45 1    
    88   45   46 1    
    89   45   47 1    
    90   45  122 1    
    91   46  123 1    
    92   46  124 1    
    93   46  125 1    
    94   47   48 am   BACKBONE|DICT|INTERRES
    95   47  126 1    
    96   48   49 2    
    97   48   50 1    
    98   50   51 1    
    99   50   52 1    
   100   50  127 1    
   101   51  128 1    
   102   51  129 1    
   103   51  130 1    
   104   52   53 am   BACKBONE|DICT|INTERRES
   105   52  131 1    
   106   53   54 2    
   107   53   55 1    
   108   55   56 1    
   109   55   59 1    
   110   55  132 1    
   111   56   57 1    
   112   56  133 1    
   113   56  134 1    
   114   57   58 1    
   115   58  135 1    
   116   58  136 1    
   117   59   60 am   BACKBONE|DICT|INTERRES
   118   59  137 1    
   119   60   61 2    
   120   60   62 1    
   121   62   63 1    
   122   62   64 1    
   123   62  138 1    
   124   63  139 1    
   125   63  140 1    
   126   63  141 1    
   127   64   65 am   BACKBONE|DICT|INTERRES
   128   64  142 1    
   129   65   66 2    
   130   65   67 1    
   131   67   68 1    
   132   67   69 1    
   133   67  143 1    
   134   68  144 1    
   135   68  145 1    
   136   68  146 1    
   137   69   70 am   BACKBONE|DICT|INTERRES
   138   69  147 1    
   139   70   71 2    
   140   70   72 1    
   141   72   73 1    
   142   72   74 1    
   143   72  148 1    
   144   73  149 1    
   145   73  150 1    
   146   73  151 1    
   147   74   75 am   BACKBONE|DICT|INTERRES
   148   74  152 1    
   149   75   76 2    
   150   75   77 1    
   151   77   78 1    
   152   77   79 1    
   153   77  153 1    
   154   78  154 1    
   155   78  155 1    
   156   78  156 1    
   157   79   80 am   BACKBONE|DICT|INTERRES
   158   79  157 1    
   159   80   81 2    
@<TRIPOS>SUBSTRUCTURE
     1 UNK         1 GROUP             0       ****    0 ROOT    
