@<TRIPOS>MOLECULE
3R207
157   159    1
SMALL
USER_CHARGES


@<TRIPOS>ATOM
      1 CA        -50.5934  -29.0354    2.6304 C.3       0 UNK        -0.1975 
      2 C         -50.2294  -28.2200    3.8617 C.2       0 UNK         0.4852 
      3 O         -49.3917  -28.6556    4.6534 O.2       0 UNK        -0.5216 
      4 N         -50.8599  -27.0478    4.0303 N.am      1 UNK        -0.4461 
      5 CA        -50.6764  -26.0657    5.1127 C.3       1 UNK         0.0864 
      6 C6        -50.9689  -26.6082    6.5402 C.3       14 UNK        -0.0898 
      7 S7        -52.6705  -27.2501    6.7286 S.3       14 UNK        -0.2598 
      8 C8        -52.4506  -29.0624    6.6851 C.3       14 UNK         0.0286 
      9 C9        -51.9191  -29.6317    7.9940 C.ar      14 UNK        -0.0844 
     10 C10       -50.5429  -29.7362    8.2128 C.ar      14 UNK        -0.0881 
     11 C11       -50.0471  -30.2635    9.4081 C.ar      14 UNK        -0.0643 
     12 C12       -50.9401  -30.7284   10.3781 C.ar      14 UNK        -0.0930 
     13 C13       -52.3197  -30.6698   10.1531 C.ar      14 UNK        -0.0827 
     14 C14       -52.8032  -30.1038    8.9688 C.ar      14 UNK        -0.1249 
     15 C15       -53.2897  -31.2519   11.1689 C.3       14 UNK         0.0141 
     16 S16       -53.7041  -30.0410   12.4526 S.3       14 UNK        -0.2313 
     17 C17       -55.0750  -30.8876   13.3093 C.3       14 UNK        -0.0915 
     18 CA        -56.4797  -30.3998   12.8332 C.3       13 UNK         0.0968 
     19 C         -57.6755  -31.1308   13.5182 C.2       13 UNK         0.5732 
     20 N         -57.5170  -32.3830   13.9279 N.am      13 UNK        -0.7310 
     21 O         -58.7762  -30.5925   13.6302 O.2       13 UNK        -0.5035 
     22 N         -56.6113  -28.9327   12.8527 N.am      13 UNK        -0.4233 
     23 C         -56.5677  -28.1535   13.9403 C.2       13 UNK         0.4989 
     24 O         -56.4681  -28.5802   15.0924 O.2       13 UNK        -0.4996 
     25 CA        -56.6342  -26.6423   13.6639 C.3       12 UNK         0.0216 
     26 CB        -58.0871  -26.1406   13.5332 C.3       12 UNK        -0.1964 
     27 N         -55.8457  -25.8703   14.6312 N.am      12 UNK        -0.4276 
     28 C         -56.1351  -25.5325   15.8974 C.2       12 UNK         0.5020 
     29 O         -57.2231  -25.7167   16.4478 O.2       12 UNK        -0.5489 
     30 CA        -54.9832  -24.8639   16.6725 C.3       11 UNK         0.0294 
     31 CB        -55.3399  -24.5131   18.1333 C.3       11 UNK        -0.2019 
     32 N         -53.7518  -25.6582   16.5984 N.am      11 UNK        -0.4493 
     33 C         -53.5401  -26.8962   17.0732 C.2       11 UNK         0.4932 
     34 O         -54.3457  -27.5198   17.7643 O.2       11 UNK        -0.5029 
     35 CA        -52.2028  -27.5725   16.7123 C.3       10 UNK         0.0280 
     36 CB        -52.4342  -28.6376   15.6286 C.3       10 UNK        -0.1976 
     37 N         -51.1723  -26.6395   16.2476 N.am      10 UNK        -0.4242 
     38 C         -50.5244  -25.7603   17.0256 C.2       10 UNK         0.5072 
     39 O         -50.6602  -25.6950   18.2480 O.2       10 UNK        -0.5224 
     40 CA        -49.5994  -24.7555   16.3145 C.3       9 UNK         0.0343 
     41 CB        -48.2156  -25.3727   16.0581 C.3       9 UNK        -0.2003 
     42 N         -50.1567  -24.2570   15.0533 N.am      9 UNK        -0.4272 
     43 C         -51.2926  -23.5516   14.9405 C.2       9 UNK         0.4988 
     44 O         -51.9825  -23.2010   15.8968 O.2       9 UNK        -0.5108 
     45 CA        -51.7716  -23.2283   13.5179 C.3       8 UNK         0.0248 
     46 CB        -51.0376  -22.0024   12.9531 C.3       8 UNK        -0.2001 
     47 N         -51.6092  -24.3748   12.6220 N.am      8 UNK        -0.4140 
     48 C         -52.3734  -25.4751   12.6706 C.2       8 UNK         0.5028 
     49 O         -53.3269  -25.6083   13.4391 O.2       8 UNK        -0.5428 
     50 CA        -51.9983  -26.6296   11.7261 C.3       7 UNK         0.0264 
     51 CB        -52.6673  -26.4520   10.3570 C.3       7 UNK        -0.1988 
     52 N         -50.5524  -26.7973   11.5532 N.am      7 UNK        -0.4454 
     53 C         -49.7256  -27.1854   12.5345 C.2       7 UNK         0.5027 
     54 O         -50.1048  -27.4562   13.6740 O.2       7 UNK        -0.5083 
     55 CA        -48.2142  -27.2050   12.2281 C.3       6 UNK         0.0844 
     56 C56       -47.7302  -28.5738   11.6779 C.3       14 UNK        -0.0967 
     57 S57       -47.7832  -28.7292    9.8548 S.3       14 UNK        -0.2604 
     58 C58       -48.5440  -30.3657    9.6139 C.3       14 UNK         0.0134 
     59 N         -47.7678  -26.0748   11.4078 N.am      6 UNK        -0.4116 
     60 C         -47.9173  -24.7765   11.6992 C.2       5 UNK         0.5034 
     61 O         -48.4913  -24.3668   12.7093 O.2       5 UNK        -0.5045 
     62 CA        -47.3584  -23.7752   10.6709 C.3       5 UNK         0.0224 
     63 CB        -47.0905  -22.3813   11.2770 C.3       5 UNK        -0.1978 
     64 N         -46.1722  -24.2656    9.9567 N.am      5 UNK        -0.4737 
     65 C         -44.9726  -24.5726   10.4810 C.2       4 UNK         0.5027 
     66 O         -44.7208  -24.5510   11.6856 O.2       4 UNK        -0.5211 
     67 CA        -43.8536  -24.9703    9.4965 C.3       4 UNK         0.0297 
     68 CB        -43.7061  -26.5004    9.4525 C.3       4 UNK        -0.1993 
     69 N         -44.0715  -24.4730    8.1354 N.am      4 UNK        -0.4486 
     70 C         -44.1250  -23.1815    7.7781 C.2       3 UNK         0.4961 
     71 O         -43.8192  -22.2540    8.5280 O.2       3 UNK        -0.5105 
     72 CA        -44.6371  -22.8582    6.3593 C.3       3 UNK         0.0299 
     73 CB        -43.4925  -22.3167    5.4865 C.3       3 UNK        -0.1972 
     74 N         -45.2866  -23.9725    5.6539 N.am      3 UNK        -0.4305 
     75 C         -46.3848  -24.6377    6.0429 C.2       2 UNK         0.5006 
     76 O         -46.9758  -24.4374    7.1076 O.2       2 UNK        -0.5106 
     77 CA        -46.8203  -25.7805    5.1100 C.3       2 UNK         0.0296 
     78 CB        -45.9651  -27.0313    5.3778 C.3       2 UNK        -0.2002 
     79 N         -48.2292  -26.1562    5.2304 N.am      2 UNK        -0.4032 
     80 C         -49.2975  -25.3752    5.0244 C.2       1 UNK         0.5000 
     81 O         -49.2342  -24.1817    4.7226 O.2       1 UNK        -0.5238 
     82 H82       -50.9768  -30.0109    2.9283 H         1 UNK         0.0889 
     83 H83       -49.7111  -29.1906    2.0101 H         1 UNK         0.0889 
     84 H84       -51.3532  -28.5431    2.0237 H         1 UNK         0.0889 
     85 H85       -51.5261  -26.7618    3.3261 H         1 UNK         0.3028 
     86 H86       -51.4137  -25.2851    4.9169 H         1 UNK         0.0864 
     87 H87       -50.8503  -25.8067    7.2716 H         1 UNK         0.0720 
     88 H88       -50.2461  -27.3684    6.8250 H         1 UNK         0.0720 
     89 H89       -51.7952  -29.3453    5.8639 H         1 UNK         0.0814 
     90 H90       -53.4161  -29.5165    6.4577 H         1 UNK         0.0814 
     91 H91       -49.8471  -29.4140    7.4509 H         1 UNK         0.1469 
     92 H92       -50.5644  -31.1567   11.2973 H         1 UNK         0.1381 
     93 H93       -53.8696  -30.0475    8.7975 H         1 UNK         0.1206 
     94 H94       -52.8592  -32.1400   11.6339 H         1 UNK         0.0813 
     95 H95       -54.2033  -31.5772   10.6687 H         1 UNK         0.0813 
     96 H96       -54.9556  -30.7191   14.3807 H         1 UNK         0.0638 
     97 H97       -54.9623  -31.9619   13.1587 H         1 UNK         0.0638 
     98 H98       -56.5696  -30.6714   11.7812 H         1 UNK         0.0568 
     99 H99       -56.6338  -32.8575   13.8301 H         1 UNK         0.3450 
    100 H100      -58.2982  -32.8602   14.3498 H         1 UNK         0.3450 
    101 H101      -56.7323  -28.5002   11.9492 H         1 UNK         0.2987 
    102 H102      -56.1393  -26.4653   12.7073 H         1 UNK         0.0766 
    103 H103      -58.1247  -25.0616   13.3831 H         1 UNK         0.0798 
    104 H104      -58.6829  -26.3806   14.4142 H         1 UNK         0.0798 
    105 H105      -58.5819  -26.6050   12.6796 H         1 UNK         0.0798 
    106 H106      -54.8901  -25.6945   14.3147 H         1 UNK         0.3198 
    107 H107      -54.7707  -23.9261   16.1563 H         1 UNK         0.0843 
    108 H108      -55.6189  -25.3955   18.7096 H         1 UNK         0.0831 
    109 H109      -56.1841  -23.8238   18.1705 H         1 UNK         0.0831 
    110 H110      -54.5040  -24.0306   18.6397 H         1 UNK         0.0831 
    111 H111      -53.0083  -25.2376   16.0556 H         1 UNK         0.3133 
    112 H112      -51.8319  -28.0716   17.6098 H         1 UNK         0.0566 
    113 H113      -51.5203  -29.1884   15.4061 H         1 UNK         0.0814 
    114 H114      -53.1841  -29.3649   15.9430 H         1 UNK         0.0814 
    115 H115      -52.7890  -28.1886   14.7001 H         1 UNK         0.0814 
    116 H116      -50.9291  -26.6898   15.2615 H         1 UNK         0.3091 
    117 H117      -49.4715  -23.8970   16.9770 H         1 UNK         0.0702 
    118 H118      -47.5419  -24.6566   15.5869 H         1 UNK         0.0785 
    119 H119      -48.2783  -26.2480   15.4117 H         1 UNK         0.0785 
    120 H120      -47.7517  -25.6903   16.9928 H         1 UNK         0.0785 
    121 H121      -49.6224  -24.4495   14.2089 H         1 UNK         0.2998 
    122 H122      -52.8357  -22.9864   13.5694 H         1 UNK         0.0697 
    123 H123      -49.9592  -22.1525   12.9247 H         1 UNK         0.0825 
    124 H124      -51.2238  -21.1227   13.5706 H         1 UNK         0.0825 
    125 H125      -51.3731  -21.7659   11.9433 H         1 UNK         0.0825 
    126 H126      -50.8117  -24.3629   12.0033 H         1 UNK         0.3029 
    127 H127      -52.3833  -27.5456   12.1744 H         1 UNK         0.0897 
    128 H128      -52.4881  -27.3196    9.7236 H         1 UNK         0.0792 
    129 H129      -52.3002  -25.5696    9.8320 H         1 UNK         0.0792 
    130 H130      -53.7483  -26.3484   10.4604 H         1 UNK         0.0792 
    131 H131      -50.1677  -26.6176   10.6373 H         1 UNK         0.3086 
    132 H132      -47.7244  -27.0714   13.1947 H         1 UNK         0.0583 
    133 H133      -46.6895  -28.7203   11.9716 H         1 UNK         0.1020 
    134 H134      -48.2733  -29.3969   12.1471 H         1 UNK         0.1020 
    135 H135      -48.0999  -30.8246    8.7294 H         1 UNK         0.0694 
    136 H136      -48.3005  -31.0261   10.4474 H         1 UNK         0.0694 
    137 H137      -47.2972  -26.3207   10.5489 H         1 UNK         0.2989 
    138 H138      -48.1363  -23.6589    9.9145 H         1 UNK         0.1055 
    139 H139      -48.0109  -21.9279   11.6435 H         1 UNK         0.0806 
    140 H140      -46.6709  -21.7008   10.5359 H         1 UNK         0.0806 
    141 H141      -46.3967  -22.4317   12.1168 H         1 UNK         0.0806 
    142 H142      -46.2835  -24.3389    8.9478 H         1 UNK         0.3061 
    143 H143      -42.9205  -24.5404    9.8666 H         1 UNK         0.0734 
    144 H144      -44.6090  -26.9843    9.0771 H         1 UNK         0.0832 
    145 H145      -42.8726  -26.8024    8.8182 H         1 UNK         0.0832 
    146 H146      -43.5138  -26.9017   10.4487 H         1 UNK         0.0832 
    147 H147      -44.3269  -25.1581    7.4405 H         1 UNK         0.3156 
    148 H148      -45.3840  -22.0693    6.4683 H         1 UNK         0.0589 
    149 H149      -42.7224  -23.0705    5.3178 H         1 UNK         0.0808 
    150 H150      -43.8560  -21.9819    4.5148 H         1 UNK         0.0808 
    151 H151      -43.0101  -21.4598    5.9595 H         1 UNK         0.0808 
    152 H152      -44.8611  -24.2392    4.7770 H         1 UNK         0.3098 
    153 H153      -46.6618  -25.4582    4.0789 H         1 UNK         0.0720 
    154 H154      -46.2199  -27.8395    4.6914 H         1 UNK         0.0791 
    155 H155      -46.1042  -27.4025    6.3945 H         1 UNK         0.0791 
    156 H156      -44.9021  -26.8248    5.2470 H         1 UNK         0.0791 
    157 H157      -48.4213  -27.1429    5.3761 H         1 UNK         0.3028 
@<TRIPOS>BOND
     1    1    2 1    
     2    1   82 1    
     3    1   83 1    
     4    1   84 1    
     5    2    3 2    
     6    2    4 am   BACKBONE|DICT|INTERRES
     7    4    5 1    
     8    4   85 1    
     9    5    6 1    
    10    5   80 1    
    11    5   86 1    
    12    6    7 1    
    13    6   87 1    
    14    6   88 1    
    15    7    8 1    
    16    8    9 1    
    17    8   89 1    
    18    8   90 1    
    19    9   10 ar   
    20    9   14 ar   
    21   10   11 ar   
    22   10   91 1    
    23   11   12 ar   
    24   11   58 1    
    25   12   13 ar   
    26   12   92 1    
    27   13   14 ar   
    28   13   15 1    
    29   14   93 1    
    30   15   16 1    
    31   15   94 1    
    32   15   95 1    
    33   16   17 1    
    34   17   18 1    
    35   17   96 1    
    36   17   97 1    
    37   18   19 1    
    38   18   22 1    
    39   18   98 1    
    40   19   20 am   BACKBONE|DICT|INTERRES
    41   19   21 2    
    42   20   99 1    
    43   20  100 1    
    44   22   23 am   BACKBONE|DICT|INTERRES
    45   22  101 1    
    46   23   24 2    
    47   23   25 1    
    48   25   26 1    
    49   25   27 1    
    50   25  102 1    
    51   26  103 1    
    52   26  104 1    
    53   26  105 1    
    54   27   28 am   BACKBONE|DICT|INTERRES
    55   27  106 1    
    56   28   29 2    
    57   28   30 1    
    58   30   31 1    
    59   30   32 1    
    60   30  107 1    
    61   31  108 1    
    62   31  109 1    
    63   31  110 1    
    64   32   33 am   BACKBONE|DICT|INTERRES
    65   32  111 1    
    66   33   34 2    
    67   33   35 1    
    68   35   36 1    
    69   35   37 1    
    70   35  112 1    
    71   36  113 1    
    72   36  114 1    
    73   36  115 1    
    74   37   38 am   BACKBONE|DICT|INTERRES
    75   37  116 1    
    76   38   39 2    
    77   38   40 1    
    78   40   41 1    
    79   40   42 1    
    80   40  117 1    
    81   41  118 1    
    82   41  119 1    
    83   41  120 1    
    84   42   43 am   BACKBONE|DICT|INTERRES
    85   42  121 1    
    86   43   44 2    
    87   43   45 1    
    88   45   46 1    
    89   45   47 1    
    90   45  122 1    
    91   46  123 1    
    92   46  124 1    
    93   46  125 1    
    94   47   48 am   BACKBONE|DICT|INTERRES
    95   47  126 1    
    96   48   49 2    
    97   48   50 1    
    98   50   51 1    
    99   50   52 1    
   100   50  127 1    
   101   51  128 1    
   102   51  129 1    
   103   51  130 1    
   104   52   53 am   BACKBONE|DICT|INTERRES
   105   52  131 1    
   106   53   54 2    
   107   53   55 1    
   108   55   56 1    
   109   55   59 1    
   110   55  132 1    
   111   56   57 1    
   112   56  133 1    
   113   56  134 1    
   114   57   58 1    
   115   58  135 1    
   116   58  136 1    
   117   59   60 am   BACKBONE|DICT|INTERRES
   118   59  137 1    
   119   60   61 2    
   120   60   62 1    
   121   62   63 1    
   122   62   64 1    
   123   62  138 1    
   124   63  139 1    
   125   63  140 1    
   126   63  141 1    
   127   64   65 am   BACKBONE|DICT|INTERRES
   128   64  142 1    
   129   65   66 2    
   130   65   67 1    
   131   67   68 1    
   132   67   69 1    
   133   67  143 1    
   134   68  144 1    
   135   68  145 1    
   136   68  146 1    
   137   69   70 am   BACKBONE|DICT|INTERRES
   138   69  147 1    
   139   70   71 2    
   140   70   72 1    
   141   72   73 1    
   142   72   74 1    
   143   72  148 1    
   144   73  149 1    
   145   73  150 1    
   146   73  151 1    
   147   74   75 am   BACKBONE|DICT|INTERRES
   148   74  152 1    
   149   75   76 2    
   150   75   77 1    
   151   77   78 1    
   152   77   79 1    
   153   77  153 1    
   154   78  154 1    
   155   78  155 1    
   156   78  156 1    
   157   79   80 am   BACKBONE|DICT|INTERRES
   158   79  157 1    
   159   80   81 2    
@<TRIPOS>SUBSTRUCTURE
     1 UNK         1 GROUP             0       ****    0 ROOT    
