@<TRIPOS>MOLECULE
3R207
157   159    1
SMALL
USER_CHARGES


@<TRIPOS>ATOM
      1 CA        -50.2755  -29.3251    9.1681 C.3       0 UNK        -0.1975 
      2 C         -49.6294  -29.4671    7.7982 C.2       0 UNK         0.4852 
      3 O         -48.5321  -30.0152    7.6941 O.2       0 UNK        -0.5216 
      4 N         -50.2985  -28.9756    6.7464 N.am      1 UNK        -0.4461 
      5 CA        -49.8369  -29.0310    5.3504 C.3       1 UNK         0.0864 
      6 C6        -50.9905  -28.7614    4.3518 C.3       14 UNK        -0.0898 
      7 S7        -52.2845  -30.0452    4.4027 S.3       14 UNK        -0.2598 
      8 C8        -53.7657  -29.0782    4.8311 C.3       14 UNK         0.0286 
      9 C9        -53.8399  -28.7949    6.3230 C.ar      14 UNK        -0.0844 
     10 C10       -53.4456  -27.5553    6.8359 C.ar      14 UNK        -0.0881 
     11 C11       -53.5220  -27.3011    8.2093 C.ar      14 UNK        -0.0643 
     12 C12       -54.0238  -28.2858    9.0653 C.ar      14 UNK        -0.0930 
     13 C13       -54.4254  -29.5260    8.5612 C.ar      14 UNK        -0.0827 
     14 C14       -54.3252  -29.7769    7.1909 C.ar      14 UNK        -0.1249 
     15 C15       -55.0005  -30.5780    9.4945 C.3       14 UNK         0.0141 
     16 S16       -53.7469  -31.2327   10.6402 S.3       14 UNK        -0.2313 
     17 C17       -54.8212  -32.1383   11.8100 C.3       14 UNK        -0.0915 
     18 CA        -55.0475  -31.4050   13.1658 C.3       13 UNK         0.0968 
     19 C         -53.8118  -31.4262   14.1046 C.2       13 UNK         0.5732 
     20 N         -53.3110  -32.6059   14.4506 N.am      13 UNK        -0.7310 
     21 O         -53.3103  -30.3905   14.5391 O.2       13 UNK        -0.5035 
     22 N         -55.5645  -30.0430   12.9897 N.am      13 UNK        -0.4233 
     23 C         -56.8247  -29.7147   12.6972 C.2       13 UNK         0.4989 
     24 O         -57.7342  -30.5374   12.5754 O.2       13 UNK        -0.4996 
     25 CA        -57.1102  -28.2111   12.5109 C.3       12 UNK         0.0216 
     26 CB        -58.5635  -27.9293   12.0827 C.3       12 UNK        -0.1964 
     27 N         -56.8163  -27.4546   13.7302 N.am      12 UNK        -0.4276 
     28 C         -55.5972  -27.0554   14.1100 C.2       12 UNK         0.5020 
     29 O         -54.5710  -27.2637   13.4550 O.2       12 UNK        -0.5489 
     30 CA        -55.5066  -26.3425   15.4622 C.3       11 UNK         0.0294 
     31 CB        -55.5856  -27.3583   16.6186 C.3       11 UNK        -0.2019 
     32 N         -54.2387  -25.6247   15.5161 N.am      11 UNK        -0.4493 
     33 C         -53.9297  -24.6249   16.3493 C.2       11 UNK         0.4932 
     34 O         -54.7224  -24.1541   17.1670 O.2       11 UNK        -0.5029 
     35 CA        -52.4989  -24.0545   16.2472 C.3       10 UNK         0.0280 
     36 CB        -52.0446  -23.3370   17.5358 C.3       10 UNK        -0.1976 
     37 N         -51.5010  -25.0467   15.8279 N.am      10 UNK        -0.4242 
     38 C         -51.1770  -26.1920   16.4500 C.2       10 UNK         0.5072 
     39 O         -51.6775  -26.5779   17.5073 O.2       10 UNK        -0.5224 
     40 CA        -50.1044  -27.0567   15.7690 C.3       9 UNK         0.0343 
     41 CB        -50.6954  -27.7966   14.5575 C.3       9 UNK        -0.2003 
     42 N         -48.9364  -26.2793   15.3516 N.am      9 UNK        -0.4272 
     43 C         -48.0789  -25.6797   16.1908 C.2       9 UNK         0.4988 
     44 O         -48.1385  -25.7715   17.4177 O.2       9 UNK        -0.5108 
     45 CA        -46.9660  -24.8276   15.5578 C.3       8 UNK         0.0248 
     46 CB        -45.8006  -25.7142   15.0902 C.3       8 UNK        -0.2001 
     47 N         -47.4456  -24.0028   14.4455 N.am      8 UNK        -0.4140 
     48 C         -48.3052  -22.9812   14.5781 C.2       8 UNK         0.5028 
     49 O         -48.7329  -22.5807   15.6611 O.2       8 UNK        -0.5428 
     50 CA        -48.7860  -22.2943   13.2883 C.3       7 UNK         0.0264 
     51 CB        -47.7630  -21.2484   12.8177 C.3       7 UNK        -0.1988 
     52 N         -49.0725  -23.2363   12.2022 N.am      7 UNK        -0.4454 
     53 C         -50.0399  -24.1660   12.2413 C.2       7 UNK         0.5027 
     54 O         -50.8194  -24.2983   13.1853 O.2       7 UNK        -0.5083 
     55 CA        -50.1280  -25.1489   11.0569 C.3       6 UNK         0.0844 
     56 C56       -50.8882  -24.5260    9.8616 C.3       14 UNK        -0.0967 
     57 S57       -51.2589  -25.7785    8.5879 S.3       14 UNK        -0.2604 
     58 C58       -53.0572  -25.9679    8.7730 C.3       14 UNK         0.0134 
     59 N         -48.8074  -25.6535   10.6738 N.am      6 UNK        -0.4116 
     60 C         -47.9932  -26.3641   11.4652 C.2       5 UNK         0.5034 
     61 O         -48.2821  -26.7266   12.6042 O.2       5 UNK        -0.5045 
     62 CA        -46.5947  -26.6719   10.9133 C.3       5 UNK         0.0224 
     63 CB        -46.6320  -27.8600    9.9387 C.3       5 UNK        -0.1978 
     64 N         -45.9977  -25.5028   10.2629 N.am      5 UNK        -0.4737 
     65 C         -45.6037  -24.3997   10.9149 C.2       4 UNK         0.5027 
     66 O         -45.6733  -24.2670   12.1357 O.2       4 UNK        -0.5211 
     67 CA        -45.0742  -23.2362   10.0606 C.3       4 UNK         0.0297 
     68 CB        -43.5872  -23.4403    9.7320 C.3       4 UNK        -0.1993 
     69 N         -45.8321  -23.0488    8.8215 N.am      4 UNK        -0.4486 
     70 C         -47.1141  -22.6611    8.7710 C.2       3 UNK         0.4961 
     71 O         -47.7938  -22.3976    9.7623 O.2       3 UNK        -0.5105 
     72 CA        -47.7646  -22.6142    7.3784 C.3       3 UNK         0.0299 
     73 CB        -47.4044  -21.3067    6.6552 C.3       3 UNK        -0.1972 
     74 N         -47.4326  -23.7629    6.5257 N.am      3 UNK        -0.4305 
     75 C         -47.6528  -25.0419    6.8574 C.2       2 UNK         0.5006 
     76 O         -48.0680  -25.4064    7.9584 O.2       2 UNK        -0.5106 
     77 CA        -47.3377  -26.1050    5.8074 C.3       2 UNK         0.0296 
     78 CB        -45.9265  -26.6835    6.0237 C.3       2 UNK        -0.2002 
     79 N         -48.3525  -27.1438    5.9453 N.am      2 UNK        -0.4032 
     80 C         -48.6478  -28.0889    5.0465 C.2       1 UNK         0.5000 
     81 O         -48.0341  -28.2259    3.9859 O.2       1 UNK        -0.5238 
     82 H82       -51.3284  -29.0645    9.0909 H         1 UNK         0.0889 
     83 H83       -49.7753  -28.5480    9.7436 H         1 UNK         0.0889 
     84 H84       -50.2042  -30.2606    9.7198 H         1 UNK         0.0889 
     85 H85       -51.2111  -28.5635    6.8900 H         1 UNK         0.3028 
     86 H86       -49.4690  -30.0434    5.1691 H         1 UNK         0.0864 
     87 H87       -51.4259  -27.7765    4.5278 H         1 UNK         0.0720 
     88 H88       -50.6165  -28.7428    3.3260 H         1 UNK         0.0720 
     89 H89       -54.6490  -29.6426    4.5282 H         1 UNK         0.0814 
     90 H90       -53.7904  -28.1528    4.2536 H         1 UNK         0.0814 
     91 H91       -53.0698  -26.7882    6.1723 H         1 UNK         0.1469 
     92 H92       -54.0941  -28.0946   10.1279 H         1 UNK         0.1381 
     93 H93       -54.6347  -30.7343    6.7938 H         1 UNK         0.1206 
     94 H94       -55.8217  -30.1322   10.0539 H         1 UNK         0.0813 
     95 H95       -55.4302  -31.4065    8.9294 H         1 UNK         0.0813 
     96 H96       -54.3914  -33.1282   11.9693 H         1 UNK         0.0638 
     97 H97       -55.7857  -32.3246   11.3355 H         1 UNK         0.0638 
     98 H98       -55.8110  -31.9593   13.7153 H         1 UNK         0.0568 
     99 H99       -52.5121  -32.6335   15.0642 H         1 UNK         0.3450 
    100 H100      -53.7137  -33.4668   14.1132 H         1 UNK         0.3450 
    101 H101      -54.8835  -29.3031   13.1379 H         1 UNK         0.2987 
    102 H102      -56.4579  -27.8583   11.7080 H         1 UNK         0.0766 
    103 H103      -58.7252  -26.8660   11.9034 H         1 UNK         0.0798 
    104 H104      -59.2804  -28.2559   12.8377 H         1 UNK         0.0798 
    105 H105      -58.8052  -28.4510   11.1556 H         1 UNK         0.0798 
    106 H106      -57.5980  -27.2781   14.3459 H         1 UNK         0.3198 
    107 H107      -56.3275  -25.6261   15.5361 H         1 UNK         0.0843 
    108 H108      -54.7719  -28.0836   16.5685 H         1 UNK         0.0831 
    109 H109      -56.5226  -27.9158   16.5947 H         1 UNK         0.0831 
    110 H110      -55.5309  -26.8647   17.5887 H         1 UNK         0.0831 
    111 H111      -53.5629  -25.9371   14.8284 H         1 UNK         0.3133 
    112 H112      -52.5283  -23.3097   15.4507 H         1 UNK         0.0566 
    113 H113      -51.0372  -22.9338   17.4286 H         1 UNK         0.0814 
    114 H114      -52.7034  -22.5009   17.7731 H         1 UNK         0.0814 
    115 H115      -52.0476  -24.0085   18.3950 H         1 UNK         0.0814 
    116 H116      -51.0581  -24.8466   14.9322 H         1 UNK         0.3091 
    117 H117      -49.7692  -27.8036   16.4916 H         1 UNK         0.0702 
    118 H118      -49.9764  -28.4953   14.1300 H         1 UNK         0.0785 
    119 H119      -51.0004  -27.1086   13.7683 H         1 UNK         0.0785 
    120 H120      -51.5761  -28.3718   14.8446 H         1 UNK         0.0785 
    121 H121      -48.7648  -26.2184   14.3507 H         1 UNK         0.2998 
    122 H122      -46.5867  -24.1543   16.3293 H         1 UNK         0.0697 
    123 H123      -46.1025  -26.3913   14.2909 H         1 UNK         0.0825 
    124 H124      -45.4206  -26.3249   15.9103 H         1 UNK         0.0825 
    125 H125      -44.9691  -25.1131   14.7218 H         1 UNK         0.0825 
    126 H126      -47.0740  -24.2172   13.5241 H         1 UNK         0.3029 
    127 H127      -49.7167  -21.7738   13.5245 H         1 UNK         0.0897 
    128 H128      -48.1367  -20.6861   11.9619 H         1 UNK         0.0792 
    129 H129      -47.5468  -20.5290   13.6087 H         1 UNK         0.0792 
    130 H130      -46.8186  -21.7098   12.5277 H         1 UNK         0.0792 
    131 H131      -48.5055  -23.1458   11.3617 H         1 UNK         0.3086 
    132 H132      -50.7052  -26.0076   11.4073 H         1 UNK         0.0583 
    133 H133      -51.8181  -24.0577   10.1904 H         1 UNK         0.1020 
    134 H134      -50.2969  -23.7316    9.4025 H         1 UNK         0.1020 
    135 H135      -53.3246  -25.8907    9.8282 H         1 UNK         0.0694 
    136 H136      -53.5645  -25.1503    8.2596 H         1 UNK         0.0694 
    137 H137      -48.5027  -25.4434    9.7248 H         1 UNK         0.2989 
    138 H138      -45.9608  -26.9477   11.7590 H         1 UNK         0.1055 
    139 H139      -47.0415  -28.7473   10.4234 H         1 UNK         0.0806 
    140 H140      -45.6329  -28.1171    9.5872 H         1 UNK         0.0806 
    141 H141      -47.2518  -27.6566    9.0657 H         1 UNK         0.0806 
    142 H142      -45.9769  -25.5016    9.2535 H         1 UNK         0.3061 
    143 H143      -45.1692  -22.3231   10.6521 H         1 UNK         0.0734 
    144 H144      -43.1766  -22.5826    9.1991 H         1 UNK         0.0832 
    145 H145      -43.0015  -23.5629   10.6443 H         1 UNK         0.0832 
    146 H146      -43.4239  -24.3276    9.1192 H         1 UNK         0.0832 
    147 H147      -45.3576  -23.2513    7.9537 H         1 UNK         0.3156 
    148 H148      -48.8463  -22.6289    7.5274 H         1 UNK         0.0589 
    149 H149      -46.3390  -21.2469    6.4296 H         1 UNK         0.0808 
    150 H150      -47.9526  -21.2068    5.7182 H         1 UNK         0.0808 
    151 H151      -47.6567  -20.4401    7.2684 H         1 UNK         0.0808 
    152 H152      -47.0730  -23.5544    5.6049 H         1 UNK         0.3098 
    153 H153      -47.4113  -25.6627    4.8117 H         1 UNK         0.0720 
    154 H154      -45.6795  -27.4258    5.2648 H         1 UNK         0.0791 
    155 H155      -45.8326  -27.1624    6.9989 H         1 UNK         0.0791 
    156 H156      -45.1684  -25.9015    5.9669 H         1 UNK         0.0791 
    157 H157      -48.9020  -27.0747    6.7936 H         1 UNK         0.3028 
@<TRIPOS>BOND
     1    1    2 1    
     2    1   82 1    
     3    1   83 1    
     4    1   84 1    
     5    2    3 2    
     6    2    4 am   BACKBONE|DICT|INTERRES
     7    4    5 1    
     8    4   85 1    
     9    5    6 1    
    10    5   80 1    
    11    5   86 1    
    12    6    7 1    
    13    6   87 1    
    14    6   88 1    
    15    7    8 1    
    16    8    9 1    
    17    8   89 1    
    18    8   90 1    
    19    9   10 ar   
    20    9   14 ar   
    21   10   11 ar   
    22   10   91 1    
    23   11   12 ar   
    24   11   58 1    
    25   12   13 ar   
    26   12   92 1    
    27   13   14 ar   
    28   13   15 1    
    29   14   93 1    
    30   15   16 1    
    31   15   94 1    
    32   15   95 1    
    33   16   17 1    
    34   17   18 1    
    35   17   96 1    
    36   17   97 1    
    37   18   19 1    
    38   18   22 1    
    39   18   98 1    
    40   19   20 am   BACKBONE|DICT|INTERRES
    41   19   21 2    
    42   20   99 1    
    43   20  100 1    
    44   22   23 am   BACKBONE|DICT|INTERRES
    45   22  101 1    
    46   23   24 2    
    47   23   25 1    
    48   25   26 1    
    49   25   27 1    
    50   25  102 1    
    51   26  103 1    
    52   26  104 1    
    53   26  105 1    
    54   27   28 am   BACKBONE|DICT|INTERRES
    55   27  106 1    
    56   28   29 2    
    57   28   30 1    
    58   30   31 1    
    59   30   32 1    
    60   30  107 1    
    61   31  108 1    
    62   31  109 1    
    63   31  110 1    
    64   32   33 am   BACKBONE|DICT|INTERRES
    65   32  111 1    
    66   33   34 2    
    67   33   35 1    
    68   35   36 1    
    69   35   37 1    
    70   35  112 1    
    71   36  113 1    
    72   36  114 1    
    73   36  115 1    
    74   37   38 am   BACKBONE|DICT|INTERRES
    75   37  116 1    
    76   38   39 2    
    77   38   40 1    
    78   40   41 1    
    79   40   42 1    
    80   40  117 1    
    81   41  118 1    
    82   41  119 1    
    83   41  120 1    
    84   42   43 am   BACKBONE|DICT|INTERRES
    85   42  121 1    
    86   43   44 2    
    87   43   45 1    
    88   45   46 1    
    89   45   47 1    
    90   45  122 1    
    91   46  123 1    
    92   46  124 1    
    93   46  125 1    
    94   47   48 am   BACKBONE|DICT|INTERRES
    95   47  126 1    
    96   48   49 2    
    97   48   50 1    
    98   50   51 1    
    99   50   52 1    
   100   50  127 1    
   101   51  128 1    
   102   51  129 1    
   103   51  130 1    
   104   52   53 am   BACKBONE|DICT|INTERRES
   105   52  131 1    
   106   53   54 2    
   107   53   55 1    
   108   55   56 1    
   109   55   59 1    
   110   55  132 1    
   111   56   57 1    
   112   56  133 1    
   113   56  134 1    
   114   57   58 1    
   115   58  135 1    
   116   58  136 1    
   117   59   60 am   BACKBONE|DICT|INTERRES
   118   59  137 1    
   119   60   61 2    
   120   60   62 1    
   121   62   63 1    
   122   62   64 1    
   123   62  138 1    
   124   63  139 1    
   125   63  140 1    
   126   63  141 1    
   127   64   65 am   BACKBONE|DICT|INTERRES
   128   64  142 1    
   129   65   66 2    
   130   65   67 1    
   131   67   68 1    
   132   67   69 1    
   133   67  143 1    
   134   68  144 1    
   135   68  145 1    
   136   68  146 1    
   137   69   70 am   BACKBONE|DICT|INTERRES
   138   69  147 1    
   139   70   71 2    
   140   70   72 1    
   141   72   73 1    
   142   72   74 1    
   143   72  148 1    
   144   73  149 1    
   145   73  150 1    
   146   73  151 1    
   147   74   75 am   BACKBONE|DICT|INTERRES
   148   74  152 1    
   149   75   76 2    
   150   75   77 1    
   151   77   78 1    
   152   77   79 1    
   153   77  153 1    
   154   78  154 1    
   155   78  155 1    
   156   78  156 1    
   157   79   80 am   BACKBONE|DICT|INTERRES
   158   79  157 1    
   159   80   81 2    
@<TRIPOS>SUBSTRUCTURE
     1 UNK         1 GROUP             0       ****    0 ROOT    
