@<TRIPOS>MOLECULE
3R207
157   159    1
SMALL
USER_CHARGES


@<TRIPOS>ATOM
      1 CA        -45.2668  -29.4081    8.6161 C.3       0 UNK        -0.1975 
      2 C         -45.7512  -28.6588    7.3846 C.2       0 UNK         0.4852 
      3 O         -44.9541  -27.9906    6.7242 O.2       0 UNK        -0.5216 
      4 N         -47.0536  -28.7496    7.0798 N.am      1 UNK        -0.4461 
      5 CA        -47.7179  -28.0835    5.9530 C.3       1 UNK         0.0864 
      6 C6        -49.2254  -28.4138    5.8951 C.3       14 UNK        -0.0898 
      7 S7        -49.5602  -30.1636    5.4986 S.3       14 UNK        -0.2598 
      8 C8        -50.4126  -30.7557    7.0059 C.3       14 UNK         0.0286 
      9 C9        -51.7811  -30.1371    7.3138 C.ar      14 UNK        -0.0844 
     10 C10       -52.3550  -29.1136    6.5466 C.ar      14 UNK        -0.0881 
     11 C11       -53.5610  -28.5209    6.9260 C.ar      14 UNK        -0.0643 
     12 C12       -54.2396  -29.0013    8.0494 C.ar      14 UNK        -0.0930 
     13 C13       -53.7053  -30.0501    8.8025 C.ar      14 UNK        -0.0827 
     14 C14       -52.4746  -30.6029    8.4361 C.ar      14 UNK        -0.1249 
     15 C15       -54.4561  -30.5850   10.0121 C.3       14 UNK         0.0141 
     16 S16       -53.9326  -29.7489   11.5384 S.3       14 UNK        -0.2313 
     17 C17       -55.0792  -30.4915   12.7458 C.3       14 UNK        -0.0915 
     18 CA        -56.2913  -29.5746   13.0514 C.3       13 UNK         0.0968 
     19 C         -57.2902  -30.2900   14.0000 C.2       13 UNK         0.5732 
     20 N         -58.3758  -30.8349   13.4679 N.am      13 UNK        -0.7310 
     21 O         -57.0624  -30.3972   15.2033 O.2       13 UNK        -0.5035 
     22 N         -55.8556  -28.2747   13.5779 N.am      13 UNK        -0.4233 
     23 C         -56.6388  -27.2012   13.7388 C.2       13 UNK         0.4989 
     24 O         -57.8293  -27.1680   13.4216 O.2       13 UNK        -0.4996 
     25 CA        -55.9590  -25.9452   14.3236 C.3       12 UNK         0.0216 
     26 CB        -56.9670  -24.8914   14.8303 C.3       12 UNK        -0.1964 
     27 N         -54.9588  -26.2508   15.3570 N.am      12 UNK        -0.4276 
     28 C         -55.1625  -26.8688   16.5314 C.2       12 UNK         0.5020 
     29 O         -56.2582  -27.2691   16.9252 O.2       12 UNK        -0.5489 
     30 CA        -53.9249  -27.0853   17.4203 C.3       11 UNK         0.0294 
     31 CB        -53.3782  -28.5093   17.2284 C.3       11 UNK        -0.2019 
     32 N         -52.8506  -26.1141   17.1791 N.am      11 UNK        -0.4493 
     33 C         -52.9070  -24.8216   17.5438 C.2       11 UNK         0.4932 
     34 O         -53.8834  -24.3240   18.1063 O.2       11 UNK        -0.5029 
     35 CA        -51.6920  -23.9279   17.2130 C.3       10 UNK         0.0280 
     36 CB        -51.5225  -22.7550   18.2027 C.3       10 UNK        -0.1976 
     37 N         -50.4389  -24.6735   17.0509 N.am      10 UNK        -0.4242 
     38 C         -49.7932  -25.3990   17.9804 C.2       10 UNK         0.5072 
     39 O         -50.1321  -25.4481   19.1641 O.2       10 UNK        -0.5224 
     40 CA        -48.5746  -26.2271   17.5090 C.3       9 UNK         0.0343 
     41 CB        -48.4027  -27.5267   18.3247 C.3       9 UNK        -0.2003 
     42 N         -48.5659  -26.5266   16.0688 N.am      9 UNK        -0.4272 
     43 C         -49.5188  -27.1656   15.3746 C.2       9 UNK         0.4988 
     44 O         -50.5534  -27.6192   15.8690 O.2       9 UNK        -0.5108 
     45 CA        -49.3106  -27.2486   13.8543 C.3       8 UNK         0.0248 
     46 CB        -49.0715  -28.7048   13.4221 C.3       8 UNK        -0.2001 
     47 N         -50.4572  -26.7086   13.1189 N.am      8 UNK        -0.4140 
     48 C         -51.0071  -25.4979   13.2832 C.2       8 UNK         0.5028 
     49 O         -50.5674  -24.6455   14.0592 O.2       8 UNK        -0.5428 
     50 CA        -52.2803  -25.2110   12.4618 C.3       7 UNK         0.0264 
     51 CB        -52.9652  -23.8961   12.8807 C.3       7 UNK        -0.1988 
     52 N         -52.0392  -25.1713   11.0180 N.am      7 UNK        -0.4454 
     53 C         -51.7794  -26.2185   10.2246 C.2       7 UNK         0.5027 
     54 O         -51.6409  -27.3666   10.6446 O.2       7 UNK        -0.5083 
     55 CA        -51.6544  -25.9483    8.7107 C.3       6 UNK         0.0844 
     56 C56       -53.0323  -25.5942    8.0835 C.3       14 UNK        -0.0967 
     57 S57       -53.0455  -25.8623    6.2788 S.3       14 UNK        -0.2604 
     58 C58       -54.1090  -27.3411    6.1333 C.3       14 UNK         0.0134 
     59 N         -50.5761  -24.9981    8.4010 N.am      6 UNK        -0.4116 
     60 C         -50.5152  -23.6913    8.7041 C.2       5 UNK         0.5034 
     61 O         -51.4418  -23.0564    9.2127 O.2       5 UNK        -0.5045 
     62 CA        -49.1567  -23.0094    8.4534 C.3       5 UNK         0.0224 
     63 CB        -49.0638  -21.5864    9.0435 C.3       5 UNK        -0.1978 
     64 N         -48.0528  -23.8555    8.9219 N.am      5 UNK        -0.4737 
     65 C         -47.8231  -24.2908   10.1709 C.2       4 UNK         0.5027 
     66 O         -48.4254  -23.8935   11.1666 O.2       4 UNK        -0.5211 
     67 CA        -46.7736  -25.4037   10.3290 C.3       4 UNK         0.0297 
     68 CB        -47.4715  -26.7732   10.3876 C.3       4 UNK        -0.1993 
     69 N         -45.7990  -25.4118    9.2367 N.am      4 UNK        -0.4486 
     70 C         -44.7170  -24.6237    9.1756 C.2       3 UNK         0.4961 
     71 O         -44.3664  -23.8656   10.0799 O.2       3 UNK        -0.5105 
     72 CA        -43.8934  -24.6811    7.8773 C.3       3 UNK         0.0299 
     73 CB        -42.7618  -25.7142    7.9992 C.3       3 UNK        -0.1972 
     74 N         -44.7225  -24.9847    6.7055 N.am      3 UNK        -0.4305 
     75 C         -45.5419  -24.0937    6.1233 C.2       2 UNK         0.5006 
     76 O         -45.6321  -22.9188    6.4788 O.2       2 UNK        -0.5106 
     77 CA        -46.4349  -24.5838    4.9684 C.3       2 UNK         0.0296 
     78 CB        -45.7649  -24.2995    3.6145 C.3       2 UNK        -0.2002 
     79 N         -46.7859  -26.0036    5.0471 N.am      2 UNK        -0.4032 
     80 C         -47.5235  -26.5572    6.0187 C.2       1 UNK         0.5000 
     81 O         -48.0145  -25.9259    6.9584 O.2       1 UNK        -0.5238 
     82 H82       -44.5334  -30.1615    8.3302 H         1 UNK         0.0889 
     83 H83       -46.0829  -29.9077    9.1378 H         1 UNK         0.0889 
     84 H84       -44.7916  -28.7172    9.3119 H         1 UNK         0.0889 
     85 H85       -47.6560  -29.3155    7.6583 H         1 UNK         0.3028 
     86 H86       -47.2516  -28.4519    5.0368 H         1 UNK         0.0864 
     87 H87       -49.7163  -27.8158    5.1242 H         1 UNK         0.0720 
     88 H88       -49.7061  -28.1453    6.8377 H         1 UNK         0.0720 
     89 H89       -49.7551  -30.5964    7.8616 H         1 UNK         0.0814 
     90 H90       -50.5364  -31.8357    6.9135 H         1 UNK         0.0814 
     91 H91       -51.8609  -28.7336    5.6660 H         1 UNK         0.1469 
     92 H92       -55.1786  -28.5539    8.3452 H         1 UNK         0.1381 
     93 H93       -52.0504  -31.3966    9.0363 H         1 UNK         0.1206 
     94 H94       -54.2880  -31.6586   10.1105 H         1 UNK         0.0813 
     95 H95       -55.5305  -30.4516    9.8756 H         1 UNK         0.0813 
     96 H96       -55.4131  -31.4605   12.3699 H         1 UNK         0.0638 
     97 H97       -54.5182  -30.6994   13.6590 H         1 UNK         0.0638 
     98 H98       -56.8053  -29.3786   12.1081 H         1 UNK         0.0568 
     99 H99       -58.5675  -30.7617   12.4810 H         1 UNK         0.3450 
    100 H100      -59.0245  -31.3184   14.0690 H         1 UNK         0.3450 
    101 H101      -54.8948  -28.2253   13.8775 H         1 UNK         0.2987 
    102 H102      -55.4139  -25.4954   13.4935 H         1 UNK         0.0766 
    103 H103      -57.6010  -25.2866   15.6246 H         1 UNK         0.0798 
    104 H104      -56.4572  -24.0087   15.2165 H         1 UNK         0.0798 
    105 H105      -57.6241  -24.5584   14.0259 H         1 UNK         0.0798 
    106 H106      -54.0119  -25.9636   15.1593 H         1 UNK         0.3198 
    107 H107      -54.2462  -26.9824   18.4592 H         1 UNK         0.0843 
    108 H108      -54.1420  -29.2544   17.4560 H         1 UNK         0.0831 
    109 H109      -52.5305  -28.7018   17.8865 H         1 UNK         0.0831 
    110 H110      -53.0508  -28.6829   16.2026 H         1 UNK         0.0831 
    111 H111      -52.0039  -26.4724   16.7458 H         1 UNK         0.3133 
    112 H112      -51.9038  -23.4950   16.2346 H         1 UNK         0.0566 
    113 H113      -50.6616  -22.1386   17.9442 H         1 UNK         0.0814 
    114 H114      -52.3980  -22.1048   18.1923 H         1 UNK         0.0814 
    115 H115      -51.3916  -23.1031   19.2276 H         1 UNK         0.0814 
    116 H116      -50.1041  -24.7180   16.0926 H         1 UNK         0.3091 
    117 H117      -47.7002  -25.6019   17.6948 H         1 UNK         0.0702 
    118 H118      -47.5322  -28.0921   17.9922 H         1 UNK         0.0785 
    119 H119      -49.2760  -28.1745   18.2401 H         1 UNK         0.0785 
    120 H120      -48.2597  -27.3110   19.3843 H         1 UNK         0.0785 
    121 H121      -47.7726  -26.1622   15.5588 H         1 UNK         0.2998 
    122 H122      -48.4377  -26.6536   13.5794 H         1 UNK         0.0697 
    123 H123      -49.9238  -29.3403   13.6675 H         1 UNK         0.0825 
    124 H124      -48.1981  -29.1228   13.9244 H         1 UNK         0.0825 
    125 H125      -48.8972  -28.7840   12.3492 H         1 UNK         0.0825 
    126 H126      -50.8740  -27.3082   12.4118 H         1 UNK         0.3029 
    127 H127      -52.9774  -26.0276   12.6615 H         1 UNK         0.0897 
    128 H128      -53.9029  -23.7467   12.3451 H         1 UNK         0.0792 
    129 H129      -53.1971  -23.8923   13.9463 H         1 UNK         0.0792 
    130 H130      -52.3278  -23.0329   12.6838 H         1 UNK         0.0792 
    131 H131      -52.0381  -24.2534   10.5801 H         1 UNK         0.3086 
    132 H132      -51.3310  -26.8956    8.2764 H         1 UNK         0.0583 
    133 H133      -53.8288  -26.1922    8.5300 H         1 UNK         0.1020 
    134 H134      -53.3097  -24.5590    8.2838 H         1 UNK         0.1020 
    135 H135      -55.1189  -27.0878    6.4599 H         1 UNK         0.0694 
    136 H136      -54.1873  -27.6196    5.0815 H         1 UNK         0.0694 
    137 H137      -49.7465  -25.4105    7.9866 H         1 UNK         0.2989 
    138 H138      -49.0492  -22.9283    7.3704 H         1 UNK         0.1055 
    139 H139      -48.0892  -21.1399    8.8463 H         1 UNK         0.0806 
    140 H140      -49.2244  -21.5801   10.1219 H         1 UNK         0.0806 
    141 H141      -49.8162  -20.9324    8.6010 H         1 UNK         0.0806 
    142 H142      -47.5417  -24.3232    8.1828 H         1 UNK         0.3061 
    143 H143      -46.2559  -25.2404   11.2768 H         1 UNK         0.0734 
    144 H144      -48.2560  -26.7748   11.1435 H         1 UNK         0.0832 
    145 H145      -47.9451  -27.0319    9.4404 H         1 UNK         0.0832 
    146 H146      -46.7706  -27.5667   10.6453 H         1 UNK         0.0832 
    147 H147      -46.0196  -25.9828    8.4336 H         1 UNK         0.3156 
    148 H148      -43.4351  -23.7005    7.7304 H         1 UNK         0.0589 
    149 H149      -43.1431  -26.7166    8.1948 H         1 UNK         0.0808 
    150 H150      -42.1605  -25.7548    7.0909 H         1 UNK         0.0808 
    151 H151      -42.0908  -25.4584    8.8203 H         1 UNK         0.0808 
    152 H152      -44.7189  -25.9472    6.3815 H         1 UNK         0.3098 
    153 H153      -47.3648  -24.0128    5.0143 H         1 UNK         0.0720 
    154 H154      -46.4233  -24.5542    2.7837 H         1 UNK         0.0791 
    155 H155      -44.8383  -24.8628    3.4954 H         1 UNK         0.0791 
    156 H156      -45.5177  -23.2414    3.5158 H         1 UNK         0.0791 
    157 H157      -46.3997  -26.6021    4.3309 H         1 UNK         0.3028 
@<TRIPOS>BOND
     1    1    2 1    
     2    1   82 1    
     3    1   83 1    
     4    1   84 1    
     5    2    3 2    
     6    2    4 am   BACKBONE|DICT|INTERRES
     7    4    5 1    
     8    4   85 1    
     9    5    6 1    
    10    5   80 1    
    11    5   86 1    
    12    6    7 1    
    13    6   87 1    
    14    6   88 1    
    15    7    8 1    
    16    8    9 1    
    17    8   89 1    
    18    8   90 1    
    19    9   10 ar   
    20    9   14 ar   
    21   10   11 ar   
    22   10   91 1    
    23   11   12 ar   
    24   11   58 1    
    25   12   13 ar   
    26   12   92 1    
    27   13   14 ar   
    28   13   15 1    
    29   14   93 1    
    30   15   16 1    
    31   15   94 1    
    32   15   95 1    
    33   16   17 1    
    34   17   18 1    
    35   17   96 1    
    36   17   97 1    
    37   18   19 1    
    38   18   22 1    
    39   18   98 1    
    40   19   20 am   BACKBONE|DICT|INTERRES
    41   19   21 2    
    42   20   99 1    
    43   20  100 1    
    44   22   23 am   BACKBONE|DICT|INTERRES
    45   22  101 1    
    46   23   24 2    
    47   23   25 1    
    48   25   26 1    
    49   25   27 1    
    50   25  102 1    
    51   26  103 1    
    52   26  104 1    
    53   26  105 1    
    54   27   28 am   BACKBONE|DICT|INTERRES
    55   27  106 1    
    56   28   29 2    
    57   28   30 1    
    58   30   31 1    
    59   30   32 1    
    60   30  107 1    
    61   31  108 1    
    62   31  109 1    
    63   31  110 1    
    64   32   33 am   BACKBONE|DICT|INTERRES
    65   32  111 1    
    66   33   34 2    
    67   33   35 1    
    68   35   36 1    
    69   35   37 1    
    70   35  112 1    
    71   36  113 1    
    72   36  114 1    
    73   36  115 1    
    74   37   38 am   BACKBONE|DICT|INTERRES
    75   37  116 1    
    76   38   39 2    
    77   38   40 1    
    78   40   41 1    
    79   40   42 1    
    80   40  117 1    
    81   41  118 1    
    82   41  119 1    
    83   41  120 1    
    84   42   43 am   BACKBONE|DICT|INTERRES
    85   42  121 1    
    86   43   44 2    
    87   43   45 1    
    88   45   46 1    
    89   45   47 1    
    90   45  122 1    
    91   46  123 1    
    92   46  124 1    
    93   46  125 1    
    94   47   48 am   BACKBONE|DICT|INTERRES
    95   47  126 1    
    96   48   49 2    
    97   48   50 1    
    98   50   51 1    
    99   50   52 1    
   100   50  127 1    
   101   51  128 1    
   102   51  129 1    
   103   51  130 1    
   104   52   53 am   BACKBONE|DICT|INTERRES
   105   52  131 1    
   106   53   54 2    
   107   53   55 1    
   108   55   56 1    
   109   55   59 1    
   110   55  132 1    
   111   56   57 1    
   112   56  133 1    
   113   56  134 1    
   114   57   58 1    
   115   58  135 1    
   116   58  136 1    
   117   59   60 am   BACKBONE|DICT|INTERRES
   118   59  137 1    
   119   60   61 2    
   120   60   62 1    
   121   62   63 1    
   122   62   64 1    
   123   62  138 1    
   124   63  139 1    
   125   63  140 1    
   126   63  141 1    
   127   64   65 am   BACKBONE|DICT|INTERRES
   128   64  142 1    
   129   65   66 2    
   130   65   67 1    
   131   67   68 1    
   132   67   69 1    
   133   67  143 1    
   134   68  144 1    
   135   68  145 1    
   136   68  146 1    
   137   69   70 am   BACKBONE|DICT|INTERRES
   138   69  147 1    
   139   70   71 2    
   140   70   72 1    
   141   72   73 1    
   142   72   74 1    
   143   72  148 1    
   144   73  149 1    
   145   73  150 1    
   146   73  151 1    
   147   74   75 am   BACKBONE|DICT|INTERRES
   148   74  152 1    
   149   75   76 2    
   150   75   77 1    
   151   77   78 1    
   152   77   79 1    
   153   77  153 1    
   154   78  154 1    
   155   78  155 1    
   156   78  156 1    
   157   79   80 am   BACKBONE|DICT|INTERRES
   158   79  157 1    
   159   80   81 2    
@<TRIPOS>SUBSTRUCTURE
     1 UNK         1 GROUP             0       ****    0 ROOT    
