@<TRIPOS>MOLECULE
3R207
157   159    1
SMALL
USER_CHARGES


@<TRIPOS>ATOM
      1 CA        -51.0011  -25.5588    3.3993 C.3       0 UNK        -0.1975 
      2 C         -50.2079  -25.9291    4.6429 C.2       0 UNK         0.4852 
      3 O         -49.0242  -25.6026    4.7310 O.2       0 UNK        -0.5216 
      4 N         -50.8586  -26.5788    5.6206 N.am      1 UNK        -0.4461 
      5 CA        -50.2690  -27.1292    6.8576 C.3       1 UNK         0.0864 
      6 C6        -49.3691  -28.3699    6.5948 C.3       14 UNK        -0.0898 
      7 S7        -50.2758  -29.6622    5.6646 S.3       14 UNK        -0.2598 
      8 C8        -50.4246  -31.0491    6.8435 C.3       14 UNK         0.0286 
      9 C9        -50.9463  -30.6385    8.2157 C.ar      14 UNK        -0.0844 
     10 C10       -50.1951  -30.9400    9.3543 C.ar      14 UNK        -0.0881 
     11 C11       -50.6180  -30.5230   10.6196 C.ar      14 UNK        -0.0643 
     12 C12       -51.8242  -29.8282   10.7425 C.ar      14 UNK        -0.0930 
     13 C13       -52.6064  -29.5514    9.6178 C.ar      14 UNK        -0.0827 
     14 C14       -52.1636  -29.9633    8.3563 C.ar      14 UNK        -0.1249 
     15 C15       -53.9112  -28.7794    9.7564 C.3       14 UNK         0.0141 
     16 S16       -55.3453  -29.8801    9.9536 S.3       14 UNK        -0.2313 
     17 C17       -55.3363  -30.2435   11.7439 C.3       14 UNK        -0.0915 
     18 CA        -56.4029  -29.4112   12.5095 C.3       13 UNK         0.0968 
     19 C         -56.7261  -29.9930   13.9178 C.2       13 UNK         0.5732 
     20 N         -56.8575  -29.1854   14.9630 N.am      13 UNK        -0.7310 
     21 O         -56.8816  -31.2026   14.0668 O.2       13 UNK        -0.5035 
     22 N         -56.0446  -27.9835   12.5380 N.am      13 UNK        -0.4233 
     23 C         -56.9028  -26.9721   12.3709 C.2       13 UNK         0.4989 
     24 O         -58.1027  -27.1178   12.1299 O.2       13 UNK        -0.4996 
     25 CA        -56.3005  -25.5601   12.5007 C.3       12 UNK         0.0216 
     26 CB        -57.3639  -24.4428   12.4340 C.3       12 UNK        -0.1964 
     27 N         -55.4562  -25.3971   13.6925 N.am      12 UNK        -0.4276 
     28 C         -55.8155  -25.5331   14.9772 C.2       12 UNK         0.5020 
     29 O         -56.9204  -25.9315   15.3504 O.2       12 UNK        -0.5489 
     30 CA        -54.7268  -25.1727   16.0033 C.3       11 UNK         0.0294 
     31 CB        -55.2636  -25.0103   17.4420 C.3       11 UNK        -0.2019 
     32 N         -53.6082  -26.1171   15.9364 N.am      11 UNK        -0.4493 
     33 C         -53.6028  -27.4134   16.2803 C.2       11 UNK         0.4932 
     34 O         -54.5453  -27.9949   16.8154 O.2       11 UNK        -0.5029 
     35 CA        -52.3328  -28.2180   15.9545 C.3       10 UNK         0.0280 
     36 CB        -52.5500  -29.0328   14.6691 C.3       10 UNK        -0.1976 
     37 N         -51.1290  -27.3936   15.8079 N.am      10 UNK        -0.4242 
     38 C         -50.4823  -26.7960   16.8193 C.2       10 UNK         0.5072 
     39 O         -50.8166  -26.8936   18.0008 O.2       10 UNK        -0.5224 
     40 CA        -49.2627  -25.9317   16.4504 C.3       9 UNK         0.0343 
     41 CB        -48.0293  -26.8096   16.1823 C.3       9 UNK        -0.2003 
     42 N         -49.5046  -25.0615   15.2968 N.am      9 UNK        -0.4272 
     43 C         -50.3792  -24.0439   15.2775 C.2       9 UNK         0.4988 
     44 O         -51.0538  -23.6969   16.2466 O.2       9 UNK        -0.5108 
     45 CA        -50.5630  -23.3138   13.9369 C.3       8 UNK         0.0248 
     46 CB        -49.4250  -22.3107   13.6848 C.3       8 UNK        -0.2001 
     47 N         -50.6614  -24.2552   12.8208 N.am      8 UNK        -0.4140 
     48 C         -51.7152  -25.0563   12.6105 C.2       8 UNK         0.5028 
     49 O         -52.7492  -25.0178   13.2763 O.2       8 UNK        -0.5428 
     50 CA        -51.5941  -26.1050   11.4946 C.3       7 UNK         0.0264 
     51 CB        -52.2067  -25.5759   10.1913 C.3       7 UNK        -0.1988 
     52 N         -50.2179  -26.5634   11.2725 N.am      7 UNK        -0.4454 
     53 C         -49.5281  -27.2801   12.1737 C.2       7 UNK         0.5027 
     54 O         -49.9852  -27.6165   13.2650 O.2       7 UNK        -0.5083 
     55 CA        -48.0700  -27.6206   11.8266 C.3       6 UNK         0.0844 
     56 C56       -47.9681  -28.8129   10.8473 C.3       14 UNK        -0.0967 
     57 S57       -47.9968  -30.4435   11.6695 S.3       14 UNK        -0.2604 
     58 C58       -49.7780  -30.8085   11.8603 C.3       14 UNK         0.0134 
     59 N         -47.3685  -26.4513   11.3055 N.am      6 UNK        -0.4116 
     60 C         -47.0453  -25.3562   12.0036 C.2       5 UNK         0.5034 
     61 O         -47.4001  -25.1691   13.1682 O.2       5 UNK        -0.5045 
     62 CA        -46.2213  -24.2743   11.2744 C.3       5 UNK         0.0224 
     63 CB        -45.0743  -23.7341   12.1526 C.3       5 UNK        -0.1978 
     64 N         -45.7348  -24.6840    9.9451 N.am      5 UNK        -0.4737 
     65 C         -44.8562  -25.6557    9.6406 C.2       4 UNK         0.5027 
     66 O         -44.2321  -26.2974   10.4847 O.2       4 UNK        -0.5211 
     67 CA        -44.6950  -26.0340    8.1540 C.3       4 UNK         0.0297 
     68 CB        -45.0205  -27.5231    7.9371 C.3       4 UNK        -0.1993 
     69 N         -45.5669  -25.2485    7.2800 N.am      4 UNK        -0.4486 
     70 C         -45.2338  -24.0952    6.6869 C.2       3 UNK         0.4961 
     71 O         -44.1088  -23.5974    6.7293 O.2       3 UNK        -0.5105 
     72 CA        -46.3654  -23.3530    5.9530 C.3       3 UNK         0.0299 
     73 CB        -46.3591  -23.7069    4.4578 C.3       3 UNK        -0.1972 
     74 N         -47.6929  -23.6220    6.5240 N.am      3 UNK        -0.4305 
     75 C         -48.0744  -23.2219    7.7492 C.2       2 UNK         0.5006 
     76 O         -47.3442  -22.5849    8.5073 O.2       2 UNK        -0.5106 
     77 CA        -49.4745  -23.6144    8.2499 C.3       2 UNK         0.0296 
     78 CB        -50.4494  -22.4380    8.0808 C.3       2 UNK        -0.2002 
     79 N         -50.0249  -24.7962    7.5886 N.am      2 UNK        -0.4032 
     80 C         -49.5865  -26.0547    7.7411 C.2       1 UNK         0.5000 
     81 O         -48.7052  -26.3651    8.5479 O.2       1 UNK        -0.5238 
     82 H82       -52.0393  -25.8832    3.4652 H         1 UNK         0.0889 
     83 H83       -50.5552  -26.0248    2.5211 H         1 UNK         0.0889 
     84 H84       -50.9901  -24.4789    3.2547 H         1 UNK         0.0889 
     85 H85       -51.8340  -26.8047    5.4814 H         1 UNK         0.3028 
     86 H86       -51.1139  -27.4725    7.4550 H         1 UNK         0.0864 
     87 H87       -48.9970  -28.7909    7.5299 H         1 UNK         0.0720 
     88 H88       -48.4864  -28.0862    6.0193 H         1 UNK         0.0720 
     89 H89       -51.0958  -31.7981    6.4215 H         1 UNK         0.0814 
     90 H90       -49.4483  -31.5289    6.9286 H         1 UNK         0.0814 
     91 H91       -49.2603  -31.4749    9.2567 H         1 UNK         0.1469 
     92 H92       -52.1503  -29.4988   11.7177 H         1 UNK         0.1381 
     93 H93       -52.7560  -29.7414    7.4790 H         1 UNK         0.1206 
     94 H94       -54.0666  -28.1657    8.8679 H         1 UNK         0.0813 
     95 H95       -53.8661  -28.0854   10.5947 H         1 UNK         0.0813 
     96 H96       -54.3440  -30.0866   12.1655 H         1 UNK         0.0638 
     97 H97       -55.5355  -31.3123   11.8381 H         1 UNK         0.0638 
     98 H98       -57.3392  -29.5235   11.9598 H         1 UNK         0.0568 
     99 H99       -57.0540  -29.5839   15.8667 H         1 UNK         0.3450 
    100 H100      -56.7666  -28.1832   14.8723 H         1 UNK         0.3450 
    101 H101      -55.0914  -27.7691   12.7845 H         1 UNK         0.2987 
    102 H102      -55.6409  -25.4334   11.6409 H         1 UNK         0.0766 
    103 H103      -56.9051  -23.4555   12.4846 H         1 UNK         0.0798 
    104 H104      -58.0840  -24.5201   13.2495 H         1 UNK         0.0798 
    105 H105      -57.9245  -24.4906   11.4995 H         1 UNK         0.0798 
    106 H106      -54.4829  -25.1403   13.5103 H         1 UNK         0.3198 
    107 H107      -54.3215  -24.2046   15.7028 H         1 UNK         0.0843 
    108 H108      -55.7401  -25.9185   17.8115 H         1 UNK         0.0831 
    109 H109      -56.0110  -24.2175   17.4859 H         1 UNK         0.0831 
    110 H110      -54.4651  -24.7440   18.1345 H         1 UNK         0.0831 
    111 H111      -52.7873  -25.7638   15.4613 H         1 UNK         0.3133 
    112 H112      -52.1668  -28.9176   16.7763 H         1 UNK         0.0566 
    113 H113      -52.6994  -28.3840   13.8063 H         1 UNK         0.0814 
    114 H114      -51.6967  -29.6783   14.4635 H         1 UNK         0.0814 
    115 H115      -53.4280  -29.6749   14.7544 H         1 UNK         0.0814 
    116 H116      -50.7340  -27.3259   14.8701 H         1 UNK         0.3091 
    117 H117      -49.0408  -25.2910   17.3064 H         1 UNK         0.0702 
    118 H118      -47.1447  -26.2013   15.9924 H         1 UNK         0.0785 
    119 H119      -48.1747  -27.4622   15.3209 H         1 UNK         0.0785 
    120 H120      -47.8086  -27.4454   17.0407 H         1 UNK         0.0785 
    121 H121      -48.9484  -25.2448   14.4677 H         1 UNK         0.2998 
    122 H122      -51.4986  -22.7522   13.9890 H         1 UNK         0.0697 
    123 H123      -48.4504  -22.7960   13.6362 H         1 UNK         0.0825 
    124 H124      -49.3773  -21.5723   14.4863 H         1 UNK         0.0825 
    125 H125      -49.5756  -21.7653   12.7530 H         1 UNK         0.0825 
    126 H126      -49.8440  -24.3699   12.2420 H         1 UNK         0.3029 
    127 H127      -52.1773  -26.9696   11.8134 H         1 UNK         0.0897 
    128 H128      -53.2567  -25.3166   10.3338 H         1 UNK         0.0792 
    129 H129      -52.1657  -26.3212    9.3984 H         1 UNK         0.0792 
    130 H130      -51.7000  -24.6766    9.8458 H         1 UNK         0.0792 
    131 H131      -49.7714  -26.3369   10.3913 H         1 UNK         0.3086 
    132 H132      -47.5666  -27.8932   12.7569 H         1 UNK         0.0583 
    133 H133      -48.7091  -28.7480   10.0500 H         1 UNK         0.1020 
    134 H134      -47.0073  -28.7765   10.3314 H         1 UNK         0.1020 
    135 H135      -49.8913  -31.8608   12.1232 H         1 UNK         0.0694 
    136 H136      -50.1501  -30.2422   12.7138 H         1 UNK         0.0694 
    137 H137      -47.1093  -26.4818   10.3298 H         1 UNK         0.2989 
    138 H138      -46.9121  -23.4480   11.0993 H         1 UNK         0.1055 
    139 H139      -45.4612  -23.2926   13.0720 H         1 UNK         0.0806 
    140 H140      -44.5104  -22.9581   11.6351 H         1 UNK         0.0806 
    141 H141      -44.3772  -24.5205   12.4426 H         1 UNK         0.0806 
    142 H142      -46.1598  -24.1799    9.1747 H         1 UNK         0.3061 
    143 H143      -43.6499  -25.8669    7.8850 H         1 UNK         0.0734 
    144 H144      -44.8591  -27.8154    6.8993 H         1 UNK         0.0832 
    145 H145      -44.3835  -28.1610    8.5515 H         1 UNK         0.0832 
    146 H146      -46.0561  -27.7530    8.1909 H         1 UNK         0.0832 
    147 H147      -46.5198  -25.5728    7.1861 H         1 UNK         0.3156 
    148 H148      -46.1731  -22.2820    6.0473 H         1 UNK         0.0589 
    149 H149      -46.5067  -24.7751    4.2944 H         1 UNK         0.0808 
    150 H150      -47.1422  -23.1739    3.9184 H         1 UNK         0.0808 
    151 H151      -45.4072  -23.4373    3.9983 H         1 UNK         0.0808 
    152 H152      -48.3221  -24.1841    5.9569 H         1 UNK         0.3098 
    153 H153      -49.3862  -23.8342    9.3159 H         1 UNK         0.0720 
    154 H154      -51.4315  -22.6666    8.4943 H         1 UNK         0.0791 
    155 H155      -50.5817  -22.1708    7.0315 H         1 UNK         0.0791 
    156 H156      -50.0825  -21.5503    8.5983 H         1 UNK         0.0791 
    157 H157      -50.7531  -24.6349    6.9076 H         1 UNK         0.3028 
@<TRIPOS>BOND
     1    1    2 1    
     2    1   82 1    
     3    1   83 1    
     4    1   84 1    
     5    2    3 2    
     6    2    4 am   BACKBONE|DICT|INTERRES
     7    4    5 1    
     8    4   85 1    
     9    5    6 1    
    10    5   80 1    
    11    5   86 1    
    12    6    7 1    
    13    6   87 1    
    14    6   88 1    
    15    7    8 1    
    16    8    9 1    
    17    8   89 1    
    18    8   90 1    
    19    9   10 ar   
    20    9   14 ar   
    21   10   11 ar   
    22   10   91 1    
    23   11   12 ar   
    24   11   58 1    
    25   12   13 ar   
    26   12   92 1    
    27   13   14 ar   
    28   13   15 1    
    29   14   93 1    
    30   15   16 1    
    31   15   94 1    
    32   15   95 1    
    33   16   17 1    
    34   17   18 1    
    35   17   96 1    
    36   17   97 1    
    37   18   19 1    
    38   18   22 1    
    39   18   98 1    
    40   19   20 am   BACKBONE|DICT|INTERRES
    41   19   21 2    
    42   20   99 1    
    43   20  100 1    
    44   22   23 am   BACKBONE|DICT|INTERRES
    45   22  101 1    
    46   23   24 2    
    47   23   25 1    
    48   25   26 1    
    49   25   27 1    
    50   25  102 1    
    51   26  103 1    
    52   26  104 1    
    53   26  105 1    
    54   27   28 am   BACKBONE|DICT|INTERRES
    55   27  106 1    
    56   28   29 2    
    57   28   30 1    
    58   30   31 1    
    59   30   32 1    
    60   30  107 1    
    61   31  108 1    
    62   31  109 1    
    63   31  110 1    
    64   32   33 am   BACKBONE|DICT|INTERRES
    65   32  111 1    
    66   33   34 2    
    67   33   35 1    
    68   35   36 1    
    69   35   37 1    
    70   35  112 1    
    71   36  113 1    
    72   36  114 1    
    73   36  115 1    
    74   37   38 am   BACKBONE|DICT|INTERRES
    75   37  116 1    
    76   38   39 2    
    77   38   40 1    
    78   40   41 1    
    79   40   42 1    
    80   40  117 1    
    81   41  118 1    
    82   41  119 1    
    83   41  120 1    
    84   42   43 am   BACKBONE|DICT|INTERRES
    85   42  121 1    
    86   43   44 2    
    87   43   45 1    
    88   45   46 1    
    89   45   47 1    
    90   45  122 1    
    91   46  123 1    
    92   46  124 1    
    93   46  125 1    
    94   47   48 am   BACKBONE|DICT|INTERRES
    95   47  126 1    
    96   48   49 2    
    97   48   50 1    
    98   50   51 1    
    99   50   52 1    
   100   50  127 1    
   101   51  128 1    
   102   51  129 1    
   103   51  130 1    
   104   52   53 am   BACKBONE|DICT|INTERRES
   105   52  131 1    
   106   53   54 2    
   107   53   55 1    
   108   55   56 1    
   109   55   59 1    
   110   55  132 1    
   111   56   57 1    
   112   56  133 1    
   113   56  134 1    
   114   57   58 1    
   115   58  135 1    
   116   58  136 1    
   117   59   60 am   BACKBONE|DICT|INTERRES
   118   59  137 1    
   119   60   61 2    
   120   60   62 1    
   121   62   63 1    
   122   62   64 1    
   123   62  138 1    
   124   63  139 1    
   125   63  140 1    
   126   63  141 1    
   127   64   65 am   BACKBONE|DICT|INTERRES
   128   64  142 1    
   129   65   66 2    
   130   65   67 1    
   131   67   68 1    
   132   67   69 1    
   133   67  143 1    
   134   68  144 1    
   135   68  145 1    
   136   68  146 1    
   137   69   70 am   BACKBONE|DICT|INTERRES
   138   69  147 1    
   139   70   71 2    
   140   70   72 1    
   141   72   73 1    
   142   72   74 1    
   143   72  148 1    
   144   73  149 1    
   145   73  150 1    
   146   73  151 1    
   147   74   75 am   BACKBONE|DICT|INTERRES
   148   74  152 1    
   149   75   76 2    
   150   75   77 1    
   151   77   78 1    
   152   77   79 1    
   153   77  153 1    
   154   78  154 1    
   155   78  155 1    
   156   78  156 1    
   157   79   80 am   BACKBONE|DICT|INTERRES
   158   79  157 1    
   159   80   81 2    
@<TRIPOS>SUBSTRUCTURE
     1 UNK         1 GROUP             0       ****    0 ROOT    
