@<TRIPOS>MOLECULE
3R207
157   159    1
SMALL
USER_CHARGES


@<TRIPOS>ATOM
      1 CA        -44.7687  -28.7833    7.3115 C.3       0 UNK        -0.1975 
      2 C         -46.1760  -28.3808    6.8999 C.2       0 UNK         0.4852 
      3 O         -46.7523  -27.4783    7.5053 O.2       0 UNK        -0.5216 
      4 N         -46.7308  -29.0312    5.8666 N.am      1 UNK        -0.4461 
      5 CA        -48.0918  -28.8239    5.3420 C.3       1 UNK         0.0864 
      6 C6        -49.1908  -29.2908    6.3471 C.3       14 UNK        -0.0898 
      7 S7        -50.4280  -30.3791    5.5686 S.3       14 UNK        -0.2598 
      8 C8        -51.8689  -29.2768    5.3821 C.3       14 UNK         0.0286 
      9 C9        -52.5696  -28.9462    6.6966 C.ar      14 UNK        -0.0844 
     10 C10       -52.8929  -27.6190    7.0042 C.ar      14 UNK        -0.0881 
     11 C11       -53.6280  -27.3134    8.1553 C.ar      14 UNK        -0.0643 
     12 C12       -54.0300  -28.3477    9.0028 C.ar      14 UNK        -0.0930 
     13 C13       -53.6819  -29.6719    8.7307 C.ar      14 UNK        -0.0827 
     14 C14       -52.9614  -29.9667    7.5705 C.ar      14 UNK        -0.1249 
     15 C15       -54.1206  -30.7844    9.6705 C.3       14 UNK         0.0141 
     16 S16       -52.8766  -31.1480   10.9551 S.3       14 UNK        -0.2313 
     17 C17       -52.9781  -29.6866   12.0463 C.3       14 UNK        -0.0915 
     18 CA        -54.2632  -29.6616   12.9256 C.3       13 UNK         0.0968 
     19 C         -54.1396  -30.4374   14.2693 C.2       13 UNK         0.5732 
     20 N         -54.8270  -30.0285   15.3304 N.am      13 UNK        -0.7310 
     21 O         -53.4216  -31.4295   14.3605 O.2       13 UNK        -0.5035 
     22 N         -54.7532  -28.2873   13.1112 N.am      13 UNK        -0.4233 
     23 C         -55.8432  -27.7704   12.5333 C.2       13 UNK         0.4989 
     24 O         -56.5133  -28.3653   11.6871 O.2       13 UNK        -0.4996 
     25 CA        -56.2641  -26.3519   12.9795 C.3       12 UNK         0.0216 
     26 CB        -57.7545  -26.0704   12.6958 C.3       12 UNK        -0.1964 
     27 N         -55.9584  -26.0170   14.3799 N.am      12 UNK        -0.4276 
     28 C         -56.2666  -26.7098   15.4866 C.2       12 UNK         0.5020 
     29 O         -56.7715  -27.8340   15.4695 O.2       12 UNK        -0.5489 
     30 CA        -55.9225  -26.0462   16.8369 C.3       11 UNK         0.0294 
     31 CB        -56.1499  -26.9899   18.0328 C.3       11 UNK        -0.2019 
     32 N         -54.5449  -25.5511   16.8901 N.am      11 UNK        -0.4493 
     33 C         -54.0810  -24.4305   16.3261 C.2       11 UNK         0.4932 
     34 O         -54.7834  -23.6713   15.6581 O.2       11 UNK        -0.5029 
     35 CA        -52.5838  -24.1251   16.4915 C.3       10 UNK         0.0280 
     36 CB        -52.2753  -23.5280   17.8777 C.3       10 UNK        -0.1976 
     37 N         -51.7113  -25.2627   16.1762 N.am      10 UNK        -0.4242 
     38 C         -51.5492  -26.4217   16.8311 C.2       10 UNK         0.5072 
     39 O         -52.1583  -26.7255   17.8581 O.2       10 UNK        -0.5224 
     40 CA        -50.5620  -27.4290   16.2188 C.3       9 UNK         0.0343 
     41 CB        -51.2890  -28.3377   15.2181 C.3       9 UNK        -0.2003 
     42 N         -49.4250  -26.7838   15.5583 N.am      9 UNK        -0.4272 
     43 C         -48.4420  -26.1458   16.2112 C.2       9 UNK         0.4988 
     44 O         -48.3490  -26.1021   17.4387 O.2       9 UNK        -0.5108 
     45 CA        -47.3909  -25.4208   15.3549 C.3       8 UNK         0.0248 
     46 CB        -46.3466  -26.4147   14.8226 C.3       8 UNK        -0.2001 
     47 N         -47.9805  -24.6671   14.2444 N.am      8 UNK        -0.4140 
     48 C         -48.7929  -23.6091   14.3912 C.2       8 UNK         0.5028 
     49 O         -49.0938  -23.1200   15.4802 O.2       8 UNK        -0.5428 
     50 CA        -49.3915  -22.9994   13.1129 C.3       7 UNK         0.0264 
     51 CB        -48.3979  -22.0291   12.4541 C.3       7 UNK        -0.1988 
     52 N         -49.8102  -24.0036   12.1348 N.am      7 UNK        -0.4454 
     53 C         -50.7803  -24.9107   12.3210 C.2       7 UNK         0.5027 
     54 O         -51.4501  -24.9994   13.3499 O.2       7 UNK        -0.5083 
     55 CA        -50.9877  -25.9296   11.1826 C.3       6 UNK         0.0844 
     56 C56       -51.7051  -25.2993    9.9606 C.3       14 UNK        -0.0967 
     57 S57       -53.5186  -25.3313   10.1299 S.3       14 UNK        -0.2604 
     58 C58       -54.0292  -25.8751    8.4641 C.3       14 UNK         0.0134 
     59 N         -49.7176  -26.5476   10.8029 N.am      6 UNK        -0.4116 
     60 C         -48.9540  -27.3063   11.6002 C.2       5 UNK         0.5034 
     61 O         -49.2538  -27.6249   12.7503 O.2       5 UNK        -0.5045 
     62 CA        -47.6012  -27.7469   11.0223 C.3       5 UNK         0.0224 
     63 CB        -47.7585  -29.0602   10.2408 C.3       5 UNK        -0.1978 
     64 N         -46.9974  -26.7228   10.1625 N.am      5 UNK        -0.4737 
     65 C         -46.5512  -25.5384   10.6019 C.2       4 UNK         0.5027 
     66 O         -46.5819  -25.1958   11.7831 O.2       4 UNK        -0.5211 
     67 CA        -46.0284  -24.5515    9.5452 C.3       4 UNK         0.0297 
     68 CB        -44.6344  -24.9670    9.0496 C.3       4 UNK        -0.1993 
     69 N         -46.9260  -24.3695    8.3995 N.am      4 UNK        -0.4486 
     70 C         -48.2019  -23.9696    8.4613 C.2       3 UNK         0.4961 
     71 O         -48.7963  -23.7767    9.5209 O.2       3 UNK        -0.5105 
     72 CA        -48.9736  -23.7368    7.1475 C.3       3 UNK         0.0299 
     73 CB        -49.0778  -22.2299    6.8454 C.3       3 UNK        -0.1972 
     74 N         -48.5052  -24.4773    5.9670 N.am      3 UNK        -0.4305 
     75 C         -47.3494  -24.3850    5.2956 C.2       2 UNK         0.5006 
     76 O         -46.4094  -23.6691    5.6439 O.2       2 UNK        -0.5106 
     77 CA        -47.2189  -25.2829    4.0466 C.3       2 UNK         0.0296 
     78 CB        -45.9363  -24.9959    3.2432 C.3       2 UNK        -0.2002 
     79 N         -47.2457  -26.7031    4.4032 N.am      2 UNK        -0.4032 
     80 C         -48.3268  -27.3887    4.8048 C.2       1 UNK         0.5000 
     81 O         -49.4610  -26.9041    4.7914 O.2       1 UNK        -0.5238 
     82 H82       -44.0671  -27.9830    7.0783 H         1 UNK         0.0889 
     83 H83       -44.4380  -29.6875    6.8009 H         1 UNK         0.0889 
     84 H84       -44.7304  -28.9677    8.3846 H         1 UNK         0.0889 
     85 H85       -46.2000  -29.7568    5.4035 H         1 UNK         0.3028 
     86 H86       -48.1375  -29.4599    4.4566 H         1 UNK         0.0864 
     87 H87       -48.7443  -29.8848    7.1456 H         1 UNK         0.0720 
     88 H88       -49.6765  -28.4578    6.8595 H         1 UNK         0.0720 
     89 H89       -52.5911  -29.7685    4.7293 H         1 UNK         0.0814 
     90 H90       -51.5648  -28.3699    4.8600 H         1 UNK         0.0814 
     91 H91       -52.5985  -26.8261    6.3299 H         1 UNK         0.1469 
     92 H92       -54.6115  -28.1166    9.8831 H         1 UNK         0.1381 
     93 H93       -52.7173  -30.9947    7.3393 H         1 UNK         0.1206 
     94 H94       -54.3000  -31.6951    9.0972 H         1 UNK         0.0813 
     95 H95       -55.0762  -30.5323   10.1316 H         1 UNK         0.0813 
     96 H96       -52.9164  -28.7985   11.4190 H         1 UNK         0.0638 
     97 H97       -52.0792  -29.6533   12.6638 H         1 UNK         0.0638 
     98 H98       -55.0379  -30.2227   12.4032 H         1 UNK         0.0568 
     99 H99       -54.7427  -30.5457   16.1904 H         1 UNK         0.3450 
    100 H100      -55.4921  -29.2628   15.2691 H         1 UNK         0.3450 
    101 H101      -54.2793  -27.7434   13.8165 H         1 UNK         0.2987 
    102 H102      -55.6773  -25.6638   12.3695 H         1 UNK         0.0766 
    103 H103      -58.0267  -25.0525   12.9747 H         1 UNK         0.0798 
    104 H104      -58.4025  -26.7538   13.2461 H         1 UNK         0.0798 
    105 H105      -57.9840  -26.1837   11.6354 H         1 UNK         0.0798 
    106 H106      -55.5245  -25.1098   14.5316 H         1 UNK         0.3198 
    107 H107      -56.5996  -25.1970   16.9514 H         1 UNK         0.0843 
    108 H108      -55.5067  -27.8693   17.9793 H         1 UNK         0.0831 
    109 H109      -57.1823  -27.3409   18.0657 H         1 UNK         0.0831 
    110 H110      -55.9519  -26.4866   18.9793 H         1 UNK         0.0831 
    111 H111      -53.8666  -26.1241   17.3884 H         1 UNK         0.3133 
    112 H112      -52.3358  -23.3642   15.7496 H         1 UNK         0.0566 
    113 H113      -51.2224  -23.2580   17.9629 H         1 UNK         0.0814 
    114 H114      -52.8577  -22.6216   18.0475 H         1 UNK         0.0814 
    115 H115      -52.5108  -24.2196   18.6870 H         1 UNK         0.0814 
    116 H116      -51.2479  -25.1792   15.2751 H         1 UNK         0.3091 
    117 H117      -50.1779  -28.0527   17.0287 H         1 UNK         0.0702 
    118 H118      -50.6234  -29.1051   14.8222 H         1 UNK         0.0785 
    119 H119      -51.6870  -27.7723   14.3743 H         1 UNK         0.0785 
    120 H120      -52.1225  -28.8488   15.7002 H         1 UNK         0.0785 
    121 H121      -49.3956  -26.8361   14.5436 H         1 UNK         0.2998 
    122 H122      -46.8762  -24.7051   15.9994 H         1 UNK         0.0697 
    123 H123      -46.7942  -27.1505   14.1546 H         1 UNK         0.0825 
    124 H124      -45.8751  -26.9609   15.6406 H         1 UNK         0.0825 
    125 H125      -45.5543  -25.9034   14.2756 H         1 UNK         0.0825 
    126 H126      -47.7102  -24.9498   13.3050 H         1 UNK         0.3029 
    127 H127      -50.2797  -22.4343   13.4038 H         1 UNK         0.0897 
    128 H128      -48.8445  -21.5284   11.5947 H         1 UNK         0.0792 
    129 H129      -48.0837  -21.2547   13.1551 H         1 UNK         0.0792 
    130 H130      -47.5001  -22.5437   12.1091 H         1 UNK         0.0792 
    131 H131      -49.3272  -23.9901   11.2366 H         1 UNK         0.3086 
    132 H132      -51.6099  -26.7368   11.5747 H         1 UNK         0.0583 
    133 H133      -51.3867  -24.2713    9.7779 H         1 UNK         0.1020 
    134 H134      -51.4395  -25.8471    9.0555 H         1 UNK         0.1020 
    135 H135      -55.1143  -25.7930    8.3887 H         1 UNK         0.0694 
    136 H136      -53.6166  -25.1863    7.7252 H         1 UNK         0.0694 
    137 H137      -49.3436  -26.2982    9.8997 H         1 UNK         0.2989 
    138 H138      -46.9252  -27.9260   11.8606 H         1 UNK         0.1055 
    139 H139      -48.1958  -29.8384   10.8681 H         1 UNK         0.0806 
    140 H140      -46.7959  -29.4311    9.8898 H         1 UNK         0.0806 
    141 H141      -48.4085  -28.9367    9.3741 H         1 UNK         0.0806 
    142 H142      -46.9331  -26.9296    9.1640 H         1 UNK         0.3061 
    143 H143      -45.9352  -23.5789   10.0328 H         1 UNK         0.0734 
    144 H144      -44.2074  -24.2124    8.3888 H         1 UNK         0.0832 
    145 H145      -43.9445  -25.0937    9.8851 H         1 UNK         0.0832 
    146 H146      -44.6641  -25.9105    8.5047 H         1 UNK         0.0832 
    147 H147      -46.5176  -24.4547    7.4753 H         1 UNK         0.3156 
    148 H148      -49.9856  -24.1022    7.3283 H         1 UNK         0.0589 
    149 H149      -48.1004  -21.7842    6.6577 H         1 UNK         0.0808 
    150 H150      -49.7060  -22.0418    5.9747 H         1 UNK         0.0808 
    151 H151      -49.5212  -21.6936    7.6857 H         1 UNK         0.0808 
    152 H152      -49.1508  -25.1833    5.6199 H         1 UNK         0.3098 
    153 H153      -48.0721  -25.0680    3.3996 H         1 UNK         0.0720 
    154 H154      -45.8952  -25.5958    2.3339 H         1 UNK         0.0791 
    155 H155      -45.0377  -25.2055    3.8251 H         1 UNK         0.0791 
    156 H156      -45.8920  -23.9488    2.9405 H         1 UNK         0.0791 
    157 H157      -46.3503  -27.1635    4.4738 H         1 UNK         0.3028 
@<TRIPOS>BOND
     1    1    2 1    
     2    1   82 1    
     3    1   83 1    
     4    1   84 1    
     5    2    3 2    
     6    2    4 am   BACKBONE|DICT|INTERRES
     7    4    5 1    
     8    4   85 1    
     9    5    6 1    
    10    5   80 1    
    11    5   86 1    
    12    6    7 1    
    13    6   87 1    
    14    6   88 1    
    15    7    8 1    
    16    8    9 1    
    17    8   89 1    
    18    8   90 1    
    19    9   10 ar   
    20    9   14 ar   
    21   10   11 ar   
    22   10   91 1    
    23   11   12 ar   
    24   11   58 1    
    25   12   13 ar   
    26   12   92 1    
    27   13   14 ar   
    28   13   15 1    
    29   14   93 1    
    30   15   16 1    
    31   15   94 1    
    32   15   95 1    
    33   16   17 1    
    34   17   18 1    
    35   17   96 1    
    36   17   97 1    
    37   18   19 1    
    38   18   22 1    
    39   18   98 1    
    40   19   20 am   BACKBONE|DICT|INTERRES
    41   19   21 2    
    42   20   99 1    
    43   20  100 1    
    44   22   23 am   BACKBONE|DICT|INTERRES
    45   22  101 1    
    46   23   24 2    
    47   23   25 1    
    48   25   26 1    
    49   25   27 1    
    50   25  102 1    
    51   26  103 1    
    52   26  104 1    
    53   26  105 1    
    54   27   28 am   BACKBONE|DICT|INTERRES
    55   27  106 1    
    56   28   29 2    
    57   28   30 1    
    58   30   31 1    
    59   30   32 1    
    60   30  107 1    
    61   31  108 1    
    62   31  109 1    
    63   31  110 1    
    64   32   33 am   BACKBONE|DICT|INTERRES
    65   32  111 1    
    66   33   34 2    
    67   33   35 1    
    68   35   36 1    
    69   35   37 1    
    70   35  112 1    
    71   36  113 1    
    72   36  114 1    
    73   36  115 1    
    74   37   38 am   BACKBONE|DICT|INTERRES
    75   37  116 1    
    76   38   39 2    
    77   38   40 1    
    78   40   41 1    
    79   40   42 1    
    80   40  117 1    
    81   41  118 1    
    82   41  119 1    
    83   41  120 1    
    84   42   43 am   BACKBONE|DICT|INTERRES
    85   42  121 1    
    86   43   44 2    
    87   43   45 1    
    88   45   46 1    
    89   45   47 1    
    90   45  122 1    
    91   46  123 1    
    92   46  124 1    
    93   46  125 1    
    94   47   48 am   BACKBONE|DICT|INTERRES
    95   47  126 1    
    96   48   49 2    
    97   48   50 1    
    98   50   51 1    
    99   50   52 1    
   100   50  127 1    
   101   51  128 1    
   102   51  129 1    
   103   51  130 1    
   104   52   53 am   BACKBONE|DICT|INTERRES
   105   52  131 1    
   106   53   54 2    
   107   53   55 1    
   108   55   56 1    
   109   55   59 1    
   110   55  132 1    
   111   56   57 1    
   112   56  133 1    
   113   56  134 1    
   114   57   58 1    
   115   58  135 1    
   116   58  136 1    
   117   59   60 am   BACKBONE|DICT|INTERRES
   118   59  137 1    
   119   60   61 2    
   120   60   62 1    
   121   62   63 1    
   122   62   64 1    
   123   62  138 1    
   124   63  139 1    
   125   63  140 1    
   126   63  141 1    
   127   64   65 am   BACKBONE|DICT|INTERRES
   128   64  142 1    
   129   65   66 2    
   130   65   67 1    
   131   67   68 1    
   132   67   69 1    
   133   67  143 1    
   134   68  144 1    
   135   68  145 1    
   136   68  146 1    
   137   69   70 am   BACKBONE|DICT|INTERRES
   138   69  147 1    
   139   70   71 2    
   140   70   72 1    
   141   72   73 1    
   142   72   74 1    
   143   72  148 1    
   144   73  149 1    
   145   73  150 1    
   146   73  151 1    
   147   74   75 am   BACKBONE|DICT|INTERRES
   148   74  152 1    
   149   75   76 2    
   150   75   77 1    
   151   77   78 1    
   152   77   79 1    
   153   77  153 1    
   154   78  154 1    
   155   78  155 1    
   156   78  156 1    
   157   79   80 am   BACKBONE|DICT|INTERRES
   158   79  157 1    
   159   80   81 2    
@<TRIPOS>SUBSTRUCTURE
     1 UNK         1 GROUP             0       ****    0 ROOT    
