@<TRIPOS>MOLECULE
3R207
157   159    1
SMALL
USER_CHARGES


@<TRIPOS>ATOM
      1 CA        -44.4587  -27.7858    5.4734 C.3       0 UNK        -0.1975 
      2 C         -45.9275  -28.1826    5.4716 C.2       0 UNK         0.4852 
      3 O         -46.6146  -27.9808    4.4698 O.2       0 UNK        -0.5216 
      4 N         -46.4124  -28.7500    6.5845 N.am      1 UNK        -0.4461 
      5 CA        -47.8118  -29.1280    6.7963 C.3       1 UNK         0.0864 
      6 C6        -47.9452  -30.0884    8.0034 C.3       14 UNK        -0.0898 
      7 S7        -49.5964  -30.8611    8.1213 S.3       14 UNK        -0.2598 
      8 C8        -50.1483  -30.3352    9.7765 C.3       14 UNK         0.0286 
      9 C9        -51.5360  -29.7176    9.7299 C.ar      14 UNK        -0.0844 
     10 C10       -51.6851  -28.3714    9.3883 C.ar      14 UNK        -0.0881 
     11 C11       -52.9460  -27.7700    9.3989 C.ar      14 UNK        -0.0643 
     12 C12       -54.0639  -28.5309    9.7508 C.ar      14 UNK        -0.0930 
     13 C13       -53.9337  -29.8873   10.0672 C.ar      14 UNK        -0.0827 
     14 C14       -52.6647  -30.4755   10.0570 C.ar      14 UNK        -0.1249 
     15 C15       -55.1562  -30.6985   10.4730 C.3       14 UNK         0.0141 
     16 S16       -56.4732  -30.6446    9.2133 S.3       14 UNK        -0.2313 
     17 C17       -57.9174  -31.1846   10.1909 C.3       14 UNK        -0.0915 
     18 CA        -58.9541  -30.0446   10.4392 C.3       13 UNK         0.0968 
     19 C         -60.2538  -30.5616   11.1304 C.2       13 UNK         0.5732 
     20 N         -60.9093  -29.7785   11.9791 N.am      13 UNK        -0.7310 
     21 O         -60.6995  -31.6772   10.8699 O.2       13 UNK        -0.5035 
     22 N         -58.3691  -28.8334   11.0506 N.am      13 UNK        -0.4233 
     23 C         -57.7746  -28.7681   12.2477 C.2       13 UNK         0.4989 
     24 O         -57.6620  -29.7208   13.0236 O.2       13 UNK        -0.4996 
     25 CA        -57.1911  -27.4110   12.6517 C.3       12 UNK         0.0216 
     26 CB        -58.1845  -26.6109   13.5140 C.3       12 UNK        -0.1964 
     27 N         -55.9637  -27.6769   13.3931 N.am      12 UNK        -0.4276 
     28 C         -54.9456  -26.8303   13.5684 C.2       12 UNK         0.5020 
     29 O         -54.9536  -25.6533   13.1996 O.2       12 UNK        -0.5489 
     30 CA        -53.6972  -27.4324   14.2319 C.3       11 UNK         0.0294 
     31 CB        -52.8393  -28.1802   13.1985 C.3       11 UNK        -0.2019 
     32 N         -52.8669  -26.4191   14.8767 N.am      11 UNK        -0.4493 
     33 C         -53.0893  -25.9060   16.0925 C.2       11 UNK         0.4932 
     34 O         -54.0728  -26.1757   16.7853 O.2       11 UNK        -0.5029 
     35 CA        -51.9771  -24.9858   16.6349 C.3       10 UNK         0.0280 
     36 CB        -52.1710  -24.5883   18.1133 C.3       10 UNK        -0.1976 
     37 N         -50.6499  -25.5736   16.4091 N.am      10 UNK        -0.4242 
     38 C         -50.1864  -26.7491   16.8650 C.2       10 UNK         0.5072 
     39 O         -50.7662  -27.4472   17.6981 O.2       10 UNK        -0.5224 
     40 CA        -48.8680  -27.2656   16.2597 C.3       9 UNK         0.0343 
     41 CB        -49.1640  -28.3320   15.1923 C.3       9 UNK        -0.2003 
     42 N         -48.0478  -26.2092   15.6624 N.am      9 UNK        -0.4272 
     43 C         -47.3235  -25.3309   16.3707 C.2       9 UNK         0.4988 
     44 O         -47.2185  -25.3599   17.5975 O.2       9 UNK        -0.5108 
     45 CA        -46.6130  -24.2185   15.5820 C.3       8 UNK         0.0248 
     46 CB        -45.3012  -24.7389   14.9736 C.3       8 UNK        -0.2001 
     47 N         -47.4507  -23.6337   14.5310 N.am      8 UNK        -0.4140 
     48 C         -48.5937  -22.9656   14.7472 C.2       8 UNK         0.5028 
     49 O         -49.0642  -22.7501   15.8638 O.2       8 UNK        -0.5428 
     50 CA        -49.3621  -22.4787   13.5095 C.3       7 UNK         0.0264 
     51 CB        -48.7640  -21.1689   12.9710 C.3       7 UNK        -0.1988 
     52 N         -49.4028  -23.4764   12.4407 N.am      7 UNK        -0.4454 
     53 C         -50.0611  -24.6436   12.5062 C.2       7 UNK         0.5027 
     54 O         -50.7043  -25.0217   13.4868 O.2       7 UNK        -0.5083 
     55 CA        -49.9374  -25.5576   11.2710 C.3       6 UNK         0.0844 
     56 C56       -50.7973  -25.0306   10.0924 C.3       14 UNK        -0.0967 
     57 S57       -52.5959  -25.1918   10.3677 S.3       14 UNK        -0.2604 
     58 C58       -53.1099  -26.3052    9.0237 C.3       14 UNK         0.0134 
     59 N         -48.5325  -25.7176   10.8820 N.am      6 UNK        -0.4116 
     60 C         -47.5719  -26.2612   11.6462 C.2       5 UNK         0.5034 
     61 O         -47.7715  -26.7494   12.7577 O.2       5 UNK        -0.5045 
     62 CA        -46.1282  -26.2001   11.1127 C.3       5 UNK         0.0224 
     63 CB        -45.8069  -27.4374   10.2607 C.3       5 UNK        -0.1978 
     64 N         -45.8387  -24.9871   10.3425 N.am      5 UNK        -0.4737 
     65 C         -45.9103  -23.7371   10.8230 C.2       4 UNK         0.5027 
     66 O         -46.1706  -23.4728   11.9957 O.2       4 UNK        -0.5211 
     67 CA        -45.7141  -22.5856    9.8188 C.3       4 UNK         0.0297 
     68 CB        -44.2538  -22.1083    9.8353 C.3       4 UNK        -0.1993 
     69 N         -46.1087  -22.9094    8.4403 N.am      4 UNK        -0.4486 
     70 C         -47.3280  -23.3204    8.0632 C.2       3 UNK         0.4961 
     71 O         -48.2588  -23.4831    8.8556 O.2       3 UNK        -0.5105 
     72 CA        -47.5434  -23.6462    6.5763 C.3       3 UNK         0.0299 
     73 CB        -46.2476  -23.9919    5.8116 C.3       3 UNK        -0.1972 
     74 N         -48.4697  -24.7688    6.5063 N.am      3 UNK        -0.4305 
     75 C         -49.3503  -25.0387    5.5417 C.2       2 UNK         0.5006 
     76 O         -49.4766  -24.3661    4.5167 O.2       2 UNK        -0.5106 
     77 CA        -50.2249  -26.2889    5.7751 C.3       2 UNK         0.0296 
     78 CB        -51.2900  -26.4876    4.6810 C.3       2 UNK        -0.2002 
     79 N         -49.4222  -27.5103    5.8890 N.am      2 UNK        -0.4032 
     80 C         -48.6698  -27.8549    6.9434 C.2       1 UNK         0.5000 
     81 O         -48.5957  -27.1830    7.9768 O.2       1 UNK        -0.5238 
     82 H82       -43.9977  -27.9302    6.4504 H         1 UNK         0.0889 
     83 H83       -44.3529  -26.7360    5.2012 H         1 UNK         0.0889 
     84 H84       -43.9091  -28.3825    4.7459 H         1 UNK         0.0889 
     85 H85       -45.7993  -28.8863    7.3749 H         1 UNK         0.3028 
     86 H86       -48.1436  -29.6698    5.9075 H         1 UNK         0.0864 
     87 H87       -47.2278  -30.9040    7.8990 H         1 UNK         0.0720 
     88 H88       -47.6777  -29.5839    8.9325 H         1 UNK         0.0720 
     89 H89       -50.1385  -31.1995   10.4423 H         1 UNK         0.0814 
     90 H90       -49.4586  -29.6132   10.2153 H         1 UNK         0.0814 
     91 H91       -50.8128  -27.7924    9.1270 H         1 UNK         0.1469 
     92 H92       -55.0416  -28.0695    9.7740 H         1 UNK         0.1381 
     93 H93       -52.5512  -31.5181   10.3210 H         1 UNK         0.1206 
     94 H94       -55.5238  -30.3066   11.4198 H         1 UNK         0.0813 
     95 H95       -54.8909  -31.7410   10.6552 H         1 UNK         0.0813 
     96 H96       -57.5866  -31.6212   11.1344 H         1 UNK         0.0638 
     97 H97       -58.3821  -32.0009    9.6355 H         1 UNK         0.0638 
     98 H98       -59.2958  -29.7186    9.4563 H         1 UNK         0.0568 
     99 H99       -60.5667  -28.8569   12.1954 H         1 UNK         0.3450 
    100 H100      -61.7542  -30.1186   12.4106 H         1 UNK         0.3450 
    101 H101      -58.4328  -27.9958   10.4903 H         1 UNK         0.2987 
    102 H102      -56.9447  -26.8445   11.7508 H         1 UNK         0.0766 
    103 H103      -57.7717  -25.6440   13.8024 H         1 UNK         0.0798 
    104 H104      -58.4473  -27.1471   14.4270 H         1 UNK         0.0798 
    105 H105      -59.1091  -26.4171   12.9690 H         1 UNK         0.0798 
    106 H106      -55.8861  -28.6354   13.7129 H         1 UNK         0.3198 
    107 H107      -54.0199  -28.1470   14.9927 H         1 UNK         0.0843 
    108 H108      -52.4969  -27.5169   12.4035 H         1 UNK         0.0831 
    109 H109      -53.4044  -28.9853   12.7293 H         1 UNK         0.0831 
    110 H110      -51.9623  -28.6335   13.6593 H         1 UNK         0.0831 
    111 H111      -52.0791  -26.0599   14.3426 H         1 UNK         0.3133 
    112 H112      -52.0116  -24.0728   16.0385 H         1 UNK         0.0566 
    113 H113      -51.3687  -23.9340   18.4543 H         1 UNK         0.0814 
    114 H114      -53.1097  -24.0503   18.2507 H         1 UNK         0.0814 
    115 H115      -52.1974  -25.4583   18.7700 H         1 UNK         0.0814 
    116 H116      -50.0985  -25.1072   15.7001 H         1 UNK         0.3091 
    117 H117      -48.2982  -27.7371   17.0632 H         1 UNK         0.0702 
    118 H118      -49.7615  -29.1465   15.6039 H         1 UNK         0.0785 
    119 H119      -48.2444  -28.7684   14.8020 H         1 UNK         0.0785 
    120 H120      -49.7170  -27.9124   14.3509 H         1 UNK         0.0785 
    121 H121      -48.0364  -26.1624   14.6473 H         1 UNK         0.2998 
    122 H122      -46.3667  -23.4198   16.2848 H         1 UNK         0.0697 
    123 H123      -45.4802  -25.5448   14.2622 H         1 UNK         0.0825 
    124 H124      -44.6396  -25.1287   15.7483 H         1 UNK         0.0825 
    125 H125      -44.7616  -23.9467   14.4541 H         1 UNK         0.0825 
    126 H126      -47.1011  -23.7021   13.5765 H         1 UNK         0.3029 
    127 H127      -50.3913  -22.2809   13.8181 H         1 UNK         0.0897 
    128 H128      -49.3505  -20.7770   12.1399 H         1 UNK         0.0792 
    129 H129      -48.7487  -20.4012   13.7459 H         1 UNK         0.0792 
    130 H130      -47.7383  -21.3017   12.6247 H         1 UNK         0.0792 
    131 H131      -48.8681  -23.2729   11.6074 H         1 UNK         0.3086 
    132 H132      -50.3026  -26.5486   11.5488 H         1 UNK         0.0583 
    133 H133      -50.5859  -23.9788    9.8926 H         1 UNK         0.1020 
    134 H134      -50.5253  -25.5496    9.1740 H         1 UNK         0.1020 
    135 H135      -54.1558  -26.0959    8.7944 H         1 UNK         0.0694 
    136 H136      -52.5591  -26.0818    8.1111 H         1 UNK         0.0694 
    137 H137      -48.2641  -25.2947   10.0023 H         1 UNK         0.2989 
    138 H138      -45.4643  -26.2054   11.9790 H         1 UNK         0.1055 
    139 H139      -46.0363  -28.3563   10.8024 H         1 UNK         0.0806 
    140 H140      -44.7496  -27.4733    9.9975 H         1 UNK         0.0806 
    141 H141      -46.3834  -27.4492    9.3370 H         1 UNK         0.0806 
    142 H142      -45.6138  -25.1068    9.3661 H         1 UNK         0.3061 
    143 H143      -46.3468  -21.7604   10.1522 H         1 UNK         0.0734 
    144 H144      -44.1163  -21.2244    9.2122 H         1 UNK         0.0832 
    145 H145      -43.9434  -21.8396   10.8463 H         1 UNK         0.0832 
    146 H146      -43.5711  -22.8815    9.4804 H         1 UNK         0.0832 
    147 H147      -45.3980  -22.8062    7.7302 H         1 UNK         0.3156 
    148 H148      -48.0073  -22.7702    6.1191 H         1 UNK         0.0589 
    149 H149      -45.7049  -24.8109    6.2853 H         1 UNK         0.0808 
    150 H150      -46.4652  -24.2942    4.7868 H         1 UNK         0.0808 
    151 H151      -45.5776  -23.1339    5.7486 H         1 UNK         0.0808 
    152 H152      -48.4595  -25.3933    7.3094 H         1 UNK         0.3098 
    153 H153      -50.7474  -26.1362    6.7196 H         1 UNK         0.0720 
    154 H154      -50.8380  -26.6608    3.7035 H         1 UNK         0.0791 
    155 H155      -51.9298  -25.6083    4.5944 H         1 UNK         0.0791 
    156 H156      -51.9372  -27.3352    4.9077 H         1 UNK         0.0791 
    157 H157      -49.3572  -28.0762    5.0547 H         1 UNK         0.3028 
@<TRIPOS>BOND
     1    1    2 1    
     2    1   82 1    
     3    1   83 1    
     4    1   84 1    
     5    2    3 2    
     6    2    4 am   BACKBONE|DICT|INTERRES
     7    4    5 1    
     8    4   85 1    
     9    5    6 1    
    10    5   80 1    
    11    5   86 1    
    12    6    7 1    
    13    6   87 1    
    14    6   88 1    
    15    7    8 1    
    16    8    9 1    
    17    8   89 1    
    18    8   90 1    
    19    9   10 ar   
    20    9   14 ar   
    21   10   11 ar   
    22   10   91 1    
    23   11   12 ar   
    24   11   58 1    
    25   12   13 ar   
    26   12   92 1    
    27   13   14 ar   
    28   13   15 1    
    29   14   93 1    
    30   15   16 1    
    31   15   94 1    
    32   15   95 1    
    33   16   17 1    
    34   17   18 1    
    35   17   96 1    
    36   17   97 1    
    37   18   19 1    
    38   18   22 1    
    39   18   98 1    
    40   19   20 am   BACKBONE|DICT|INTERRES
    41   19   21 2    
    42   20   99 1    
    43   20  100 1    
    44   22   23 am   BACKBONE|DICT|INTERRES
    45   22  101 1    
    46   23   24 2    
    47   23   25 1    
    48   25   26 1    
    49   25   27 1    
    50   25  102 1    
    51   26  103 1    
    52   26  104 1    
    53   26  105 1    
    54   27   28 am   BACKBONE|DICT|INTERRES
    55   27  106 1    
    56   28   29 2    
    57   28   30 1    
    58   30   31 1    
    59   30   32 1    
    60   30  107 1    
    61   31  108 1    
    62   31  109 1    
    63   31  110 1    
    64   32   33 am   BACKBONE|DICT|INTERRES
    65   32  111 1    
    66   33   34 2    
    67   33   35 1    
    68   35   36 1    
    69   35   37 1    
    70   35  112 1    
    71   36  113 1    
    72   36  114 1    
    73   36  115 1    
    74   37   38 am   BACKBONE|DICT|INTERRES
    75   37  116 1    
    76   38   39 2    
    77   38   40 1    
    78   40   41 1    
    79   40   42 1    
    80   40  117 1    
    81   41  118 1    
    82   41  119 1    
    83   41  120 1    
    84   42   43 am   BACKBONE|DICT|INTERRES
    85   42  121 1    
    86   43   44 2    
    87   43   45 1    
    88   45   46 1    
    89   45   47 1    
    90   45  122 1    
    91   46  123 1    
    92   46  124 1    
    93   46  125 1    
    94   47   48 am   BACKBONE|DICT|INTERRES
    95   47  126 1    
    96   48   49 2    
    97   48   50 1    
    98   50   51 1    
    99   50   52 1    
   100   50  127 1    
   101   51  128 1    
   102   51  129 1    
   103   51  130 1    
   104   52   53 am   BACKBONE|DICT|INTERRES
   105   52  131 1    
   106   53   54 2    
   107   53   55 1    
   108   55   56 1    
   109   55   59 1    
   110   55  132 1    
   111   56   57 1    
   112   56  133 1    
   113   56  134 1    
   114   57   58 1    
   115   58  135 1    
   116   58  136 1    
   117   59   60 am   BACKBONE|DICT|INTERRES
   118   59  137 1    
   119   60   61 2    
   120   60   62 1    
   121   62   63 1    
   122   62   64 1    
   123   62  138 1    
   124   63  139 1    
   125   63  140 1    
   126   63  141 1    
   127   64   65 am   BACKBONE|DICT|INTERRES
   128   64  142 1    
   129   65   66 2    
   130   65   67 1    
   131   67   68 1    
   132   67   69 1    
   133   67  143 1    
   134   68  144 1    
   135   68  145 1    
   136   68  146 1    
   137   69   70 am   BACKBONE|DICT|INTERRES
   138   69  147 1    
   139   70   71 2    
   140   70   72 1    
   141   72   73 1    
   142   72   74 1    
   143   72  148 1    
   144   73  149 1    
   145   73  150 1    
   146   73  151 1    
   147   74   75 am   BACKBONE|DICT|INTERRES
   148   74  152 1    
   149   75   76 2    
   150   75   77 1    
   151   77   78 1    
   152   77   79 1    
   153   77  153 1    
   154   78  154 1    
   155   78  155 1    
   156   78  156 1    
   157   79   80 am   BACKBONE|DICT|INTERRES
   158   79  157 1    
   159   80   81 2    
@<TRIPOS>SUBSTRUCTURE
     1 UNK         1 GROUP             0       ****    0 ROOT    
