@<TRIPOS>MOLECULE
3R207
157   159    1
SMALL
USER_CHARGES


@<TRIPOS>ATOM
      1 CA        -49.3963  -28.8018    0.9723 C.3       0 UNK        -0.1975 
      2 C         -48.9766  -29.3182    2.3407 C.2       0 UNK         0.4852 
      3 O         -47.8660  -29.8302    2.4831 O.2       0 UNK        -0.5216 
      4 N         -49.8545  -29.1754    3.3450 N.am      1 UNK        -0.4461 
      5 CA        -49.6848  -29.6390    4.7325 C.3       1 UNK         0.0864 
      6 C6        -49.6404  -31.1900    4.8584 C.3       14 UNK        -0.0898 
      7 S7        -51.2971  -31.9122    4.6101 S.3       14 UNK        -0.2598 
      8 C8        -51.8035  -32.2642    6.3283 C.3       14 UNK         0.0286 
      9 C9        -51.9667  -30.9965    7.1593 C.ar      14 UNK        -0.0844 
     10 C10       -50.9193  -30.5402    7.9660 C.ar      14 UNK        -0.0881 
     11 C11       -51.0539  -29.3722    8.7222 C.ar      14 UNK        -0.0643 
     12 C12       -52.2647  -28.6730    8.6916 C.ar      14 UNK        -0.0930 
     13 C13       -53.3320  -29.1361    7.9142 C.ar      14 UNK        -0.0827 
     14 C14       -53.1712  -30.2882    7.1376 C.ar      14 UNK        -0.1249 
     15 C15       -54.6674  -28.4083    7.9305 C.3       14 UNK         0.0141 
     16 S16       -55.8745  -29.3124    8.9516 S.3       14 UNK        -0.2313 
     17 C17       -57.1674  -28.0477    9.2146 C.3       14 UNK        -0.0915 
     18 CA        -57.2200  -27.5185   10.6747 C.3       13 UNK         0.0968 
     19 C         -57.8369  -28.5558   11.6621 C.2       13 UNK         0.5732 
     20 N         -57.1311  -29.0154   12.6900 N.am      13 UNK        -0.7310 
     21 O         -58.9925  -28.9406   11.4980 O.2       13 UNK        -0.5035 
     22 N         -55.9184  -26.9767   11.0830 N.am      13 UNK        -0.4233 
     23 C         -55.7173  -26.1089   12.0780 C.2       13 UNK         0.4989 
     24 O         -56.6137  -25.5677   12.7282 O.2       13 UNK        -0.4996 
     25 CA        -54.2468  -25.8008   12.3996 C.3       12 UNK         0.0216 
     26 CB        -53.9211  -24.3296   12.0986 C.3       12 UNK        -0.1964 
     27 N         -53.8970  -26.1304   13.7860 N.am      12 UNK        -0.4276 
     28 C         -54.0026  -27.3515   14.3345 C.2       12 UNK         0.5020 
     29 O         -54.4117  -28.3342   13.7125 O.2       12 UNK        -0.5489 
     30 CA        -53.5635  -27.5285   15.8003 C.3       11 UNK         0.0294 
     31 CB        -52.6475  -28.7567   15.9566 C.3       11 UNK        -0.2019 
     32 N         -52.8502  -26.3592   16.3186 N.am      11 UNK        -0.4493 
     33 C         -53.1625  -25.6742   17.4257 C.2       11 UNK         0.4932 
     34 O         -54.1599  -25.9032   18.1121 O.2       11 UNK        -0.5029 
     35 CA        -52.1922  -24.5422   17.8277 C.3       10 UNK         0.0280 
     36 CB        -52.3800  -24.0710   19.2855 C.3       10 UNK        -0.1976 
     37 N         -50.7843  -24.8627   17.5545 N.am      10 UNK        -0.4242 
     38 C         -50.0551  -25.8672   18.0703 C.2       10 UNK         0.5072 
     39 O         -50.4696  -26.6339   18.9410 O.2       10 UNK        -0.5224 
     40 CA        -48.6296  -26.0861   17.5187 C.3       9 UNK         0.0343 
     41 CB        -48.5178  -27.4666   16.8480 C.3       9 UNK        -0.2003 
     42 N         -48.2094  -25.0650   16.5560 N.am      9 UNK        -0.4272 
     43 C         -47.6906  -23.8710   16.8742 C.2       9 UNK         0.4988 
     44 O         -47.4332  -23.5211   18.0263 O.2       9 UNK        -0.5108 
     45 CA        -47.4515  -22.8837   15.7145 C.3       8 UNK         0.0248 
     46 CB        -46.0290  -23.0397   15.1541 C.3       8 UNK        -0.2001 
     47 N         -48.4261  -23.0142   14.6246 N.am      8 UNK        -0.4140 
     48 C         -49.7470  -22.8226   14.7611 C.2       8 UNK         0.5028 
     49 O         -50.2813  -22.4614   15.8092 O.2       8 UNK        -0.5428 
     50 CA        -50.6340  -23.1714   13.5572 C.3       7 UNK         0.0264 
     51 CB        -50.6363  -22.0317   12.5272 C.3       7 UNK        -0.1988 
     52 N         -50.2446  -24.4339   12.9199 N.am      7 UNK        -0.4454 
     53 C         -50.2884  -25.6325   13.5209 C.2       7 UNK         0.5027 
     54 O         -50.7291  -25.7958   14.6564 O.2       7 UNK        -0.5083 
     55 CA        -49.7050  -26.8452   12.7724 C.3       6 UNK         0.0844 
     56 C56       -50.7732  -27.5772   11.9287 C.3       14 UNK        -0.0967 
     57 S57       -50.1480  -29.1879   11.3362 S.3       14 UNK        -0.2604 
     58 C58       -49.8844  -28.8775    9.5639 C.3       14 UNK         0.0134 
     59 N         -48.5279  -26.4649   11.9915 N.am      6 UNK        -0.4116 
     60 C         -47.3333  -26.1780   12.5239 C.2       5 UNK         0.5034 
     61 O         -47.0796  -26.2521   13.7264 O.2       5 UNK        -0.5045 
     62 CA        -46.2567  -25.6789   11.5487 C.3       5 UNK         0.0224 
     63 CB        -45.5584  -26.8604   10.8570 C.3       5 UNK        -0.1978 
     64 N         -46.8091  -24.7684   10.5408 N.am      5 UNK        -0.4737 
     65 C         -47.2539  -23.5337   10.8200 C.2       4 UNK         0.5027 
     66 O         -47.2119  -23.0364   11.9453 O.2       4 UNK        -0.5211 
     67 CA        -47.8880  -22.7295    9.6697 C.3       4 UNK         0.0297 
     68 CB        -46.8112  -21.9227    8.9281 C.3       4 UNK        -0.1993 
     69 N         -48.6313  -23.5478    8.7080 N.am      4 UNK        -0.4486 
     70 C         -49.6670  -24.3460    9.0035 C.2       3 UNK         0.4961 
     71 O         -50.1434  -24.4639   10.1310 O.2       3 UNK        -0.5105 
     72 CA        -50.2443  -25.2007    7.8636 C.3       3 UNK         0.0299 
     73 CB        -51.4170  -24.4694    7.1929 C.3       3 UNK        -0.1972 
     74 N         -49.2803  -25.6249    6.8393 N.am      3 UNK        -0.4305 
     75 C         -48.0943  -26.2225    7.0426 C.2       2 UNK         0.5006 
     76 O         -47.5948  -26.4123    8.1534 O.2       2 UNK        -0.5106 
     77 CA        -47.3772  -26.7025    5.7676 C.3       2 UNK         0.0296 
     78 CB        -45.9425  -27.2126    6.0267 C.3       2 UNK        -0.2002 
     79 N         -48.2003  -27.6980    5.0664 N.am      2 UNK        -0.4032 
     80 C         -48.5574  -28.9160    5.5097 C.2       1 UNK         0.5000 
     81 O         -48.0830  -29.4406    6.5186 O.2       1 UNK        -0.5238 
     82 H82       -48.6990  -28.0381    0.6288 H         1 UNK         0.0889 
     83 H83       -50.3955  -28.3668    0.9879 H         1 UNK         0.0889 
     84 H84       -49.3933  -29.6162    0.2483 H         1 UNK         0.0889 
     85 H85       -50.7504  -28.7497    3.1483 H         1 UNK         0.3028 
     86 H86       -50.5845  -29.3015    5.2498 H         1 UNK         0.0864 
     87 H87       -49.2692  -31.5207    5.8280 H         1 UNK         0.0720 
     88 H88       -48.9544  -31.6238    4.1303 H         1 UNK         0.0720 
     89 H89       -51.0775  -32.9343    6.7916 H         1 UNK         0.0814 
     90 H90       -52.7470  -32.8117    6.3099 H         1 UNK         0.0814 
     91 H91       -49.9869  -31.0869    7.9963 H         1 UNK         0.1469 
     92 H92       -52.3814  -27.7790    9.2865 H         1 UNK         0.1381 
     93 H93       -53.9928  -30.6445    6.5308 H         1 UNK         0.1206 
     94 H94       -54.5421  -27.3942    8.3129 H         1 UNK         0.0813 
     95 H95       -55.0521  -28.3109    6.9141 H         1 UNK         0.0813 
     96 H96       -58.1297  -28.4707    8.9205 H         1 UNK         0.0638 
     97 H97       -56.9987  -27.2145    8.5308 H         1 UNK         0.0638 
     98 H98       -57.9218  -26.6824   10.6761 H         1 UNK         0.0568 
     99 H99       -57.5566  -29.6816   13.3137 H         1 UNK         0.3450 
    100 H100      -56.1771  -28.7120   12.8578 H         1 UNK         0.3450 
    101 H101      -55.1221  -27.4130   10.6440 H         1 UNK         0.2987 
    102 H102      -53.6178  -26.4149   11.7524 H         1 UNK         0.0766 
    103 H103      -52.8470  -24.1632   12.0753 H         1 UNK         0.0798 
    104 H104      -54.3602  -23.6547   12.8342 H         1 UNK         0.0798 
    105 H105      -54.3013  -24.0351   11.1192 H         1 UNK         0.0798 
    106 H106      -53.5891  -25.3725   14.3764 H         1 UNK         0.3198 
    107 H107      -54.4751  -27.7030   16.3752 H         1 UNK         0.0843 
    108 H108      -51.7408  -28.6587   15.3579 H         1 UNK         0.0831 
    109 H109      -53.1525  -29.6702   15.6402 H         1 UNK         0.0831 
    110 H110      -52.3480  -28.8970   16.9955 H         1 UNK         0.0831 
    111 H111      -52.0036  -26.1007   15.8079 H         1 UNK         0.3133 
    112 H112      -52.4352  -23.6989   17.1801 H         1 UNK         0.0566 
    113 H113      -51.6931  -23.2612   19.5314 H         1 UNK         0.0814 
    114 H114      -53.3914  -23.6967   19.4483 H         1 UNK         0.0814 
    115 H115      -52.2152  -24.8797   19.9981 H         1 UNK         0.0814 
    116 H116      -50.3503  -24.2783   16.8485 H         1 UNK         0.3091 
    117 H117      -47.9468  -26.0690   18.3706 H         1 UNK         0.0702 
    118 H118      -47.5153  -27.6387   16.4556 H         1 UNK         0.0785 
    119 H119      -49.2230  -27.5736   16.0239 H         1 UNK         0.0785 
    120 H120      -48.7287  -28.2657   17.5599 H         1 UNK         0.0785 
    121 H121      -48.3590  -25.2796   15.5789 H         1 UNK         0.2998 
    122 H122      -47.5483  -21.8745   16.1199 H         1 UNK         0.0697 
    123 H123      -45.8742  -24.0246   14.7128 H         1 UNK         0.0825 
    124 H124      -45.2830  -22.9127   15.9398 H         1 UNK         0.0825 
    125 H125      -45.8214  -22.2942   14.3862 H         1 UNK         0.0825 
    126 H126      -48.0584  -23.2505   13.7063 H         1 UNK         0.3029 
    127 H127      -51.6527  -23.2913   13.9309 H         1 UNK         0.0897 
    128 H128      -51.2443  -22.2771   11.6563 H         1 UNK         0.0792 
    129 H129      -51.0454  -21.1190   12.9623 H         1 UNK         0.0792 
    130 H130      -49.6304  -21.7995   12.1805 H         1 UNK         0.0792 
    131 H131      -49.9633  -24.3881   11.9420 H         1 UNK         0.3086 
    132 H132      -49.3725  -27.5440   13.5435 H         1 UNK         0.0583 
    133 H133      -51.6582  -27.7848   12.5321 H         1 UNK         0.1020 
    134 H134      -51.1082  -26.9559   11.0970 H         1 UNK         0.1020 
    135 H135      -49.7023  -27.8195    9.3869 H         1 UNK         0.0694 
    136 H136      -48.9653  -29.3828    9.2627 H         1 UNK         0.0694 
    137 H137      -48.6554  -26.3417   10.9978 H         1 UNK         0.2989 
    138 H138      -45.5109  -25.1325   12.1309 H         1 UNK         0.1055 
    139 H139      -45.0996  -27.5247   11.5907 H         1 UNK         0.0806 
    140 H140      -44.7672  -26.5185   10.1897 H         1 UNK         0.0806 
    141 H141      -46.2563  -27.4580   10.2689 H         1 UNK         0.0806 
    142 H142      -46.9330  -25.1409    9.6036 H         1 UNK         0.3061 
    143 H143      -48.5953  -22.0249   10.1094 H         1 UNK         0.0734 
    144 H144      -47.2509  -21.2708    8.1730 H         1 UNK         0.0832 
    145 H145      -46.2574  -21.2856    9.6193 H         1 UNK         0.0832 
    146 H146      -46.0876  -22.5722    8.4338 H         1 UNK         0.0832 
    147 H147      -48.3077  -23.5317    7.7522 H         1 UNK         0.3156 
    148 H148      -50.6462  -26.1064    8.3161 H         1 UNK         0.0589 
    149 H149      -51.0870  -23.5728    6.6666 H         1 UNK         0.0808 
    150 H150      -52.1579  -24.1592    7.9316 H         1 UNK         0.0808 
    151 H151      -51.9299  -25.1120    6.4769 H         1 UNK         0.0808 
    152 H152      -49.5858  -25.5103    5.8838 H         1 UNK         0.3098 
    153 H153      -47.2984  -25.8392    5.1051 H         1 UNK         0.0720 
    154 H154      -45.9186  -28.0365    6.7402 H         1 UNK         0.0791 
    155 H155      -45.3193  -26.4174    6.4376 H         1 UNK         0.0791 
    156 H156      -45.4707  -27.5535    5.1052 H         1 UNK         0.0791 
    157 H157      -48.6394  -27.3793    4.2142 H         1 UNK         0.3028 
@<TRIPOS>BOND
     1    1    2 1    
     2    1   82 1    
     3    1   83 1    
     4    1   84 1    
     5    2    3 2    
     6    2    4 am   BACKBONE|DICT|INTERRES
     7    4    5 1    
     8    4   85 1    
     9    5    6 1    
    10    5   80 1    
    11    5   86 1    
    12    6    7 1    
    13    6   87 1    
    14    6   88 1    
    15    7    8 1    
    16    8    9 1    
    17    8   89 1    
    18    8   90 1    
    19    9   10 ar   
    20    9   14 ar   
    21   10   11 ar   
    22   10   91 1    
    23   11   12 ar   
    24   11   58 1    
    25   12   13 ar   
    26   12   92 1    
    27   13   14 ar   
    28   13   15 1    
    29   14   93 1    
    30   15   16 1    
    31   15   94 1    
    32   15   95 1    
    33   16   17 1    
    34   17   18 1    
    35   17   96 1    
    36   17   97 1    
    37   18   19 1    
    38   18   22 1    
    39   18   98 1    
    40   19   20 am   BACKBONE|DICT|INTERRES
    41   19   21 2    
    42   20   99 1    
    43   20  100 1    
    44   22   23 am   BACKBONE|DICT|INTERRES
    45   22  101 1    
    46   23   24 2    
    47   23   25 1    
    48   25   26 1    
    49   25   27 1    
    50   25  102 1    
    51   26  103 1    
    52   26  104 1    
    53   26  105 1    
    54   27   28 am   BACKBONE|DICT|INTERRES
    55   27  106 1    
    56   28   29 2    
    57   28   30 1    
    58   30   31 1    
    59   30   32 1    
    60   30  107 1    
    61   31  108 1    
    62   31  109 1    
    63   31  110 1    
    64   32   33 am   BACKBONE|DICT|INTERRES
    65   32  111 1    
    66   33   34 2    
    67   33   35 1    
    68   35   36 1    
    69   35   37 1    
    70   35  112 1    
    71   36  113 1    
    72   36  114 1    
    73   36  115 1    
    74   37   38 am   BACKBONE|DICT|INTERRES
    75   37  116 1    
    76   38   39 2    
    77   38   40 1    
    78   40   41 1    
    79   40   42 1    
    80   40  117 1    
    81   41  118 1    
    82   41  119 1    
    83   41  120 1    
    84   42   43 am   BACKBONE|DICT|INTERRES
    85   42  121 1    
    86   43   44 2    
    87   43   45 1    
    88   45   46 1    
    89   45   47 1    
    90   45  122 1    
    91   46  123 1    
    92   46  124 1    
    93   46  125 1    
    94   47   48 am   BACKBONE|DICT|INTERRES
    95   47  126 1    
    96   48   49 2    
    97   48   50 1    
    98   50   51 1    
    99   50   52 1    
   100   50  127 1    
   101   51  128 1    
   102   51  129 1    
   103   51  130 1    
   104   52   53 am   BACKBONE|DICT|INTERRES
   105   52  131 1    
   106   53   54 2    
   107   53   55 1    
   108   55   56 1    
   109   55   59 1    
   110   55  132 1    
   111   56   57 1    
   112   56  133 1    
   113   56  134 1    
   114   57   58 1    
   115   58  135 1    
   116   58  136 1    
   117   59   60 am   BACKBONE|DICT|INTERRES
   118   59  137 1    
   119   60   61 2    
   120   60   62 1    
   121   62   63 1    
   122   62   64 1    
   123   62  138 1    
   124   63  139 1    
   125   63  140 1    
   126   63  141 1    
   127   64   65 am   BACKBONE|DICT|INTERRES
   128   64  142 1    
   129   65   66 2    
   130   65   67 1    
   131   67   68 1    
   132   67   69 1    
   133   67  143 1    
   134   68  144 1    
   135   68  145 1    
   136   68  146 1    
   137   69   70 am   BACKBONE|DICT|INTERRES
   138   69  147 1    
   139   70   71 2    
   140   70   72 1    
   141   72   73 1    
   142   72   74 1    
   143   72  148 1    
   144   73  149 1    
   145   73  150 1    
   146   73  151 1    
   147   74   75 am   BACKBONE|DICT|INTERRES
   148   74  152 1    
   149   75   76 2    
   150   75   77 1    
   151   77   78 1    
   152   77   79 1    
   153   77  153 1    
   154   78  154 1    
   155   78  155 1    
   156   78  156 1    
   157   79   80 am   BACKBONE|DICT|INTERRES
   158   79  157 1    
   159   80   81 2    
@<TRIPOS>SUBSTRUCTURE
     1 UNK         1 GROUP             0       ****    0 ROOT    
