@<TRIPOS>MOLECULE
3R207
157   159    1
SMALL
USER_CHARGES


@<TRIPOS>ATOM
      1 CA        -48.9119  -21.3213   10.5496 C.3       0 UNK        -0.1975 
      2 C         -49.0289  -22.7487   10.0388 C.2       0 UNK         0.4852 
      3 O         -49.3320  -23.6622   10.8129 O.2       0 UNK        -0.5216 
      4 N         -48.7803  -22.9298    8.7392 N.am      1 UNK        -0.4461 
      5 CA        -48.7362  -24.2035    8.0314 C.3       1 UNK         0.0864 
      6 C6        -50.1491  -24.6693    7.5830 C.3       14 UNK        -0.0898 
      7 S7        -50.1543  -26.2813    6.7208 S.3       14 UNK        -0.2598 
      8 C8        -51.7077  -26.2167    5.7752 C.3       14 UNK         0.0286 
      9 C9        -52.8717  -26.7133    6.6164 C.ar      14 UNK        -0.0844 
     10 C10       -53.5707  -25.8307    7.4415 C.ar      14 UNK        -0.0881 
     11 C11       -54.5884  -26.3012    8.2763 C.ar      14 UNK        -0.0643 
     12 C12       -54.9504  -27.6498    8.2330 C.ar      14 UNK        -0.0930 
     13 C13       -54.2589  -28.5459    7.4085 C.ar      14 UNK        -0.0827 
     14 C14       -53.2226  -28.0664    6.6009 C.ar      14 UNK        -0.1249 
     15 C15       -54.6030  -30.0336    7.3737 C.3       14 UNK         0.0141 
     16 S16       -55.1124  -30.7342    8.9806 S.3       14 UNK        -0.2313 
     17 C17       -53.5962  -30.5535    9.9826 C.3       14 UNK        -0.0915 
     18 CA        -53.9121  -30.6371   11.4999 C.3       13 UNK         0.0968 
     19 C         -52.6280  -30.8082   12.3660 C.2       13 UNK         0.5732 
     20 N         -52.3639  -29.9728   13.3653 N.am      13 UNK        -0.7310 
     21 O         -51.8683  -31.7496   12.1480 O.2       13 UNK        -0.5035 
     22 N         -54.7870  -29.5368   11.9321 N.am      13 UNK        -0.4233 
     23 C         -55.6417  -29.6148   12.9563 C.2       13 UNK         0.4989 
     24 O         -55.8699  -30.6433   13.5976 O.2       13 UNK        -0.4996 
     25 CA        -56.3459  -28.3081   13.3552 C.3       12 UNK         0.0216 
     26 CB        -57.8729  -28.4378   13.2283 C.3       12 UNK        -0.1964 
     27 N         -55.9947  -27.9185   14.7227 N.am      12 UNK        -0.4276 
     28 C         -54.7535  -27.6218   15.1284 C.2       12 UNK         0.5020 
     29 O         -53.7686  -27.6201   14.3866 O.2       12 UNK        -0.5489 
     30 CA        -54.5703  -27.3105   16.6147 C.3       11 UNK         0.0294 
     31 CB        -54.2073  -28.5882   17.3941 C.3       11 UNK        -0.2019 
     32 N         -53.5080  -26.3188   16.7485 N.am      11 UNK        -0.4493 
     33 C         -53.3200  -25.5238   17.8094 C.2       11 UNK         0.4932 
     34 O         -54.0353  -25.5500   18.8128 O.2       11 UNK        -0.5029 
     35 CA        -52.1505  -24.5232   17.7289 C.3       10 UNK         0.0280 
     36 CB        -51.7132  -23.9782   19.1053 C.3       10 UNK        -0.1976 
     37 N         -51.0108  -25.0503   16.9743 N.am      10 UNK        -0.4242 
     38 C         -50.2146  -26.0855   17.2814 C.2       10 UNK         0.5072 
     39 O         -50.2734  -26.7180   18.3364 O.2       10 UNK        -0.5224 
     40 CA        -49.1834  -26.5027   16.2162 C.3       9 UNK         0.0343 
     41 CB        -49.6655  -27.7647   15.4784 C.3       9 UNK        -0.2003 
     42 N         -48.9298  -25.4381   15.2390 N.am      9 UNK        -0.4272 
     43 C         -48.0206  -24.4633   15.3938 C.2       9 UNK         0.4988 
     44 O         -47.2249  -24.4147   16.3321 O.2       9 UNK        -0.5108 
     45 CA        -47.9950  -23.3428   14.3347 C.3       8 UNK         0.0248 
     46 CB        -46.9845  -23.6711   13.2230 C.3       8 UNK        -0.2001 
     47 N         -49.3071  -23.0739   13.7385 N.am      8 UNK        -0.4140 
     48 C         -50.3458  -22.5300   14.3927 C.2       8 UNK         0.5028 
     49 O         -50.2808  -22.1069   15.5461 O.2       8 UNK        -0.5428 
     50 CA        -51.7064  -22.5146   13.6681 C.3       7 UNK         0.0264 
     51 CB        -51.9562  -21.1629   12.9830 C.3       7 UNK        -0.1988 
     52 N         -51.8616  -23.6027   12.6952 N.am      7 UNK        -0.4454 
     53 C         -51.8578  -24.9034   13.0215 C.2       7 UNK         0.5027 
     54 O         -51.7367  -25.2986   14.1811 O.2       7 UNK        -0.5083 
     55 CA        -51.8828  -25.9273   11.8793 C.3       6 UNK         0.0844 
     56 C56       -52.7466  -25.5330   10.6599 C.3       14 UNK        -0.0967 
     57 S57       -54.5416  -25.6584   10.9678 S.3       14 UNK        -0.2604 
     58 C58       -55.2246  -25.3720    9.2981 C.3       14 UNK         0.0134 
     59 N         -50.4956  -26.1663   11.4924 N.am      6 UNK        -0.4116 
     60 C         -49.9895  -27.3548   11.1519 C.2       5 UNK         0.5034 
     61 O         -50.6448  -28.3963   11.0878 O.2       5 UNK        -0.5045 
     62 CA        -48.4859  -27.3941   10.8550 C.3       5 UNK         0.0224 
     63 CB        -47.6857  -27.6481   12.1428 C.3       5 UNK        -0.1978 
     64 N         -48.2180  -28.4778    9.9107 N.am      5 UNK        -0.4737 
     65 C         -47.6615  -28.3212    8.7079 C.2       4 UNK         0.5027 
     66 O         -47.2232  -27.2448    8.2962 O.2       4 UNK        -0.5211 
     67 CA        -47.6104  -29.5684    7.8084 C.3       4 UNK         0.0297 
     68 CB        -49.0276  -30.0108    7.3988 C.3       4 UNK        -0.1993 
     69 N         -46.8453  -29.2674    6.5986 N.am      4 UNK        -0.4486 
     70 C         -45.5393  -29.5080    6.4249 C.2       3 UNK         0.4961 
     71 O         -44.8537  -30.1908    7.1867 O.2       3 UNK        -0.5105 
     72 CA        -44.8823  -28.8457    5.1981 C.3       3 UNK         0.0299 
     73 CB        -45.0279  -29.7382    3.9549 C.3       3 UNK        -0.1972 
     74 N         -45.4465  -27.5195    4.9215 N.am      3 UNK        -0.4305 
     75 C         -45.2313  -26.4337    5.6794 C.2       2 UNK         0.5006 
     76 O         -44.4133  -26.3928    6.5996 O.2       2 UNK        -0.5106 
     77 CA        -46.0971  -25.1969    5.4039 C.3       2 UNK         0.0296 
     78 CB        -46.8459  -25.2287    4.0511 C.3       2 UNK        -0.2002 
     79 N         -47.0427  -25.0957    6.5104 N.am      2 UNK        -0.4032 
     80 C         -47.7549  -24.0205    6.8574 C.2       1 UNK         0.5000 
     81 O         -47.6730  -22.9228    6.2960 O.2       1 UNK        -0.5238 
     82 H82       -48.0668  -20.8110   10.0879 H         1 UNK         0.0889 
     83 H83       -48.7608  -21.3009   11.6276 H         1 UNK         0.0889 
     84 H84       -49.8166  -20.7621   10.3150 H         1 UNK         0.0889 
     85 H85       -48.5055  -22.1473    8.1567 H         1 UNK         0.3028 
     86 H86       -48.3151  -24.9464    8.7077 H         1 UNK         0.0864 
     87 H87       -50.7987  -24.7591    8.4537 H         1 UNK         0.0720 
     88 H88       -50.6035  -23.9150    6.9385 H         1 UNK         0.0720 
     89 H89       -51.6016  -26.8409    4.8867 H         1 UNK         0.0814 
     90 H90       -51.8945  -25.2050    5.4125 H         1 UNK         0.0814 
     91 H91       -53.2804  -24.7898    7.4792 H         1 UNK         0.1469 
     92 H92       -55.7406  -28.0049    8.8794 H         1 UNK         0.1381 
     93 H93       -52.6730  -28.7511    5.9691 H         1 UNK         0.1206 
     94 H94       -55.4123  -30.1827    6.6581 H         1 UNK         0.0813 
     95 H95       -53.7542  -30.6118    7.0048 H         1 UNK         0.0813 
     96 H96       -52.9068  -31.3438    9.6806 H         1 UNK         0.0638 
     97 H97       -53.1035  -29.6076    9.7500 H         1 UNK         0.0638 
     98 H98       -54.4612  -31.5690   11.6490 H         1 UNK         0.0568 
     99 H99       -51.5257  -30.1149   13.9024 H         1 UNK         0.3450 
    100 H100      -52.9615  -29.1773   13.5693 H         1 UNK         0.3450 
    101 H101      -54.6273  -28.6451   11.4870 H         1 UNK         0.2987 
    102 H102      -56.0200  -27.5085   12.6884 H         1 UNK         0.0766 
    103 H103      -58.3722  -27.4956   13.4552 H         1 UNK         0.0798 
    104 H104      -58.2722  -29.2008   13.8979 H         1 UNK         0.0798 
    105 H105      -58.1555  -28.7164   12.2121 H         1 UNK         0.0798 
    106 H106      -56.7396  -27.9402   15.4040 H         1 UNK         0.3198 
    107 H107      -55.5006  -26.8921   17.0052 H         1 UNK         0.0843 
    108 H108      -53.2676  -29.0166   17.0423 H         1 UNK         0.0831 
    109 H109      -54.9781  -29.3512   17.2780 H         1 UNK         0.0831 
    110 H110      -54.1057  -28.3909   18.4612 H         1 UNK         0.0831 
    111 H111      -52.9172  -26.2230   15.9263 H         1 UNK         0.3133 
    112 H112      -52.5211  -23.6775   17.1480 H         1 UNK         0.0566 
    113 H113      -50.8869  -23.2740   19.0075 H         1 UNK         0.0814 
    114 H114      -52.5324  -23.4491   19.5935 H         1 UNK         0.0814 
    115 H115      -51.3980  -24.7765   19.7778 H         1 UNK         0.0814 
    116 H116      -50.9092  -24.6671   16.0433 H         1 UNK         0.3091 
    117 H117      -48.2552  -26.7491   16.7362 H         1 UNK         0.0702 
    118 H118      -49.8860  -28.5677   16.1831 H         1 UNK         0.0785 
    119 H119      -50.5739  -27.5826   14.9027 H         1 UNK         0.0785 
    120 H120      -48.9038  -28.1399   14.7970 H         1 UNK         0.0785 
    121 H121      -49.5807  -25.3836   14.4672 H         1 UNK         0.2998 
    122 H122      -47.6617  -22.4311   14.8353 H         1 UNK         0.0697 
    123 H123      -47.2932  -24.5338   12.6326 H         1 UNK         0.0825 
    124 H124      -46.0020  -23.8958   13.6407 H         1 UNK         0.0825 
    125 H125      -46.8580  -22.8298   12.5419 H         1 UNK         0.0825 
    126 H126      -49.4344  -23.3514   12.7707 H         1 UNK         0.3029 
    127 H127      -52.4749  -22.6489   14.4328 H         1 UNK         0.0897 
    128 H128      -52.9601  -21.1122   12.5609 H         1 UNK         0.0792 
    129 H129      -51.2453  -20.9758   12.1806 H         1 UNK         0.0792 
    130 H130      -51.8653  -20.3422   13.6963 H         1 UNK         0.0792 
    131 H131      -51.9231  -23.3406   11.7225 H         1 UNK         0.3086 
    132 H132      -52.2902  -26.8485   12.3017 H         1 UNK         0.0583 
    133 H133      -52.5005  -24.5450   10.2694 H         1 UNK         0.1020 
    134 H134      -52.5029  -26.2345    9.8621 H         1 UNK         0.1020 
    135 H135      -56.3040  -25.5289    9.3199 H         1 UNK         0.0694 
    136 H136      -55.0692  -24.3281    9.0210 H         1 UNK         0.0694 
    137 H137      -49.9094  -25.3372   11.4344 H         1 UNK         0.2989 
    138 H138      -48.1881  -26.4286   10.4432 H         1 UNK         0.1055 
    139 H139      -47.8834  -26.8795   12.8897 H         1 UNK         0.0806 
    140 H140      -46.6133  -27.6404   11.9474 H         1 UNK         0.0806 
    141 H141      -47.9366  -28.6113   12.5887 H         1 UNK         0.0806 
    142 H142      -48.6422  -29.3649   10.1476 H         1 UNK         0.3061 
    143 H143      -47.1333  -30.3769    8.3664 H         1 UNK         0.0734 
    144 H144      -48.9954  -30.8869    6.7510 H         1 UNK         0.0832 
    145 H145      -49.6293  -30.2778    8.2685 H         1 UNK         0.0832 
    146 H146      -49.5614  -29.2229    6.8667 H         1 UNK         0.0832 
    147 H147      -47.2977  -28.6491    5.9425 H         1 UNK         0.3156 
    148 H148      -43.8171  -28.7298    5.4101 H         1 UNK         0.0589 
    149 H149      -44.5942  -30.7235    4.1315 H         1 UNK         0.0808 
    150 H150      -46.0730  -29.8874    3.6808 H         1 UNK         0.0808 
    151 H151      -44.5125  -29.3087    3.0956 H         1 UNK         0.0808 
    152 H152      -46.1137  -27.4525    4.1663 H         1 UNK         0.3098 
    153 H153      -45.4360  -24.3281    5.4211 H         1 UNK         0.0720 
    154 H154      -46.1574  -25.3870    3.2199 H         1 UNK         0.0791 
    155 H155      -47.3514  -24.2814    3.8626 H         1 UNK         0.0791 
    156 H156      -47.6049  -26.0114    4.0191 H         1 UNK         0.0791 
    157 H157      -47.1250  -25.9331    7.0915 H         1 UNK         0.3028 
@<TRIPOS>BOND
     1    1    2 1    
     2    1   82 1    
     3    1   83 1    
     4    1   84 1    
     5    2    3 2    
     6    2    4 am   BACKBONE|DICT|INTERRES
     7    4    5 1    
     8    4   85 1    
     9    5    6 1    
    10    5   80 1    
    11    5   86 1    
    12    6    7 1    
    13    6   87 1    
    14    6   88 1    
    15    7    8 1    
    16    8    9 1    
    17    8   89 1    
    18    8   90 1    
    19    9   10 ar   
    20    9   14 ar   
    21   10   11 ar   
    22   10   91 1    
    23   11   12 ar   
    24   11   58 1    
    25   12   13 ar   
    26   12   92 1    
    27   13   14 ar   
    28   13   15 1    
    29   14   93 1    
    30   15   16 1    
    31   15   94 1    
    32   15   95 1    
    33   16   17 1    
    34   17   18 1    
    35   17   96 1    
    36   17   97 1    
    37   18   19 1    
    38   18   22 1    
    39   18   98 1    
    40   19   20 am   BACKBONE|DICT|INTERRES
    41   19   21 2    
    42   20   99 1    
    43   20  100 1    
    44   22   23 am   BACKBONE|DICT|INTERRES
    45   22  101 1    
    46   23   24 2    
    47   23   25 1    
    48   25   26 1    
    49   25   27 1    
    50   25  102 1    
    51   26  103 1    
    52   26  104 1    
    53   26  105 1    
    54   27   28 am   BACKBONE|DICT|INTERRES
    55   27  106 1    
    56   28   29 2    
    57   28   30 1    
    58   30   31 1    
    59   30   32 1    
    60   30  107 1    
    61   31  108 1    
    62   31  109 1    
    63   31  110 1    
    64   32   33 am   BACKBONE|DICT|INTERRES
    65   32  111 1    
    66   33   34 2    
    67   33   35 1    
    68   35   36 1    
    69   35   37 1    
    70   35  112 1    
    71   36  113 1    
    72   36  114 1    
    73   36  115 1    
    74   37   38 am   BACKBONE|DICT|INTERRES
    75   37  116 1    
    76   38   39 2    
    77   38   40 1    
    78   40   41 1    
    79   40   42 1    
    80   40  117 1    
    81   41  118 1    
    82   41  119 1    
    83   41  120 1    
    84   42   43 am   BACKBONE|DICT|INTERRES
    85   42  121 1    
    86   43   44 2    
    87   43   45 1    
    88   45   46 1    
    89   45   47 1    
    90   45  122 1    
    91   46  123 1    
    92   46  124 1    
    93   46  125 1    
    94   47   48 am   BACKBONE|DICT|INTERRES
    95   47  126 1    
    96   48   49 2    
    97   48   50 1    
    98   50   51 1    
    99   50   52 1    
   100   50  127 1    
   101   51  128 1    
   102   51  129 1    
   103   51  130 1    
   104   52   53 am   BACKBONE|DICT|INTERRES
   105   52  131 1    
   106   53   54 2    
   107   53   55 1    
   108   55   56 1    
   109   55   59 1    
   110   55  132 1    
   111   56   57 1    
   112   56  133 1    
   113   56  134 1    
   114   57   58 1    
   115   58  135 1    
   116   58  136 1    
   117   59   60 am   BACKBONE|DICT|INTERRES
   118   59  137 1    
   119   60   61 2    
   120   60   62 1    
   121   62   63 1    
   122   62   64 1    
   123   62  138 1    
   124   63  139 1    
   125   63  140 1    
   126   63  141 1    
   127   64   65 am   BACKBONE|DICT|INTERRES
   128   64  142 1    
   129   65   66 2    
   130   65   67 1    
   131   67   68 1    
   132   67   69 1    
   133   67  143 1    
   134   68  144 1    
   135   68  145 1    
   136   68  146 1    
   137   69   70 am   BACKBONE|DICT|INTERRES
   138   69  147 1    
   139   70   71 2    
   140   70   72 1    
   141   72   73 1    
   142   72   74 1    
   143   72  148 1    
   144   73  149 1    
   145   73  150 1    
   146   73  151 1    
   147   74   75 am   BACKBONE|DICT|INTERRES
   148   74  152 1    
   149   75   76 2    
   150   75   77 1    
   151   77   78 1    
   152   77   79 1    
   153   77  153 1    
   154   78  154 1    
   155   78  155 1    
   156   78  156 1    
   157   79   80 am   BACKBONE|DICT|INTERRES
   158   79  157 1    
   159   80   81 2    
@<TRIPOS>SUBSTRUCTURE
     1 UNK         1 GROUP             0       ****    0 ROOT    
