@<TRIPOS>MOLECULE
3R207
157   159    1
SMALL
USER_CHARGES


@<TRIPOS>ATOM
      1 CA        -50.9446  -30.6176    4.9331 C.3       0 UNK        -0.1975 
      2 C         -50.2506  -29.4633    4.2247 C.2       0 UNK         0.4852 
      3 O         -49.3308  -29.6917    3.4388 O.2       0 UNK        -0.5216 
      4 N         -50.6889  -28.2266    4.4981 N.am      1 UNK        -0.4461 
      5 CA        -50.1353  -26.9814    3.9495 C.3       1 UNK         0.0864 
      6 C6        -51.0605  -25.7673    4.2347 C.3       14 UNK        -0.0898 
      7 S7        -51.3039  -25.4053    6.0112 S.3       14 UNK        -0.2598 
      8 C8        -52.8385  -26.3101    6.3833 C.3       14 UNK         0.0286 
      9 C9        -52.8114  -26.8664    7.7995 C.ar      14 UNK        -0.0844 
     10 C10       -51.9778  -27.9430    8.1168 C.ar      14 UNK        -0.0881 
     11 C11       -51.9525  -28.4686    9.4105 C.ar      14 UNK        -0.0643 
     12 C12       -52.7717  -27.9066   10.3942 C.ar      14 UNK        -0.0930 
     13 C13       -53.6226  -26.8334   10.0909 C.ar      14 UNK        -0.0827 
     14 C14       -53.6274  -26.3168    8.7914 C.ar      14 UNK        -0.1249 
     15 C15       -54.5289  -26.1836   11.1382 C.3       14 UNK         0.0141 
     16 S16       -55.0510  -27.2817   12.4945 S.3       14 UNK        -0.2313 
     17 C17       -56.0188  -28.5447   11.5995 C.3       14 UNK        -0.0915 
     18 CA        -57.1878  -29.1006   12.4531 C.3       13 UNK         0.0968 
     19 C         -58.0485  -30.1126   11.6439 C.2       13 UNK         0.5732 
     20 N         -58.1493  -31.3746   12.0449 N.am      13 UNK        -0.7310 
     21 O         -58.6469  -29.7416   10.6367 O.2       13 UNK        -0.5035 
     22 N         -56.7005  -29.6052   13.7443 N.am      13 UNK        -0.4233 
     23 C         -57.4131  -29.7053   14.8680 C.2       13 UNK         0.4989 
     24 O         -58.6150  -29.4475   14.9422 O.2       13 UNK        -0.4996 
     25 CA        -56.6583  -30.1368   16.1392 C.3       12 UNK         0.0216 
     26 CB        -56.6327  -31.6720   16.2757 C.3       12 UNK        -0.1964 
     27 N         -55.3122  -29.5550   16.2842 N.am      12 UNK        -0.4276 
     28 C         -54.2037  -29.7777   15.5641 C.2       12 UNK         0.5020 
     29 O         -54.1592  -30.5209   14.5815 O.2       12 UNK        -0.5489 
     30 CA        -52.9457  -29.0045   16.0009 C.3       11 UNK         0.0294 
     31 CB        -51.6493  -29.6868   15.5307 C.3       11 UNK        -0.2019 
     32 N         -52.9543  -27.6236   15.5166 N.am      11 UNK        -0.4493 
     33 C         -53.7365  -26.6406   15.9821 C.2       11 UNK         0.4932 
     34 O         -54.5896  -26.7966   16.8589 O.2       11 UNK        -0.5029 
     35 CA        -53.4542  -25.2443   15.3985 C.3       10 UNK         0.0280 
     36 CB        -54.3811  -24.1432   15.9546 C.3       10 UNK        -0.1976 
     37 N         -52.0384  -24.8951   15.5634 N.am      10 UNK        -0.4242 
     38 C         -51.3601  -24.7618   16.7152 C.2       10 UNK         0.5072 
     39 O         -51.8756  -24.7841   17.8336 O.2       10 UNK        -0.5224 
     40 CA        -49.8323  -24.6093   16.6122 C.3       9 UNK         0.0343 
     41 CB        -49.1543  -25.9767   16.7990 C.3       9 UNK        -0.2003 
     42 N         -49.3803  -24.0232   15.3493 N.am      9 UNK        -0.4272 
     43 C         -49.5680  -22.7458   14.9885 C.2       9 UNK         0.4988 
     44 O         -50.1289  -21.9064   15.6934 O.2       9 UNK        -0.5108 
     45 CA        -49.0498  -22.3411   13.6012 C.3       8 UNK         0.0248 
     46 CB        -47.5387  -22.0657   13.6388 C.3       8 UNK        -0.2001 
     47 N         -49.3471  -23.3647   12.5977 N.am      8 UNK        -0.4140 
     48 C         -50.5402  -23.5104   12.0042 C.2       8 UNK         0.5028 
     49 O         -51.4916  -22.7492   12.1806 O.2       8 UNK        -0.5428 
     50 CA        -50.7128  -24.7180   11.0716 C.3       7 UNK         0.0264 
     51 CB        -50.3804  -24.3471    9.6184 C.3       7 UNK        -0.1988 
     52 N         -49.9065  -25.8671   11.4811 N.am      7 UNK        -0.4454 
     53 C         -50.2014  -26.6627   12.5205 C.2       7 UNK         0.5027 
     54 O         -51.1785  -26.5047   13.2555 O.2       7 UNK        -0.5083 
     55 CA        -49.2271  -27.8192   12.8230 C.3       6 UNK         0.0844 
     56 C56       -49.6766  -29.1341   12.1388 C.3       14 UNK        -0.0967 
     57 S57       -49.4189  -29.1771   10.3273 S.3       14 UNK        -0.2604 
     58 C58       -51.0662  -29.6670    9.7220 C.3       14 UNK         0.0134 
     59 N         -47.8238  -27.5026   12.5416 N.am      6 UNK        -0.4116 
     60 C         -47.1288  -26.4819   13.0611 C.2       5 UNK         0.5034 
     61 O         -47.5984  -25.6725   13.8626 O.2       5 UNK        -0.5045 
     62 CA        -45.6806  -26.2851   12.5726 C.3       5 UNK         0.0224 
     63 CB        -45.1579  -27.4198   11.6603 C.3       5 UNK        -0.1978 
     64 N         -45.5094  -24.9854   11.9097 N.am      5 UNK        -0.4737 
     65 C         -46.2101  -24.5239   10.8633 C.2       4 UNK         0.5027 
     66 O         -47.1349  -25.1444   10.3361 O.2       4 UNK        -0.5211 
     67 CA        -45.8480  -23.1304   10.3130 C.3       4 UNK         0.0297 
     68 CB        -44.6968  -22.4130   11.0589 C.3       4 UNK        -0.1993 
     69 N         -45.5919  -23.2007    8.8709 N.am      4 UNK        -0.4486 
     70 C         -44.6021  -23.8689    8.2632 C.2       3 UNK         0.4961 
     71 O         -43.6831  -24.4454    8.8486 O.2       3 UNK        -0.5105 
     72 CA        -44.6922  -23.9599    6.7326 C.3       3 UNK         0.0299 
     73 CB        -43.3085  -23.8637    6.0648 C.3       3 UNK        -0.1972 
     74 N         -45.3124  -25.2348    6.3808 N.am      3 UNK        -0.4305 
     75 C         -46.6274  -25.4779    6.4401 C.2       2 UNK         0.5006 
     76 O         -47.4777  -24.6138    6.6682 O.2       2 UNK        -0.5106 
     77 CA        -47.0433  -26.9483    6.2675 C.3       2 UNK         0.0296 
     78 CB        -47.0707  -27.6497    7.6368 C.3       2 UNK        -0.2002 
     79 N         -48.3552  -27.0951    5.6399 N.am      2 UNK        -0.4032 
     80 C         -48.6756  -26.7235    4.3915 C.2       1 UNK         0.5000 
     81 O         -47.8760  -26.2327    3.5911 O.2       1 UNK        -0.5238 
     82 H82       -50.2416  -31.1319    5.5880 H         1 UNK         0.0889 
     83 H83       -51.3175  -31.3355    4.2030 H         1 UNK         0.0889 
     84 H84       -51.7879  -30.2818    5.5363 H         1 UNK         0.0889 
     85 H85       -51.4649  -28.1080    5.1300 H         1 UNK         0.3028 
     86 H86       -50.1032  -27.1091    2.8651 H         1 UNK         0.0864 
     87 H87       -52.0329  -25.9215    3.7642 H         1 UNK         0.0720 
     88 H88       -50.6529  -24.8710    3.7633 H         1 UNK         0.0720 
     89 H89       -52.9883  -27.1305    5.6816 H         1 UNK         0.0814 
     90 H90       -53.6859  -25.6370    6.2441 H         1 UNK         0.0814 
     91 H91       -51.3425  -28.3750    7.3582 H         1 UNK         0.1469 
     92 H92       -52.7440  -28.3100   11.3960 H         1 UNK         0.1381 
     93 H93       -54.2710  -25.4817    8.5503 H         1 UNK         0.1206 
     94 H94       -55.4249  -25.7834   10.6611 H         1 UNK         0.0813 
     95 H95       -54.0080  -25.3307   11.5734 H         1 UNK         0.0813 
     96 H96       -55.3418  -29.3486   11.3049 H         1 UNK         0.0638 
     97 H97       -56.3985  -28.1058   10.6750 H         1 UNK         0.0638 
     98 H98       -57.8537  -28.2626   12.6678 H         1 UNK         0.0568 
     99 H99       -57.6637  -31.6862   12.8702 H         1 UNK         0.3450 
    100 H100      -58.7149  -32.0184   11.5148 H         1 UNK         0.3450 
    101 H101      -55.7195  -29.8701   13.7876 H         1 UNK         0.2987 
    102 H102      -57.2319  -29.7466   16.9816 H         1 UNK         0.0766 
    103 H103      -56.1689  -31.9784   17.2133 H         1 UNK         0.0798 
    104 H104      -56.0864  -32.1477   15.4608 H         1 UNK         0.0798 
    105 H105      -57.6446  -32.0795   16.2671 H         1 UNK         0.0798 
    106 H106      -55.2446  -28.8073   16.9679 H         1 UNK         0.3198 
    107 H107      -52.9282  -28.9846   17.0930 H         1 UNK         0.0843 
    108 H108      -51.5962  -29.7395   14.4445 H         1 UNK         0.0831 
    109 H109      -51.5901  -30.7088   15.9073 H         1 UNK         0.0831 
    110 H110      -50.7661  -29.1572   15.8882 H         1 UNK         0.0831 
    111 H111      -52.3153  -27.3959   14.7616 H         1 UNK         0.3133 
    112 H112      -53.6296  -25.3094   14.3240 H         1 UNK         0.0566 
    113 H113      -54.1542  -23.1741   15.5103 H         1 UNK         0.0814 
    114 H114      -55.4244  -24.3681   15.7304 H         1 UNK         0.0814 
    115 H115      -54.2976  -24.0443   17.0371 H         1 UNK         0.0814 
    116 H116      -51.4940  -24.9333   14.7101 H         1 UNK         0.3091 
    117 H117      -49.5103  -23.9529   17.4234 H         1 UNK         0.0702 
    118 H118      -48.0679  -25.8856   16.7922 H         1 UNK         0.0785 
    119 H119      -49.4363  -26.6758   16.0111 H         1 UNK         0.0785 
    120 H120      -49.4365  -26.4271   17.7517 H         1 UNK         0.0785 
    121 H121      -48.8394  -24.6303   14.7368 H         1 UNK         0.2998 
    122 H122      -49.5503  -21.4123   13.3181 H         1 UNK         0.0697 
    123 H123      -46.9614  -22.9700   13.8346 H         1 UNK         0.0825 
    124 H124      -47.2926  -21.3465   14.4213 H         1 UNK         0.0825 
    125 H125      -47.1979  -21.6393   12.6964 H         1 UNK         0.0825 
    126 H126      -48.6403  -24.0677   12.4299 H         1 UNK         0.3029 
    127 H127      -51.7611  -25.0120   11.1095 H         1 UNK         0.0897 
    128 H128      -51.0453  -23.5627    9.2552 H         1 UNK         0.0792 
    129 H129      -50.5025  -25.2050    8.9570 H         1 UNK         0.0792 
    130 H130      -49.3579  -23.9852    9.5095 H         1 UNK         0.0792 
    131 H131      -49.0606  -26.0416   10.9494 H         1 UNK         0.3086 
    132 H132      -49.2858  -27.9849   13.9005 H         1 UNK         0.0583 
    133 H133      -49.1231  -29.9704   12.5687 H         1 UNK         0.1020 
    134 H134      -50.7229  -29.3385   12.3670 H         1 UNK         0.1020 
    135 H135      -50.9317  -30.2644    8.8188 H         1 UNK         0.0694 
    136 H136      -51.5559  -30.3277   10.4388 H         1 UNK         0.0694 
    137 H137      -47.3752  -28.0832   11.8483 H         1 UNK         0.2989 
    138 H138      -45.0612  -26.2668   13.4708 H         1 UNK         0.1055 
    139 H139      -45.2067  -28.3879   12.1609 H         1 UNK         0.0806 
    140 H140      -44.1132  -27.2537   11.3963 H         1 UNK         0.0806 
    141 H141      -45.7184  -27.4942   10.7274 H         1 UNK         0.0806 
    142 H142      -44.7839  -24.3929   12.2882 H         1 UNK         0.3061 
    143 H143      -46.7456  -22.5217   10.4305 H         1 UNK         0.0734 
    144 H144      -44.5184  -21.4239   10.6371 H         1 UNK         0.0832 
    145 H145      -44.9321  -22.2674   12.1133 H         1 UNK         0.0832 
    146 H146      -43.7574  -22.9640   11.0063 H         1 UNK         0.0832 
    147 H147      -46.3416  -22.8579    8.2844 H         1 UNK         0.3156 
    148 H148      -45.3048  -23.1370    6.3571 H         1 UNK         0.0589 
    149 H149      -42.6484  -24.6768    6.3699 H         1 UNK         0.0808 
    150 H150      -43.3913  -23.8905    4.9781 H         1 UNK         0.0808 
    151 H151      -42.8150  -22.9275    6.3291 H         1 UNK         0.0808 
    152 H152      -44.6823  -26.0094    6.2287 H         1 UNK         0.3098 
    153 H153      -46.3134  -27.4492    5.6281 H         1 UNK         0.0720 
    154 H154      -47.3301  -28.7045    7.5432 H         1 UNK         0.0791 
    155 H155      -47.7920  -27.1847    8.3114 H         1 UNK         0.0791 
    156 H156      -46.0962  -27.5977    8.1242 H         1 UNK         0.0791 
    157 H157      -49.0972  -27.4404    6.2283 H         1 UNK         0.3028 
@<TRIPOS>BOND
     1    1    2 1    
     2    1   82 1    
     3    1   83 1    
     4    1   84 1    
     5    2    3 2    
     6    2    4 am   BACKBONE|DICT|INTERRES
     7    4    5 1    
     8    4   85 1    
     9    5    6 1    
    10    5   80 1    
    11    5   86 1    
    12    6    7 1    
    13    6   87 1    
    14    6   88 1    
    15    7    8 1    
    16    8    9 1    
    17    8   89 1    
    18    8   90 1    
    19    9   10 ar   
    20    9   14 ar   
    21   10   11 ar   
    22   10   91 1    
    23   11   12 ar   
    24   11   58 1    
    25   12   13 ar   
    26   12   92 1    
    27   13   14 ar   
    28   13   15 1    
    29   14   93 1    
    30   15   16 1    
    31   15   94 1    
    32   15   95 1    
    33   16   17 1    
    34   17   18 1    
    35   17   96 1    
    36   17   97 1    
    37   18   19 1    
    38   18   22 1    
    39   18   98 1    
    40   19   20 am   BACKBONE|DICT|INTERRES
    41   19   21 2    
    42   20   99 1    
    43   20  100 1    
    44   22   23 am   BACKBONE|DICT|INTERRES
    45   22  101 1    
    46   23   24 2    
    47   23   25 1    
    48   25   26 1    
    49   25   27 1    
    50   25  102 1    
    51   26  103 1    
    52   26  104 1    
    53   26  105 1    
    54   27   28 am   BACKBONE|DICT|INTERRES
    55   27  106 1    
    56   28   29 2    
    57   28   30 1    
    58   30   31 1    
    59   30   32 1    
    60   30  107 1    
    61   31  108 1    
    62   31  109 1    
    63   31  110 1    
    64   32   33 am   BACKBONE|DICT|INTERRES
    65   32  111 1    
    66   33   34 2    
    67   33   35 1    
    68   35   36 1    
    69   35   37 1    
    70   35  112 1    
    71   36  113 1    
    72   36  114 1    
    73   36  115 1    
    74   37   38 am   BACKBONE|DICT|INTERRES
    75   37  116 1    
    76   38   39 2    
    77   38   40 1    
    78   40   41 1    
    79   40   42 1    
    80   40  117 1    
    81   41  118 1    
    82   41  119 1    
    83   41  120 1    
    84   42   43 am   BACKBONE|DICT|INTERRES
    85   42  121 1    
    86   43   44 2    
    87   43   45 1    
    88   45   46 1    
    89   45   47 1    
    90   45  122 1    
    91   46  123 1    
    92   46  124 1    
    93   46  125 1    
    94   47   48 am   BACKBONE|DICT|INTERRES
    95   47  126 1    
    96   48   49 2    
    97   48   50 1    
    98   50   51 1    
    99   50   52 1    
   100   50  127 1    
   101   51  128 1    
   102   51  129 1    
   103   51  130 1    
   104   52   53 am   BACKBONE|DICT|INTERRES
   105   52  131 1    
   106   53   54 2    
   107   53   55 1    
   108   55   56 1    
   109   55   59 1    
   110   55  132 1    
   111   56   57 1    
   112   56  133 1    
   113   56  134 1    
   114   57   58 1    
   115   58  135 1    
   116   58  136 1    
   117   59   60 am   BACKBONE|DICT|INTERRES
   118   59  137 1    
   119   60   61 2    
   120   60   62 1    
   121   62   63 1    
   122   62   64 1    
   123   62  138 1    
   124   63  139 1    
   125   63  140 1    
   126   63  141 1    
   127   64   65 am   BACKBONE|DICT|INTERRES
   128   64  142 1    
   129   65   66 2    
   130   65   67 1    
   131   67   68 1    
   132   67   69 1    
   133   67  143 1    
   134   68  144 1    
   135   68  145 1    
   136   68  146 1    
   137   69   70 am   BACKBONE|DICT|INTERRES
   138   69  147 1    
   139   70   71 2    
   140   70   72 1    
   141   72   73 1    
   142   72   74 1    
   143   72  148 1    
   144   73  149 1    
   145   73  150 1    
   146   73  151 1    
   147   74   75 am   BACKBONE|DICT|INTERRES
   148   74  152 1    
   149   75   76 2    
   150   75   77 1    
   151   77   78 1    
   152   77   79 1    
   153   77  153 1    
   154   78  154 1    
   155   78  155 1    
   156   78  156 1    
   157   79   80 am   BACKBONE|DICT|INTERRES
   158   79  157 1    
   159   80   81 2    
@<TRIPOS>SUBSTRUCTURE
     1 UNK         1 GROUP             0       ****    0 ROOT    
