@<TRIPOS>MOLECULE
3R207
157   159    1
SMALL
USER_CHARGES


@<TRIPOS>ATOM
      1 CA        -50.5515  -27.9480    2.3106 C.3       0 UNK        -0.1975 
      2 C         -49.5089  -28.2294    3.3826 C.2       0 UNK         0.4852 
      3 O         -48.6102  -29.0403    3.1571 O.2       0 UNK        -0.5216 
      4 N         -49.6236  -27.5562    4.5380 N.am      1 UNK        -0.4461 
      5 CA        -48.7553  -27.6892    5.7211 C.3       1 UNK         0.0864 
      6 C6        -48.8364  -29.0885    6.3978 C.3       14 UNK        -0.0898 
      7 S7        -50.5335  -29.5171    6.9160 S.3       14 UNK        -0.2598 
      8 C8        -50.5709  -28.8325    8.6050 C.3       14 UNK         0.0286 
      9 C9        -51.8028  -27.9709    8.8450 C.ar      14 UNK        -0.0844 
     10 C10       -52.0281  -26.8312    8.0685 C.ar      14 UNK        -0.0881 
     11 C11       -53.1204  -25.9982    8.3236 C.ar      14 UNK        -0.0643 
     12 C12       -54.0060  -26.3271    9.3546 C.ar      14 UNK        -0.0930 
     13 C13       -53.8072  -27.4745   10.1305 C.ar      14 UNK        -0.0827 
     14 C14       -52.6978  -28.2879    9.8705 C.ar      14 UNK        -0.1249 
     15 C15       -54.7737  -27.7880   11.2706 C.3       14 UNK         0.0141 
     16 S16       -55.3785  -29.5064   11.2825 S.3       14 UNK        -0.2313 
     17 C17       -54.1511  -30.3287   12.3577 C.3       14 UNK        -0.0915 
     18 CA        -54.7677  -30.8527   13.6830 C.3       13 UNK         0.0968 
     19 C         -53.7995  -31.8057   14.4462 C.2       13 UNK         0.5732 
     20 N         -53.6787  -31.7321   15.7668 N.am      13 UNK        -0.7310 
     21 O         -53.1528  -32.6510   13.8319 O.2       13 UNK        -0.5035 
     22 N         -55.2691  -29.7533   14.5249 N.am      13 UNK        -0.4233 
     23 C         -56.4643  -29.7394   15.1285 C.2       13 UNK         0.4989 
     24 O         -57.3241  -30.6075   14.9636 O.2       13 UNK        -0.4996 
     25 CA        -56.7403  -28.5648   16.0923 C.3       12 UNK         0.0216 
     26 CB        -57.9620  -28.8114   17.0029 C.3       12 UNK        -0.1964 
     27 N         -55.5773  -28.1763   16.9016 N.am      12 UNK        -0.4276 
     28 C         -54.8376  -28.9616   17.7031 C.2       12 UNK         0.5020 
     29 O         -55.0617  -30.1610   17.8709 O.2       12 UNK        -0.5489 
     30 CA        -53.6174  -28.3319   18.4043 C.3       11 UNK         0.0294 
     31 CB        -52.3535  -29.1795   18.1693 C.3       11 UNK        -0.2019 
     32 N         -53.3559  -26.9733   17.9291 N.am      11 UNK        -0.4493 
     33 C         -53.6871  -25.8429   18.5678 C.2       11 UNK         0.4932 
     34 O         -54.1855  -25.8104   19.6927 O.2       11 UNK        -0.5029 
     35 CA        -53.4485  -24.5210   17.8108 C.3       10 UNK         0.0280 
     36 CB        -52.1323  -23.8724   18.2668 C.3       10 UNK        -0.1976 
     37 N         -53.4337  -24.6855   16.3521 N.am      10 UNK        -0.4242 
     38 C         -54.5035  -25.0460   15.6231 C.2       10 UNK         0.5072 
     39 O         -55.6262  -25.2078   16.1010 O.2       10 UNK        -0.5224 
     40 CA        -54.2805  -25.3742   14.1365 C.3       9 UNK         0.0343 
     41 CB        -54.5822  -24.1540   13.2551 C.3       9 UNK        -0.2003 
     42 N         -52.9292  -25.8707   13.8581 N.am      9 UNK        -0.4272 
     43 C         -52.4297  -27.0166   14.3514 C.2       9 UNK         0.4988 
     44 O         -53.1163  -27.8307   14.9697 O.2       9 UNK        -0.5108 
     45 CA        -50.9244  -27.3017   14.1802 C.3       8 UNK         0.0248 
     46 CB        -50.6969  -28.4928   13.2373 C.3       8 UNK        -0.2001 
     47 N         -50.1371  -26.1602   13.7087 N.am      8 UNK        -0.4140 
     48 C         -49.9732  -24.9974   14.3564 C.2       8 UNK         0.5028 
     49 O         -50.4456  -24.7611   15.4690 O.2       8 UNK        -0.5428 
     50 CA        -49.2256  -23.8893   13.5941 C.3       7 UNK         0.0264 
     51 CB        -47.7309  -23.9042   13.9483 C.3       7 UNK        -0.1988 
     52 N         -49.3903  -23.9773   12.1358 N.am      7 UNK        -0.4454 
     53 C         -50.5671  -23.8433   11.4970 C.2       7 UNK         0.5027 
     54 O         -51.6251  -23.6483   12.0961 O.2       7 UNK        -0.5083 
     55 CA        -50.5905  -24.0094    9.9586 C.3       6 UNK         0.0844 
     56 C56       -51.7560  -23.2299    9.2868 C.3       14 UNK        -0.0967 
     57 S57       -51.9090  -23.6138    7.5076 S.3       14 UNK        -0.2604 
     58 C58       -53.3430  -24.7428    7.4877 C.3       14 UNK         0.0134 
     59 N         -49.2825  -23.7776    9.3361 N.am      6 UNK        -0.4116 
     60 C         -48.5857  -22.6330    9.3144 C.2       5 UNK         0.5034 
     61 O         -49.0175  -21.5604    9.7400 O.2       5 UNK        -0.5045 
     62 CA        -47.1496  -22.7081    8.7495 C.3       5 UNK         0.0224 
     63 CB        -46.1958  -21.7373    9.4768 C.3       5 UNK        -0.1978 
     64 N         -46.5568  -24.0572    8.7215 N.am      5 UNK        -0.4737 
     65 C         -46.3882  -24.9008    9.7555 C.2       4 UNK         0.5027 
     66 O         -46.8228  -24.6852   10.8867 O.2       4 UNK        -0.5211 
     67 CA        -45.6587  -26.2303    9.4849 C.3       4 UNK         0.0297 
     68 CB        -46.6769  -27.3784    9.4003 C.3       4 UNK        -0.1993 
     69 N         -44.8400  -26.2091    8.2682 N.am      4 UNK        -0.4486 
     70 C         -43.7054  -25.5023    8.1392 C.2       3 UNK         0.4961 
     71 O         -43.1814  -24.8854    9.0673 O.2       3 UNK        -0.5105 
     72 CA        -43.0431  -25.4438    6.7482 C.3       3 UNK         0.0299 
     73 CB        -41.8192  -26.3729    6.6990 C.3       3 UNK        -0.1972 
     74 N         -43.9309  -25.7653    5.6266 N.am      3 UNK        -0.4305 
     75 C         -45.0549  -25.1150    5.2937 C.2       2 UNK         0.5006 
     76 O         -45.4972  -24.1452    5.9121 O.2       2 UNK        -0.5106 
     77 CA        -45.8594  -25.6708    4.1029 C.3       2 UNK         0.0296 
     78 CB        -45.0770  -26.6713    3.2208 C.3       2 UNK        -0.2002 
     79 N         -47.1279  -26.2662    4.5392 N.am      2 UNK        -0.4032 
     80 C         -47.3000  -27.2326    5.4576 C.2       1 UNK         0.5000 
     81 O         -46.3731  -27.7336    6.1001 O.2       1 UNK        -0.5238 
     82 H82       -50.0703  -27.5697    1.4091 H         1 UNK         0.0889 
     83 H83       -51.2865  -27.2125    2.6373 H         1 UNK         0.0889 
     84 H84       -51.0817  -28.8651    2.0549 H         1 UNK         0.0889 
     85 H85       -50.3942  -26.9110    4.6436 H         1 UNK         0.3028 
     86 H86       -49.1326  -26.9648    6.4436 H         1 UNK         0.0864 
     87 H87       -48.4832  -29.8627    5.7151 H         1 UNK         0.0720 
     88 H88       -48.1834  -29.1500    7.2698 H         1 UNK         0.0720 
     89 H89       -49.6882  -28.2215    8.7937 H         1 UNK         0.0814 
     90 H90       -50.5259  -29.6588    9.3160 H         1 UNK         0.0814 
     91 H91       -51.3419  -26.5776    7.2738 H         1 UNK         0.1469 
     92 H92       -54.8510  -25.6831    9.5568 H         1 UNK         0.1381 
     93 H93       -52.5233  -29.1690   10.4692 H         1 UNK         0.1206 
     94 H94       -54.2855  -27.5743   12.2164 H         1 UNK         0.0813 
     95 H95       -55.6428  -27.1305   11.2226 H         1 UNK         0.0813 
     96 H96       -53.7278  -31.1483   11.7747 H         1 UNK         0.0638 
     97 H97       -53.3249  -29.6530   12.5745 H         1 UNK         0.0638 
     98 H98       -55.6027  -31.4955   13.4000 H         1 UNK         0.0568 
     99 H99       -53.0513  -32.3685   16.2307 H         1 UNK         0.3450 
    100 H100      -54.2418  -31.0945   16.3190 H         1 UNK         0.3450 
    101 H101      -54.5915  -29.0283   14.7461 H         1 UNK         0.2987 
    102 H102      -56.9696  -27.7067   15.4588 H         1 UNK         0.0766 
    103 H103      -58.8638  -28.9828   16.4139 H         1 UNK         0.0798 
    104 H104      -58.1563  -27.9529   17.6458 H         1 UNK         0.0798 
    105 H105      -57.8185  -29.6835   17.6419 H         1 UNK         0.0798 
    106 H106      -55.3173  -27.1998   16.8274 H         1 UNK         0.3198 
    107 H107      -53.8300  -28.3233   19.4754 H         1 UNK         0.0843 
    108 H108      -52.1247  -29.2792   17.1073 H         1 UNK         0.0831 
    109 H109      -52.4751  -30.1863   18.5710 H         1 UNK         0.0831 
    110 H110      -51.4846  -28.7412   18.6603 H         1 UNK         0.0831 
    111 H111      -52.9761  -26.9074   16.9934 H         1 UNK         0.3133 
    112 H112      -54.2672  -23.8438   18.0630 H         1 UNK         0.0566 
    113 H113      -51.9656  -22.9169   17.7692 H         1 UNK         0.0814 
    114 H114      -51.2737  -24.5124   18.0595 H         1 UNK         0.0814 
    115 H115      -52.1434  -23.6810   19.3407 H         1 UNK         0.0814 
    116 H116      -52.5298  -24.6014   15.8969 H         1 UNK         0.3091 
    117 H117      -54.9906  -26.1611   13.8768 H         1 UNK         0.0702 
    118 H118      -54.4628  -24.3891   12.1971 H         1 UNK         0.0785 
    119 H119      -53.9247  -23.3156   13.4885 H         1 UNK         0.0785 
    120 H120      -55.6084  -23.8132   13.3987 H         1 UNK         0.0785 
    121 H121      -52.3192  -25.2435   13.3455 H         1 UNK         0.2998 
    122 H122      -50.5437  -27.5735   15.1668 H         1 UNK         0.0697 
    123 H123      -51.0626  -28.2857   12.2319 H         1 UNK         0.0825 
    124 H124      -51.2110  -29.3831   13.6019 H         1 UNK         0.0825 
    125 H125      -49.6390  -28.7458   13.1642 H         1 UNK         0.0825 
    126 H126      -49.7123  -26.2497   12.7976 H         1 UNK         0.3029 
    127 H127      -49.6442  -22.9336   13.9172 H         1 UNK         0.0897 
    128 H128      -47.2538  -24.8378   13.6474 H         1 UNK         0.0792 
    129 H129      -47.5830  -23.7926   15.0234 H         1 UNK         0.0792 
    130 H130      -47.1998  -23.0863   13.4606 H         1 UNK         0.0792 
    131 H131      -48.5451  -24.1542   11.5964 H         1 UNK         0.3086 
    132 H132      -50.7869  -25.0713    9.8145 H         1 UNK         0.0583 
    133 H133      -52.7069  -23.4551    9.7736 H         1 UNK         0.1020 
    134 H134      -51.6139  -22.1541    9.3999 H         1 UNK         0.1020 
    135 H135      -54.2245  -24.1976    7.8288 H         1 UNK         0.0694 
    136 H136      -53.5440  -25.0376    6.4570 H         1 UNK         0.0694 
    137 H137      -48.8278  -24.5946    8.9585 H         1 UNK         0.2989 
    138 H138      -47.2216  -22.3865    7.7090 H         1 UNK         0.1055 
    139 H139      -46.1224  -21.9670   10.5405 H         1 UNK         0.0806 
    140 H140      -46.5379  -20.7054    9.3886 H         1 UNK         0.0806 
    141 H141      -45.1914  -21.7795    9.0552 H         1 UNK         0.0806 
    142 H142      -46.1658  -24.3254    7.8225 H         1 UNK         0.3061 
    143 H143      -44.9997  -26.4210   10.3347 H         1 UNK         0.0734 
    144 H144      -47.2301  -27.4786   10.3353 H         1 UNK         0.0832 
    145 H145      -47.4055  -27.2091    8.6086 H         1 UNK         0.0832 
    146 H146      -46.1877  -28.3338    9.2095 H         1 UNK         0.0832 
    147 H147      -45.2018  -26.7101    7.4616 H         1 UNK         0.3156 
    148 H148      -42.6984  -24.4180    6.6024 H         1 UNK         0.0589 
    149 H149      -41.2770  -26.2686    5.7589 H         1 UNK         0.0808 
    150 H150      -41.1178  -26.1389    7.5013 H         1 UNK         0.0808 
    151 H151      -42.1034  -27.4202    6.8106 H         1 UNK         0.0808 
    152 H152      -43.6834  -26.5765    5.0783 H         1 UNK         0.3098 
    153 H153      -46.1133  -24.8109    3.4812 H         1 UNK         0.0720 
    154 H154      -44.8368  -27.5943    3.7501 H         1 UNK         0.0791 
    155 H155      -44.1436  -26.2370    2.8598 H         1 UNK         0.0791 
    156 H156      -45.6589  -26.9470    2.3410 H         1 UNK         0.0791 
    157 H157      -47.9564  -25.8968    4.0950 H         1 UNK         0.3028 
@<TRIPOS>BOND
     1    1    2 1    
     2    1   82 1    
     3    1   83 1    
     4    1   84 1    
     5    2    3 2    
     6    2    4 am   BACKBONE|DICT|INTERRES
     7    4    5 1    
     8    4   85 1    
     9    5    6 1    
    10    5   80 1    
    11    5   86 1    
    12    6    7 1    
    13    6   87 1    
    14    6   88 1    
    15    7    8 1    
    16    8    9 1    
    17    8   89 1    
    18    8   90 1    
    19    9   10 ar   
    20    9   14 ar   
    21   10   11 ar   
    22   10   91 1    
    23   11   12 ar   
    24   11   58 1    
    25   12   13 ar   
    26   12   92 1    
    27   13   14 ar   
    28   13   15 1    
    29   14   93 1    
    30   15   16 1    
    31   15   94 1    
    32   15   95 1    
    33   16   17 1    
    34   17   18 1    
    35   17   96 1    
    36   17   97 1    
    37   18   19 1    
    38   18   22 1    
    39   18   98 1    
    40   19   20 am   BACKBONE|DICT|INTERRES
    41   19   21 2    
    42   20   99 1    
    43   20  100 1    
    44   22   23 am   BACKBONE|DICT|INTERRES
    45   22  101 1    
    46   23   24 2    
    47   23   25 1    
    48   25   26 1    
    49   25   27 1    
    50   25  102 1    
    51   26  103 1    
    52   26  104 1    
    53   26  105 1    
    54   27   28 am   BACKBONE|DICT|INTERRES
    55   27  106 1    
    56   28   29 2    
    57   28   30 1    
    58   30   31 1    
    59   30   32 1    
    60   30  107 1    
    61   31  108 1    
    62   31  109 1    
    63   31  110 1    
    64   32   33 am   BACKBONE|DICT|INTERRES
    65   32  111 1    
    66   33   34 2    
    67   33   35 1    
    68   35   36 1    
    69   35   37 1    
    70   35  112 1    
    71   36  113 1    
    72   36  114 1    
    73   36  115 1    
    74   37   38 am   BACKBONE|DICT|INTERRES
    75   37  116 1    
    76   38   39 2    
    77   38   40 1    
    78   40   41 1    
    79   40   42 1    
    80   40  117 1    
    81   41  118 1    
    82   41  119 1    
    83   41  120 1    
    84   42   43 am   BACKBONE|DICT|INTERRES
    85   42  121 1    
    86   43   44 2    
    87   43   45 1    
    88   45   46 1    
    89   45   47 1    
    90   45  122 1    
    91   46  123 1    
    92   46  124 1    
    93   46  125 1    
    94   47   48 am   BACKBONE|DICT|INTERRES
    95   47  126 1    
    96   48   49 2    
    97   48   50 1    
    98   50   51 1    
    99   50   52 1    
   100   50  127 1    
   101   51  128 1    
   102   51  129 1    
   103   51  130 1    
   104   52   53 am   BACKBONE|DICT|INTERRES
   105   52  131 1    
   106   53   54 2    
   107   53   55 1    
   108   55   56 1    
   109   55   59 1    
   110   55  132 1    
   111   56   57 1    
   112   56  133 1    
   113   56  134 1    
   114   57   58 1    
   115   58  135 1    
   116   58  136 1    
   117   59   60 am   BACKBONE|DICT|INTERRES
   118   59  137 1    
   119   60   61 2    
   120   60   62 1    
   121   62   63 1    
   122   62   64 1    
   123   62  138 1    
   124   63  139 1    
   125   63  140 1    
   126   63  141 1    
   127   64   65 am   BACKBONE|DICT|INTERRES
   128   64  142 1    
   129   65   66 2    
   130   65   67 1    
   131   67   68 1    
   132   67   69 1    
   133   67  143 1    
   134   68  144 1    
   135   68  145 1    
   136   68  146 1    
   137   69   70 am   BACKBONE|DICT|INTERRES
   138   69  147 1    
   139   70   71 2    
   140   70   72 1    
   141   72   73 1    
   142   72   74 1    
   143   72  148 1    
   144   73  149 1    
   145   73  150 1    
   146   73  151 1    
   147   74   75 am   BACKBONE|DICT|INTERRES
   148   74  152 1    
   149   75   76 2    
   150   75   77 1    
   151   77   78 1    
   152   77   79 1    
   153   77  153 1    
   154   78  154 1    
   155   78  155 1    
   156   78  156 1    
   157   79   80 am   BACKBONE|DICT|INTERRES
   158   79  157 1    
   159   80   81 2    
@<TRIPOS>SUBSTRUCTURE
     1 UNK         1 GROUP             0       ****    0 ROOT    
