@<TRIPOS>MOLECULE
3R207
157   159    1
SMALL
USER_CHARGES


@<TRIPOS>ATOM
      1 CA        -44.2594  -29.8420    7.3047 C.3       0 UNK        -0.1975 
      2 C         -45.1343  -29.6472    6.0752 C.2       0 UNK         0.4852 
      3 O         -44.6137  -29.3753    4.9929 O.2       0 UNK        -0.5216 
      4 N         -46.4569  -29.7937    6.2336 N.am      1 UNK        -0.4461 
      5 CA        -47.4626  -29.6331    5.1754 C.3       1 UNK         0.0864 
      6 C6        -48.8453  -30.1834    5.6084 C.3       14 UNK        -0.0898 
      7 S7        -49.4652  -29.4683    7.1703 S.3       14 UNK        -0.2598 
      8 C8        -51.1843  -30.0495    7.1431 C.3       14 UNK         0.0286 
      9 C9        -51.9717  -29.4395    8.2898 C.ar      14 UNK        -0.0844 
     10 C10       -52.5809  -28.1927    8.1322 C.ar      14 UNK        -0.0881 
     11 C11       -53.3046  -27.6180    9.1806 C.ar      14 UNK        -0.0643 
     12 C12       -53.4223  -28.3037   10.3944 C.ar      14 UNK        -0.0930 
     13 C13       -52.8077  -29.5488   10.5649 C.ar      14 UNK        -0.0827 
     14 C14       -52.0858  -30.1125    9.5087 C.ar      14 UNK        -0.1249 
     15 C15       -52.8916  -30.2781   11.8951 C.3       14 UNK         0.0141 
     16 S16       -54.2765  -31.4590   11.9302 S.3       14 UNK        -0.2313 
     17 C17       -55.4176  -30.6528   13.1025 C.3       14 UNK        -0.0915 
     18 CA        -56.4653  -29.7351   12.4030 C.3       13 UNK         0.0968 
     19 C         -57.7651  -30.4832   11.9726 C.2       13 UNK         0.5732 
     20 N         -58.9311  -29.8479   12.0023 N.am      13 UNK        -0.7310 
     21 O         -57.7221  -31.6462   11.5785 O.2       13 UNK        -0.5035 
     22 N         -56.6962  -28.4851   13.1457 N.am      13 UNK        -0.4233 
     23 C         -57.1381  -28.3712   14.4037 C.2       13 UNK         0.4989 
     24 O         -57.3882  -29.3359   15.1287 O.2       13 UNK        -0.4996 
     25 CA        -57.3402  -26.9350   14.9356 C.3       12 UNK         0.0216 
     26 CB        -57.7554  -26.9065   16.4190 C.3       12 UNK        -0.1964 
     27 N         -56.1696  -26.0670   14.7645 N.am      12 UNK        -0.4276 
     28 C         -55.7157  -25.5463   13.6194 C.2       12 UNK         0.5020 
     29 O         -56.2144  -25.8016   12.5218 O.2       12 UNK        -0.5489 
     30 CA        -54.5173  -24.5813   13.6833 C.3       11 UNK         0.0294 
     31 CB        -54.9977  -23.1188   13.7363 C.3       11 UNK        -0.2019 
     32 N         -53.5087  -24.8412   14.7216 N.am      11 UNK        -0.4493 
     33 C         -53.6267  -24.7796   16.0559 C.2       11 UNK         0.4932 
     34 O         -54.6974  -24.5939   16.6367 O.2       11 UNK        -0.5029 
     35 CA        -52.3314  -24.9284   16.8766 C.3       10 UNK         0.0280 
     36 CB        -52.5884  -25.3077   18.3514 C.3       10 UNK        -0.1976 
     37 N         -51.3394  -25.8171   16.2610 N.am      10 UNK        -0.4242 
     38 C         -51.4356  -27.1427   16.0687 C.2       10 UNK         0.5072 
     39 O         -52.4243  -27.8046   16.3879 O.2       10 UNK        -0.5224 
     40 CA        -50.2412  -27.8709   15.4136 C.3       9 UNK         0.0343 
     41 CB        -50.6957  -28.6910   14.1961 C.3       9 UNK        -0.2003 
     42 N         -49.1562  -26.9796   14.9983 N.am      9 UNK        -0.4272 
     43 C         -48.2147  -26.4744   15.8062 C.2       9 UNK         0.4988 
     44 O         -48.1077  -26.7630   16.9983 O.2       9 UNK        -0.5108 
     45 CA        -47.2588  -25.4344   15.1923 C.3       8 UNK         0.0248 
     46 CB        -46.0381  -26.1274   14.5675 C.3       8 UNK        -0.2001 
     47 N         -47.9017  -24.5636   14.1990 N.am      8 UNK        -0.4140 
     48 C         -48.9315  -23.7438   14.4623 C.2       8 UNK         0.5028 
     49 O         -49.4277  -23.6111   15.5812 O.2       8 UNK        -0.5428 
     50 CA        -49.5542  -22.9851   13.2789 C.3       7 UNK         0.0264 
     51 CB        -48.6958  -21.7710   12.8909 C.3       7 UNK        -0.1988 
     52 N         -49.7784  -23.8333   12.1060 N.am      7 UNK        -0.4454 
     53 C         -50.5836  -24.9070   12.0798 C.2       7 UNK         0.5027 
     54 O         -51.2471  -25.2837   13.0475 O.2       7 UNK        -0.5083 
     55 CA        -50.6045  -25.7329   10.7727 C.3       6 UNK         0.0844 
     56 C56       -51.4417  -25.0562    9.6565 C.3       14 UNK        -0.0967 
     57 S57       -53.2225  -24.9703   10.0528 S.3       14 UNK        -0.2604 
     58 C58       -53.9555  -26.2553    8.9918 C.3       14 UNK         0.0134 
     59 N         -49.2459  -26.0453   10.3186 N.am      6 UNK        -0.4116 
     60 C         -48.3310  -26.7164   11.0350 C.2       5 UNK         0.5034 
     61 O         -48.5537  -27.2372   12.1269 O.2       5 UNK        -0.5045 
     62 CA        -46.9027  -26.7513   10.4721 C.3       5 UNK         0.0224 
     63 CB        -46.7304  -27.8907    9.4570 C.3       5 UNK        -0.1978 
     64 N         -46.5294  -25.4717    9.8639 N.am      5 UNK        -0.4737 
     65 C         -46.2786  -24.3557   10.5635 C.2       4 UNK         0.5027 
     66 O         -46.2894  -24.3055   11.7926 O.2       4 UNK        -0.5211 
     67 CA        -46.0118  -23.0726    9.7576 C.3       4 UNK         0.0297 
     68 CB        -44.5378  -23.0015    9.3292 C.3       4 UNK        -0.1993 
     69 N         -46.8739  -22.9528    8.5787 N.am      4 UNK        -0.4486 
     70 C         -48.2063  -22.8117    8.6267 C.2       3 UNK         0.4961 
     71 O         -48.8436  -22.7057    9.6732 O.2       3 UNK        -0.5105 
     72 CA        -48.9654  -22.8469    7.2875 C.3       3 UNK         0.0299 
     73 CB        -49.0977  -21.4293    6.7099 C.3       3 UNK        -0.1972 
     74 N         -48.3686  -23.7350    6.2822 N.am      3 UNK        -0.4305 
     75 C         -48.1464  -25.0465    6.4469 C.2       2 UNK         0.5006 
     76 O         -48.4071  -25.6602    7.4859 O.2       2 UNK        -0.5106 
     77 CA        -47.4768  -25.7738    5.2746 C.3       2 UNK         0.0296 
     78 CB        -46.0318  -25.2823    5.0641 C.3       2 UNK        -0.2002 
     79 N         -47.4559  -27.2063    5.5496 N.am      2 UNK        -0.4032 
     80 C         -47.5543  -28.1852    4.6429 C.2       1 UNK         0.5000 
     81 O         -47.6878  -27.9898    3.4328 O.2       1 UNK        -0.5238 
     82 H82       -43.7649  -28.9066    7.5651 H         1 UNK         0.0889 
     83 H83       -43.4916  -30.5886    7.1037 H         1 UNK         0.0889 
     84 H84       -44.8356  -30.1762    8.1673 H         1 UNK         0.0889 
     85 H85       -46.8291  -30.0285    7.1431 H         1 UNK         0.3028 
     86 H86       -47.1279  -30.2423    4.3327 H         1 UNK         0.0864 
     87 H87       -48.7806  -31.2648    5.7393 H         1 UNK         0.0720 
     88 H88       -49.5828  -30.0248    4.8189 H         1 UNK         0.0720 
     89 H89       -51.2016  -31.1388    7.2048 H         1 UNK         0.0814 
     90 H90       -51.6482  -29.7847    6.1917 H         1 UNK         0.0814 
     91 H91       -52.4825  -27.6669    7.1922 H         1 UNK         0.1469 
     92 H92       -53.9759  -27.8560   11.2087 H         1 UNK         0.1381 
     93 H93       -51.6065  -31.0735    9.6382 H         1 UNK         0.1206 
     94 H94       -51.9621  -30.8187   12.0803 H         1 UNK         0.0813 
     95 H95       -52.9839  -29.5530   12.7026 H         1 UNK         0.0813 
     96 H96       -55.9100  -31.4257   13.6954 H         1 UNK         0.0638 
     97 H97       -54.8241  -30.0894   13.8236 H         1 UNK         0.0638 
     98 H98       -56.0335  -29.3942   11.4619 H         1 UNK         0.0568 
     99 H99       -59.7647  -30.3352   11.7139 H         1 UNK         0.3450 
    100 H100      -58.9852  -28.8896   12.3065 H         1 UNK         0.3450 
    101 H101      -56.5270  -27.6184   12.6389 H         1 UNK         0.2987 
    102 H102      -58.1602  -26.5037   14.3577 H         1 UNK         0.0766 
    103 H103      -57.9579  -25.8893   16.7553 H         1 UNK         0.0798 
    104 H104      -56.9782  -27.3229   17.0614 H         1 UNK         0.0798 
    105 H105      -58.6645  -27.4861   16.5855 H         1 UNK         0.0798 
    106 H106      -55.7000  -25.7575   15.6127 H         1 UNK         0.3198 
    107 H107      -53.9830  -24.7106   12.7442 H         1 UNK         0.0843 
    108 H108      -55.5405  -22.9010   14.6566 H         1 UNK         0.0831 
    109 H109      -55.6689  -22.9003   12.9044 H         1 UNK         0.0831 
    110 H110      -54.1603  -22.4245   13.6661 H         1 UNK         0.0831 
    111 H111      -52.5861  -25.0518   14.3422 H         1 UNK         0.3133 
    112 H112      -51.8735  -23.9385   16.8771 H         1 UNK         0.0566 
    113 H113      -53.1206  -26.2551   18.4412 H         1 UNK         0.0814 
    114 H114      -51.6551  -25.3918   18.9080 H         1 UNK         0.0814 
    115 H115      -53.1935  -24.5495   18.8499 H         1 UNK         0.0814 
    116 H116      -50.4997  -25.3477   15.9373 H         1 UNK         0.3091 
    117 H117      -49.8494  -28.5676   16.1573 H         1 UNK         0.0702 
    118 H118      -51.4381  -29.4352   14.4858 H         1 UNK         0.0785 
    119 H119      -51.1394  -28.0556   13.4285 H         1 UNK         0.0785 
    120 H120      -49.8616  -29.2276   13.7436 H         1 UNK         0.0785 
    121 H121      -49.1308  -26.7363   14.0126 H         1 UNK         0.2998 
    122 H122      -46.9064  -24.7947   16.0041 H         1 UNK         0.0697 
    123 H123      -46.3244  -26.7781   13.7413 H         1 UNK         0.0825 
    124 H124      -45.5201  -26.7438   15.3034 H         1 UNK         0.0825 
    125 H125      -45.3186  -25.4011   14.1892 H         1 UNK         0.0825 
    126 H126      -47.5093  -24.5738   13.2603 H         1 UNK         0.3029 
    127 H127      -50.5303  -22.6183   13.6040 H         1 UNK         0.0897 
    128 H128      -47.7135  -22.0695   12.5243 H         1 UNK         0.0792 
    129 H129      -48.5397  -21.1133   13.7470 H         1 UNK         0.0792 
    130 H130      -49.1764  -21.1799   12.1110 H         1 UNK         0.0792 
    131 H131      -49.3059  -23.5541   11.2479 H         1 UNK         0.3086 
    132 H132      -51.0713  -26.6918   11.0066 H         1 UNK         0.0583 
    133 H133      -51.0911  -24.0411    9.4704 H         1 UNK         0.1020 
    134 H134      -51.3115  -25.5897    8.7136 H         1 UNK         0.1020 
    135 H135      -55.0191  -26.3336    9.2215 H         1 UNK         0.0694 
    136 H136      -53.8894  -25.9317    7.9519 H         1 UNK         0.0694 
    137 H137      -48.9728  -25.6986    9.4048 H         1 UNK         0.2989 
    138 H138      -46.2230  -26.9405   11.3058 H         1 UNK         0.1055 
    139 H139      -46.9319  -28.8567    9.9220 H         1 UNK         0.0806 
    140 H140      -45.7129  -27.9208    9.0689 H         1 UNK         0.0806 
    141 H141      -47.4126  -27.7906    8.6147 H         1 UNK         0.0806 
    142 H142      -46.5827  -25.4122    8.8567 H         1 UNK         0.3061 
    143 H143      -46.2185  -22.2227   10.4116 H         1 UNK         0.0734 
    144 H144      -44.3143  -22.0586    8.8298 H         1 UNK         0.0832 
    145 H145      -43.8780  -23.0710   10.1954 H         1 UNK         0.0832 
    146 H146      -44.2712  -23.8135    8.6515 H         1 UNK         0.0832 
    147 H147      -46.4313  -23.0215    7.6742 H         1 UNK         0.3156 
    148 H148      -49.9695  -23.2226    7.4917 H         1 UNK         0.0589 
    149 H149      -48.1274  -21.0065    6.4462 H         1 UNK         0.0808 
    150 H150      -49.7232  -21.4201    5.8170 H         1 UNK         0.0808 
    151 H151      -49.5607  -20.7557    7.4328 H         1 UNK         0.0808 
    152 H152      -48.1218  -23.3114    5.3989 H         1 UNK         0.3098 
    153 H153      -48.0689  -25.5787    4.3780 H         1 UNK         0.0720 
    154 H154      -45.5511  -25.8148    4.2429 H         1 UNK         0.0791 
    155 H155      -45.4215  -25.4314    5.9560 H         1 UNK         0.0791 
    156 H156      -46.0003  -24.2208    4.8167 H         1 UNK         0.0791 
    157 H157      -47.4649  -27.4486    6.5312 H         1 UNK         0.3028 
@<TRIPOS>BOND
     1    1    2 1    
     2    1   82 1    
     3    1   83 1    
     4    1   84 1    
     5    2    3 2    
     6    2    4 am   BACKBONE|DICT|INTERRES
     7    4    5 1    
     8    4   85 1    
     9    5    6 1    
    10    5   80 1    
    11    5   86 1    
    12    6    7 1    
    13    6   87 1    
    14    6   88 1    
    15    7    8 1    
    16    8    9 1    
    17    8   89 1    
    18    8   90 1    
    19    9   10 ar   
    20    9   14 ar   
    21   10   11 ar   
    22   10   91 1    
    23   11   12 ar   
    24   11   58 1    
    25   12   13 ar   
    26   12   92 1    
    27   13   14 ar   
    28   13   15 1    
    29   14   93 1    
    30   15   16 1    
    31   15   94 1    
    32   15   95 1    
    33   16   17 1    
    34   17   18 1    
    35   17   96 1    
    36   17   97 1    
    37   18   19 1    
    38   18   22 1    
    39   18   98 1    
    40   19   20 am   BACKBONE|DICT|INTERRES
    41   19   21 2    
    42   20   99 1    
    43   20  100 1    
    44   22   23 am   BACKBONE|DICT|INTERRES
    45   22  101 1    
    46   23   24 2    
    47   23   25 1    
    48   25   26 1    
    49   25   27 1    
    50   25  102 1    
    51   26  103 1    
    52   26  104 1    
    53   26  105 1    
    54   27   28 am   BACKBONE|DICT|INTERRES
    55   27  106 1    
    56   28   29 2    
    57   28   30 1    
    58   30   31 1    
    59   30   32 1    
    60   30  107 1    
    61   31  108 1    
    62   31  109 1    
    63   31  110 1    
    64   32   33 am   BACKBONE|DICT|INTERRES
    65   32  111 1    
    66   33   34 2    
    67   33   35 1    
    68   35   36 1    
    69   35   37 1    
    70   35  112 1    
    71   36  113 1    
    72   36  114 1    
    73   36  115 1    
    74   37   38 am   BACKBONE|DICT|INTERRES
    75   37  116 1    
    76   38   39 2    
    77   38   40 1    
    78   40   41 1    
    79   40   42 1    
    80   40  117 1    
    81   41  118 1    
    82   41  119 1    
    83   41  120 1    
    84   42   43 am   BACKBONE|DICT|INTERRES
    85   42  121 1    
    86   43   44 2    
    87   43   45 1    
    88   45   46 1    
    89   45   47 1    
    90   45  122 1    
    91   46  123 1    
    92   46  124 1    
    93   46  125 1    
    94   47   48 am   BACKBONE|DICT|INTERRES
    95   47  126 1    
    96   48   49 2    
    97   48   50 1    
    98   50   51 1    
    99   50   52 1    
   100   50  127 1    
   101   51  128 1    
   102   51  129 1    
   103   51  130 1    
   104   52   53 am   BACKBONE|DICT|INTERRES
   105   52  131 1    
   106   53   54 2    
   107   53   55 1    
   108   55   56 1    
   109   55   59 1    
   110   55  132 1    
   111   56   57 1    
   112   56  133 1    
   113   56  134 1    
   114   57   58 1    
   115   58  135 1    
   116   58  136 1    
   117   59   60 am   BACKBONE|DICT|INTERRES
   118   59  137 1    
   119   60   61 2    
   120   60   62 1    
   121   62   63 1    
   122   62   64 1    
   123   62  138 1    
   124   63  139 1    
   125   63  140 1    
   126   63  141 1    
   127   64   65 am   BACKBONE|DICT|INTERRES
   128   64  142 1    
   129   65   66 2    
   130   65   67 1    
   131   67   68 1    
   132   67   69 1    
   133   67  143 1    
   134   68  144 1    
   135   68  145 1    
   136   68  146 1    
   137   69   70 am   BACKBONE|DICT|INTERRES
   138   69  147 1    
   139   70   71 2    
   140   70   72 1    
   141   72   73 1    
   142   72   74 1    
   143   72  148 1    
   144   73  149 1    
   145   73  150 1    
   146   73  151 1    
   147   74   75 am   BACKBONE|DICT|INTERRES
   148   74  152 1    
   149   75   76 2    
   150   75   77 1    
   151   77   78 1    
   152   77   79 1    
   153   77  153 1    
   154   78  154 1    
   155   78  155 1    
   156   78  156 1    
   157   79   80 am   BACKBONE|DICT|INTERRES
   158   79  157 1    
   159   80   81 2    
@<TRIPOS>SUBSTRUCTURE
     1 UNK         1 GROUP             0       ****    0 ROOT    
