@<TRIPOS>MOLECULE
3R207
157   159    1
SMALL
USER_CHARGES


@<TRIPOS>ATOM
      1 CA        -49.5688  -25.9499    3.3974 C.3       0 UNK        -0.1975 
      2 C         -49.9228  -25.8682    4.8743 C.2       0 UNK         0.4852 
      3 O         -49.0431  -26.0161    5.7219 O.2       0 UNK        -0.5216 
      4 N         -51.1997  -25.6087    5.1910 N.am      1 UNK        -0.4461 
      5 CA        -51.8022  -25.5231    6.5333 C.3       1 UNK         0.0864 
      6 C6        -51.6480  -26.8347    7.3550 C.3       14 UNK        -0.0898 
      7 S7        -53.1375  -27.2193    8.3407 S.3       14 UNK        -0.2598 
      8 C8        -53.7224  -28.7732    7.5793 C.3       14 UNK         0.0286 
      9 C9        -53.1616  -29.9968    8.2937 C.ar      14 UNK        -0.0844 
     10 C10       -51.8008  -30.3035    8.2085 C.ar      14 UNK        -0.0881 
     11 C11       -51.2626  -31.3674    8.9373 C.ar      14 UNK        -0.0643 
     12 C12       -52.1069  -32.1707    9.7068 C.ar      14 UNK        -0.0930 
     13 C13       -53.4761  -31.8985    9.7728 C.ar      14 UNK        -0.0827 
     14 C14       -53.9984  -30.8105    9.0651 C.ar      14 UNK        -0.1249 
     15 C15       -54.3792  -32.7684   10.6335 C.3       14 UNK         0.0141 
     16 S16       -54.2631  -32.3153   12.3937 S.3       14 UNK        -0.2313 
     17 C17       -55.1540  -30.7232   12.4203 C.3       14 UNK        -0.0915 
     18 CA        -54.2145  -29.4855   12.4080 C.3       13 UNK         0.0968 
     19 C         -55.0467  -28.1780   12.2740 C.2       13 UNK         0.5732 
     20 N         -54.9789  -27.2305   13.1999 N.am      13 UNK        -0.7310 
     21 O         -55.7865  -28.0243   11.3054 O.2       13 UNK        -0.5035 
     22 N         -53.2800  -29.5109   13.5438 N.am      13 UNK        -0.4233 
     23 C         -52.0434  -29.0006   13.5365 C.2       13 UNK         0.4989 
     24 O         -51.5433  -28.3923   12.5895 O.2       13 UNK        -0.4996 
     25 CA        -51.2596  -29.1699   14.8437 C.3       12 UNK         0.0216 
     26 CB        -49.7761  -28.7668   14.7271 C.3       12 UNK        -0.1964 
     27 N         -51.9223  -28.3548   15.8514 N.am      12 UNK        -0.4276 
     28 C         -51.9302  -28.5405   17.1733 C.2       12 UNK         0.5020 
     29 O         -51.3511  -29.4732   17.7334 O.2       12 UNK        -0.5489 
     30 CA        -52.7111  -27.4928   18.0026 C.3       11 UNK         0.0294 
     31 CB        -52.4245  -27.6018   19.5122 C.3       11 UNK        -0.2019 
     32 N         -52.4539  -26.1121   17.5673 N.am      11 UNK        -0.4493 
     33 C         -52.9240  -25.5484   16.4468 C.2       11 UNK         0.4932 
     34 O         -53.6801  -26.1322   15.6664 O.2       11 UNK        -0.5029 
     35 CA        -52.3791  -24.1546   16.1108 C.3       10 UNK         0.0280 
     36 CB        -50.9011  -24.2528   15.6916 C.3       10 UNK        -0.1976 
     37 N         -53.1341  -23.5589   15.0081 N.am      10 UNK        -0.4242 
     38 C         -54.0846  -22.6254   15.1514 C.2       10 UNK         0.5072 
     39 O         -54.4358  -22.1789   16.2455 O.2       10 UNK        -0.5224 
     40 CA        -54.7427  -22.0486   13.8818 C.3       9 UNK         0.0343 
     41 CB        -54.3440  -20.5742   13.6948 C.3       9 UNK        -0.2003 
     42 N         -54.4084  -22.7765   12.6570 N.am      9 UNK        -0.4272 
     43 C         -55.0469  -23.8686   12.2186 C.2       9 UNK         0.4988 
     44 O         -56.0051  -24.3860   12.7943 O.2       9 UNK        -0.5108 
     45 CA        -54.5209  -24.5004   10.9176 C.3       8 UNK         0.0248 
     46 CB        -55.2295  -23.8888    9.6986 C.3       8 UNK        -0.2001 
     47 N         -53.0691  -24.4179   10.7247 N.am      8 UNK        -0.4140 
     48 C         -52.1394  -24.8588   11.5830 C.2       8 UNK         0.5028 
     49 O         -52.3754  -25.2625   12.7218 O.2       8 UNK        -0.5428 
     50 CA        -50.6906  -24.8118   11.1049 C.3       7 UNK         0.0264 
     51 CB        -49.8931  -23.7022   11.8120 C.3       7 UNK        -0.1988 
     52 N         -50.0803  -26.1150   11.3394 N.am      7 UNK        -0.4454 
     53 C         -49.0913  -26.6191   10.5972 C.2       7 UNK         0.5027 
     54 O         -48.5927  -26.0333    9.6330 O.2       7 UNK        -0.5083 
     55 CA        -48.6153  -28.0374   10.9330 C.3       6 UNK         0.0844 
     56 C56       -49.3461  -29.0499   10.0177 C.3       14 UNK        -0.0967 
     57 S57       -48.9547  -30.8001   10.3541 S.3       14 UNK        -0.2604 
     58 C58       -49.7611  -31.6128    8.9348 C.3       14 UNK         0.0134 
     59 N         -47.1636  -28.0663   10.7649 N.am      6 UNK        -0.4116 
     60 C         -46.2994  -28.7021   11.5646 C.2       5 UNK         0.5034 
     61 O         -46.6182  -29.3210   12.5803 O.2       5 UNK        -0.5045 
     62 CA        -44.8193  -28.6517   11.1538 C.3       5 UNK         0.0224 
     63 CB        -44.5467  -29.6233    9.9927 C.3       5 UNK        -0.1978 
     64 N         -44.3773  -27.3064   10.7800 N.am      5 UNK        -0.4737 
     65 C         -44.0821  -26.3362   11.6574 C.2       4 UNK         0.5027 
     66 O         -44.1523  -26.4725   12.8788 O.2       4 UNK        -0.5211 
     67 CA        -43.6134  -24.9894   11.0744 C.3       4 UNK         0.0297 
     68 CB        -42.0825  -24.9676   10.9345 C.3       4 UNK        -0.1993 
     69 N         -44.2270  -24.6875    9.7772 N.am      4 UNK        -0.4486 
     70 C         -45.5180  -24.3670    9.6232 C.2       3 UNK         0.4961 
     71 O         -46.2887  -24.1969   10.5704 O.2       3 UNK        -0.5105 
     72 CA        -46.0171  -24.2298    8.1753 C.3       3 UNK         0.0299 
     73 CB        -45.8224  -25.5417    7.3907 C.3       3 UNK        -0.1972 
     74 N         -47.4430  -23.9124    8.1748 N.am      3 UNK        -0.4305 
     75 C         -47.9929  -22.7770    7.7338 C.2       2 UNK         0.5006 
     76 O         -47.3511  -21.8581    7.2205 O.2       2 UNK        -0.5106 
     77 CA        -49.5216  -22.6762    7.8516 C.3       2 UNK         0.0296 
     78 CB        -50.0889  -21.3647    7.2666 C.3       2 UNK        -0.2002 
     79 N         -50.1233  -23.8356    7.1956 N.am      2 UNK        -0.4032 
     80 C         -51.3752  -24.2789    7.3483 C.2       1 UNK         0.5000 
     81 O         -52.1930  -23.7422    8.0986 O.2       1 UNK        -0.5238 
     82 H82       -49.1538  -26.9306    3.1667 H         1 UNK         0.0889 
     83 H83       -48.8215  -25.1967    3.1491 H         1 UNK         0.0889 
     84 H84       -50.4376  -25.7902    2.7591 H         1 UNK         0.0889 
     85 H85       -51.8543  -25.4590    4.4350 H         1 UNK         0.3028 
     86 H86       -52.8641  -25.3803    6.3251 H         1 UNK         0.0864 
     87 H87       -50.7794  -26.7995    8.0147 H         1 UNK         0.0720 
     88 H88       -51.4583  -27.6680    6.6793 H         1 UNK         0.0720 
     89 H89       -53.4669  -28.8054    6.5195 H         1 UNK         0.0814 
     90 H90       -54.8125  -28.7807    7.6239 H         1 UNK         0.0814 
     91 H91       -51.1448  -29.6821    7.6177 H         1 UNK         0.1469 
     92 H92       -51.6936  -32.9905   10.2784 H         1 UNK         0.1381 
     93 H93       -55.0529  -30.5815    9.1373 H         1 UNK         0.1206 
     94 H94       -54.0900  -33.8142   10.5205 H         1 UNK         0.0813 
     95 H95       -55.4161  -32.7042   10.3001 H         1 UNK         0.0813 
     96 H96       -55.8422  -30.6969   11.5736 H         1 UNK         0.0638 
     97 H97       -55.7818  -30.7078   13.3129 H         1 UNK         0.0638 
     98 H98       -53.6174  -29.5349   11.4964 H         1 UNK         0.0568 
     99 H99       -54.3470  -27.2863   13.9847 H         1 UNK         0.3450 
    100 H100      -55.5192  -26.3848   13.0747 H         1 UNK         0.3450 
    101 H101      -53.6160  -29.9681   14.3780 H         1 UNK         0.2987 
    102 H102      -51.3144  -30.2218   15.1324 H         1 UNK         0.0766 
    103 H103      -49.2524  -28.9014   15.6736 H         1 UNK         0.0798 
    104 H104      -49.6612  -27.7241   14.4280 H         1 UNK         0.0798 
    105 H105      -49.2648  -29.3843   13.9878 H         1 UNK         0.0798 
    106 H106      -52.4622  -27.5669   15.4994 H         1 UNK         0.3198 
    107 H107      -53.7721  -27.7050   17.8527 H         1 UNK         0.0843 
    108 H108      -51.3719  -27.4248   19.7365 H         1 UNK         0.0831 
    109 H109      -52.6754  -28.5947   19.8881 H         1 UNK         0.0831 
    110 H110      -53.0162  -26.8855   20.0826 H         1 UNK         0.0831 
    111 H111      -51.8043  -25.5832   18.1321 H         1 UNK         0.3133 
    112 H112      -52.4469  -23.5302   17.0039 H         1 UNK         0.0566 
    113 H113      -50.5128  -23.2843   15.3762 H         1 UNK         0.0814 
    114 H114      -50.2758  -24.5955   16.5167 H         1 UNK         0.0814 
    115 H115      -50.7615  -24.9544   14.8679 H         1 UNK         0.0814 
    116 H116      -52.9834  -23.9872   14.0979 H         1 UNK         0.3091 
    117 H117      -55.8236  -22.0883   14.0336 H         1 UNK         0.0702 
    118 H118      -54.6173  -19.9802   14.5682 H         1 UNK         0.0785 
    119 H119      -53.2689  -20.4620   13.5483 H         1 UNK         0.0785 
    120 H120      -54.8491  -20.1322   12.8357 H         1 UNK         0.0785 
    121 H121      -53.6241  -22.4343   12.1213 H         1 UNK         0.2998 
    122 H122      -54.7699  -25.5605   10.9449 H         1 UNK         0.0697 
    123 H123      -54.9729  -22.8368    9.5681 H         1 UNK         0.0825 
    124 H124      -56.3135  -23.9534    9.8019 H         1 UNK         0.0825 
    125 H125      -54.9611  -24.4149    8.7819 H         1 UNK         0.0825 
    126 H126      -52.7665  -24.1060    9.8026 H         1 UNK         0.3029 
    127 H127      -50.6879  -24.6139   10.0358 H         1 UNK         0.0897 
    128 H128      -48.8787  -23.6331   11.4187 H         1 UNK         0.0792 
    129 H129      -49.8224  -23.8789   12.8850 H         1 UNK         0.0792 
    130 H130      -50.3639  -22.7290   11.6686 H         1 UNK         0.0792 
    131 H131      -50.5500  -26.7010   12.0278 H         1 UNK         0.3086 
    132 H132      -48.8693  -28.2419   11.9734 H         1 UNK         0.0583 
    133 H133      -50.4249  -28.9291   10.1384 H         1 UNK         0.1020 
    134 H134      -49.1269  -28.8410    8.9684 H         1 UNK         0.1020 
    135 H135      -49.3139  -31.2535    8.0066 H         1 UNK         0.0694 
    136 H136      -49.5602  -32.6843    8.9773 H         1 UNK         0.0694 
    137 H137      -46.8180  -27.5102    9.9964 H         1 UNK         0.2989 
    138 H138      -44.2302  -28.9831   12.0125 H         1 UNK         0.1055 
    139 H139      -44.8626  -30.6353   10.2507 H         1 UNK         0.0806 
    140 H140      -43.4838  -29.6686    9.7549 H         1 UNK         0.0806 
    141 H141      -45.0822  -29.3379    9.0863 H         1 UNK         0.0806 
    142 H142      -44.2750  -27.1097    9.7956 H         1 UNK         0.3061 
    143 H143      -43.9003  -24.2065   11.7803 H         1 UNK         0.0734 
    144 H144      -41.7282  -23.9951   10.5921 H         1 UNK         0.0832 
    145 H145      -41.6019  -25.1655   11.8937 H         1 UNK         0.0832 
    146 H146      -41.7277  -25.7226   10.2318 H         1 UNK         0.0832 
    147 H147      -43.6409  -24.7775    8.9594 H         1 UNK         0.3156 
    148 H148      -45.4403  -23.4376    7.6942 H         1 UNK         0.0589 
    149 H149      -46.3313  -26.3785    7.8709 H         1 UNK         0.0808 
    150 H150      -46.2220  -25.4549    6.3798 H         1 UNK         0.0808 
    151 H151      -44.7689  -25.8046    7.2937 H         1 UNK         0.0808 
    152 H152      -48.0220  -24.5983    8.6604 H         1 UNK         0.3098 
    153 H153      -49.7599  -22.7089    8.9158 H         1 UNK         0.0720 
    154 H154      -51.1638  -21.2844    7.4278 H         1 UNK         0.0791 
    155 H155      -49.9049  -21.2922    6.1941 H         1 UNK         0.0791 
    156 H156      -49.6301  -20.4950    7.7386 H         1 UNK         0.0791 
    157 H157      -49.5015  -24.4003    6.6199 H         1 UNK         0.3028 
@<TRIPOS>BOND
     1    1    2 1    
     2    1   82 1    
     3    1   83 1    
     4    1   84 1    
     5    2    3 2    
     6    2    4 am   BACKBONE|DICT|INTERRES
     7    4    5 1    
     8    4   85 1    
     9    5    6 1    
    10    5   80 1    
    11    5   86 1    
    12    6    7 1    
    13    6   87 1    
    14    6   88 1    
    15    7    8 1    
    16    8    9 1    
    17    8   89 1    
    18    8   90 1    
    19    9   10 ar   
    20    9   14 ar   
    21   10   11 ar   
    22   10   91 1    
    23   11   12 ar   
    24   11   58 1    
    25   12   13 ar   
    26   12   92 1    
    27   13   14 ar   
    28   13   15 1    
    29   14   93 1    
    30   15   16 1    
    31   15   94 1    
    32   15   95 1    
    33   16   17 1    
    34   17   18 1    
    35   17   96 1    
    36   17   97 1    
    37   18   19 1    
    38   18   22 1    
    39   18   98 1    
    40   19   20 am   BACKBONE|DICT|INTERRES
    41   19   21 2    
    42   20   99 1    
    43   20  100 1    
    44   22   23 am   BACKBONE|DICT|INTERRES
    45   22  101 1    
    46   23   24 2    
    47   23   25 1    
    48   25   26 1    
    49   25   27 1    
    50   25  102 1    
    51   26  103 1    
    52   26  104 1    
    53   26  105 1    
    54   27   28 am   BACKBONE|DICT|INTERRES
    55   27  106 1    
    56   28   29 2    
    57   28   30 1    
    58   30   31 1    
    59   30   32 1    
    60   30  107 1    
    61   31  108 1    
    62   31  109 1    
    63   31  110 1    
    64   32   33 am   BACKBONE|DICT|INTERRES
    65   32  111 1    
    66   33   34 2    
    67   33   35 1    
    68   35   36 1    
    69   35   37 1    
    70   35  112 1    
    71   36  113 1    
    72   36  114 1    
    73   36  115 1    
    74   37   38 am   BACKBONE|DICT|INTERRES
    75   37  116 1    
    76   38   39 2    
    77   38   40 1    
    78   40   41 1    
    79   40   42 1    
    80   40  117 1    
    81   41  118 1    
    82   41  119 1    
    83   41  120 1    
    84   42   43 am   BACKBONE|DICT|INTERRES
    85   42  121 1    
    86   43   44 2    
    87   43   45 1    
    88   45   46 1    
    89   45   47 1    
    90   45  122 1    
    91   46  123 1    
    92   46  124 1    
    93   46  125 1    
    94   47   48 am   BACKBONE|DICT|INTERRES
    95   47  126 1    
    96   48   49 2    
    97   48   50 1    
    98   50   51 1    
    99   50   52 1    
   100   50  127 1    
   101   51  128 1    
   102   51  129 1    
   103   51  130 1    
   104   52   53 am   BACKBONE|DICT|INTERRES
   105   52  131 1    
   106   53   54 2    
   107   53   55 1    
   108   55   56 1    
   109   55   59 1    
   110   55  132 1    
   111   56   57 1    
   112   56  133 1    
   113   56  134 1    
   114   57   58 1    
   115   58  135 1    
   116   58  136 1    
   117   59   60 am   BACKBONE|DICT|INTERRES
   118   59  137 1    
   119   60   61 2    
   120   60   62 1    
   121   62   63 1    
   122   62   64 1    
   123   62  138 1    
   124   63  139 1    
   125   63  140 1    
   126   63  141 1    
   127   64   65 am   BACKBONE|DICT|INTERRES
   128   64  142 1    
   129   65   66 2    
   130   65   67 1    
   131   67   68 1    
   132   67   69 1    
   133   67  143 1    
   134   68  144 1    
   135   68  145 1    
   136   68  146 1    
   137   69   70 am   BACKBONE|DICT|INTERRES
   138   69  147 1    
   139   70   71 2    
   140   70   72 1    
   141   72   73 1    
   142   72   74 1    
   143   72  148 1    
   144   73  149 1    
   145   73  150 1    
   146   73  151 1    
   147   74   75 am   BACKBONE|DICT|INTERRES
   148   74  152 1    
   149   75   76 2    
   150   75   77 1    
   151   77   78 1    
   152   77   79 1    
   153   77  153 1    
   154   78  154 1    
   155   78  155 1    
   156   78  156 1    
   157   79   80 am   BACKBONE|DICT|INTERRES
   158   79  157 1    
   159   80   81 2    
@<TRIPOS>SUBSTRUCTURE
     1 UNK         1 GROUP             0       ****    0 ROOT    
