@<TRIPOS>MOLECULE
3R207
157   159    1
SMALL
USER_CHARGES


@<TRIPOS>ATOM
      1 CA        -45.8592  -30.9297   11.1078 C.3       0 UNK        -0.1975 
      2 C         -45.6072  -30.3551    9.7216 C.2       0 UNK         0.4852 
      3 O         -45.3582  -31.1129    8.7834 O.2       0 UNK        -0.5216 
      4 N         -45.6660  -29.0246    9.5928 N.am      1 UNK        -0.4461 
      5 CA        -45.4247  -28.2837    8.3482 C.3       1 UNK         0.0864 
      6 C6        -46.4832  -28.5266    7.2381 C.3       14 UNK        -0.0898 
      7 S7        -48.1956  -28.1289    7.7297 S.3       14 UNK        -0.2598 
      8 C8        -48.9380  -29.7887    7.7554 C.3       14 UNK         0.0286 
      9 C9        -50.3928  -29.7307    8.1906 C.ar      14 UNK        -0.0844 
     10 C10       -51.3965  -29.4671    7.2551 C.ar      14 UNK        -0.0881 
     11 C11       -52.7353  -29.4004    7.6519 C.ar      14 UNK        -0.0643 
     12 C12       -53.0688  -29.6194    8.9925 C.ar      14 UNK        -0.0930 
     13 C13       -52.0721  -29.8768    9.9386 C.ar      14 UNK        -0.0827 
     14 C14       -50.7365  -29.9367    9.5293 C.ar      14 UNK        -0.1249 
     15 C15       -52.4342  -30.0896   11.4009 C.3       14 UNK         0.0141 
     16 S16       -52.9664  -28.5367   12.1884 S.3       14 UNK        -0.2313 
     17 C17       -54.7591  -28.8264   12.3755 C.3       14 UNK        -0.0915 
     18 CA        -55.5779  -27.5264   12.6008 C.3       13 UNK         0.0968 
     19 C         -57.1019  -27.8391   12.6962 C.2       13 UNK         0.5732 
     20 N         -57.7884  -27.5426   13.7952 N.am      13 UNK        -0.7310 
     21 O         -57.6772  -28.3631   11.7453 O.2       13 UNK        -0.5035 
     22 N         -55.0434  -26.7393   13.7208 N.am      13 UNK        -0.4233 
     23 C         -55.3096  -25.4497   13.9618 C.2       13 UNK         0.4989 
     24 O         -55.9995  -24.7370   13.2317 O.2       13 UNK        -0.4996 
     25 CA        -54.7061  -24.8809   15.2597 C.3       12 UNK         0.0216 
     26 CB        -55.3227  -23.5279   15.6736 C.3       12 UNK        -0.1964 
     27 N         -54.7560  -25.8435   16.3695 N.am      12 UNK        -0.4276 
     28 C         -55.8499  -26.4120   16.9061 C.2       12 UNK         0.5020 
     29 O         -56.9934  -26.1862   16.5069 O.2       12 UNK        -0.5489 
     30 CA        -55.6573  -27.4455   18.0375 C.3       11 UNK         0.0294 
     31 CB        -56.2802  -28.7971   17.6438 C.3       11 UNK        -0.2019 
     32 N         -54.2575  -27.6710   18.4044 N.am      11 UNK        -0.4493 
     33 C         -53.4927  -26.8420   19.1283 C.2       11 UNK         0.4932 
     34 O         -53.9150  -25.8227   19.6733 O.2       11 UNK        -0.5029 
     35 CA        -51.9921  -27.1865   19.2229 C.3       10 UNK         0.0280 
     36 CB        -51.6802  -27.8527   20.5727 C.3       10 UNK        -0.1976 
     37 N         -51.4962  -28.0423   18.1339 N.am      10 UNK        -0.4242 
     38 C         -51.5181  -27.7297   16.8300 C.2       10 UNK         0.5072 
     39 O         -51.9843  -26.6782   16.3843 O.2       10 UNK        -0.5224 
     40 CA        -51.0321  -28.8187   15.8631 C.3       9 UNK         0.0343 
     41 CB        -52.1760  -29.8008   15.5564 C.3       9 UNK        -0.2003 
     42 N         -50.5598  -28.2344   14.6084 N.am      9 UNK        -0.4272 
     43 C         -49.3470  -27.6931   14.4337 C.2       9 UNK         0.4988 
     44 O         -48.4720  -27.6757   15.3005 O.2       9 UNK        -0.5108 
     45 CA        -49.0465  -27.0875   13.0521 C.3       8 UNK         0.0248 
     46 CB        -48.4838  -28.1625   12.1092 C.3       8 UNK        -0.2001 
     47 N         -50.2173  -26.4632   12.4314 N.am      8 UNK        -0.4140 
     48 C         -50.7198  -25.2742   12.7950 C.2       8 UNK         0.5028 
     49 O         -50.2330  -24.5745   13.6842 O.2       8 UNK        -0.5428 
     50 CA        -51.9544  -24.7771   12.0242 C.3       7 UNK         0.0264 
     51 CB        -52.1220  -23.2448   12.0722 C.3       7 UNK        -0.1988 
     52 N         -51.9313  -25.2418   10.6375 N.am      7 UNK        -0.4454 
     53 C         -53.0058  -25.4523    9.8700 C.2       7 UNK         0.5027 
     54 O         -54.1580  -25.2116   10.2313 O.2       7 UNK        -0.5083 
     55 CA        -52.7420  -26.0070    8.4535 C.3       6 UNK         0.0844 
     56 C56       -54.0506  -26.4626    7.7521 C.3       14 UNK        -0.0967 
     57 S57       -53.7411  -27.2952    6.1566 S.3       14 UNK        -0.2604 
     58 C58       -53.8138  -29.0525    6.6369 C.3       14 UNK         0.0134 
     59 N         -51.9867  -25.0524    7.6359 N.am      6 UNK        -0.4116 
     60 C         -50.6785  -24.7954    7.7522 C.2       5 UNK         0.5034 
     61 O         -49.9533  -25.3050    8.6104 O.2       5 UNK        -0.5045 
     62 CA        -50.1052  -23.7538    6.7849 C.3       5 UNK         0.0224 
     63 CB        -50.1362  -22.3584    7.4303 C.3       5 UNK        -0.1978 
     64 N         -48.7207  -24.0901    6.4595 N.am      5 UNK        -0.4737 
     65 C         -48.3030  -24.5715    5.2806 C.2       4 UNK         0.5027 
     66 O         -49.0607  -24.7750    4.3303 O.2       4 UNK        -0.5211 
     67 CA        -46.7967  -24.8852    5.1225 C.3       4 UNK         0.0297 
     68 CB        -46.3038  -24.7199    3.6692 C.3       4 UNK        -0.1993 
     69 N         -45.9289  -24.1531    6.0534 N.am      4 UNK        -0.4486 
     70 C         -45.8006  -22.8214    6.1757 C.2       3 UNK         0.4961 
     71 O         -46.3074  -22.0085    5.4010 O.2       3 UNK        -0.5105 
     72 CA        -44.9903  -22.3136    7.3901 C.3       3 UNK         0.0299 
     73 CB        -45.4781  -20.9344    7.8829 C.3       3 UNK        -0.1972 
     74 N         -44.9401  -23.2689    8.5084 N.am      3 UNK        -0.4305 
     75 C         -45.9821  -23.8021    9.1656 C.2       2 UNK         0.5006 
     76 O         -47.1588  -23.5210    8.9391 O.2       2 UNK        -0.5106 
     77 CA        -45.6482  -24.8855   10.2040 C.3       2 UNK         0.0296 
     78 CB        -46.5033  -24.7217   11.4726 C.3       2 UNK        -0.2002 
     79 N         -45.8328  -26.2430    9.6783 N.am      2 UNK        -0.4032 
     80 C         -45.1957  -26.7844    8.6255 C.2       1 UNK         0.5000 
     81 O         -44.4209  -26.1579    7.9000 O.2       1 UNK        -0.5238 
     82 H82       -45.1442  -31.7237   11.3223 H         1 UNK         0.0889 
     83 H83       -46.8628  -31.3509   11.1616 H         1 UNK         0.0889 
     84 H84       -45.7610  -30.1737   11.8861 H         1 UNK         0.0889 
     85 H85       -45.7944  -28.4607   10.4190 H         1 UNK         0.3028 
     86 H86       -44.4703  -28.6473    7.9603 H         1 UNK         0.0864 
     87 H87       -46.4378  -29.5656    6.9102 H         1 UNK         0.0720 
     88 H88       -46.2356  -27.9480    6.3483 H         1 UNK         0.0720 
     89 H89       -48.3688  -30.4324    8.4275 H         1 UNK         0.0814 
     90 H90       -48.8642  -30.2358    6.7629 H         1 UNK         0.0814 
     91 H91       -51.1346  -29.2879    6.2211 H         1 UNK         0.1469 
     92 H92       -54.1019  -29.5650    9.3058 H         1 UNK         0.1381 
     93 H93       -49.9592  -30.1454   10.2496 H         1 UNK         0.1206 
     94 H94       -51.5777  -30.4789   11.9533 H         1 UNK         0.0813 
     95 H95       -53.2124  -30.8498   11.4818 H         1 UNK         0.0813 
     96 H96       -54.9048  -29.5180   13.2072 H         1 UNK         0.0638 
     97 H97       -55.1179  -29.3406   11.4824 H         1 UNK         0.0638 
     98 H98       -55.4665  -26.9164   11.7042 H         1 UNK         0.0568 
     99 H99       -58.7726  -27.7546   13.8256 H         1 UNK         0.3450 
    100 H100      -57.3526  -27.0786   14.5822 H         1 UNK         0.3450 
    101 H101      -54.4714  -27.2438   14.3795 H         1 UNK         0.2987 
    102 H102      -53.6484  -24.7101   15.0522 H         1 UNK         0.0766 
    103 H103      -56.3965  -23.6075   15.8460 H         1 UNK         0.0798 
    104 H104      -55.1729  -22.7766   14.8972 H         1 UNK         0.0798 
    105 H105      -54.8637  -23.1461   16.5856 H         1 UNK         0.0798 
    106 H106      -53.8441  -26.1354   16.7121 H         1 UNK         0.3198 
    107 H107      -56.1875  -27.0643   18.9128 H         1 UNK         0.0843 
    108 H108      -55.8057  -29.2191   16.7570 H         1 UNK         0.0831 
    109 H109      -57.3433  -28.6904   17.4227 H         1 UNK         0.0831 
    110 H110      -56.1947  -29.5249   18.4510 H         1 UNK         0.0831 
    111 H111      -53.8187  -28.4929   18.0169 H         1 UNK         0.3133 
    112 H112      -51.4425  -26.2443   19.1723 H         1 UNK         0.0566 
    113 H113      -52.1811  -28.8164   20.6737 H         1 UNK         0.0814 
    114 H114      -52.0100  -27.2263   21.4030 H         1 UNK         0.0814 
    115 H115      -50.6094  -28.0142   20.6992 H         1 UNK         0.0814 
    116 H116      -51.1126  -28.9363   18.4075 H         1 UNK         0.3091 
    117 H117      -50.2120  -29.3695   16.3291 H         1 UNK         0.0702 
    118 H118      -51.8678  -30.5552   14.8321 H         1 UNK         0.0785 
    119 H119      -53.0526  -29.2915   15.1549 H         1 UNK         0.0785 
    120 H120      -52.4917  -30.3305   16.4559 H         1 UNK         0.0785 
    121 H121      -51.2325  -28.1701   13.8577 H         1 UNK         0.2998 
    122 H122      -48.2838  -26.3192   13.1894 H         1 UNK         0.0697 
    123 H123      -48.3278  -27.7760   11.1020 H         1 UNK         0.0825 
    124 H124      -49.1527  -29.0198   12.0401 H         1 UNK         0.0825 
    125 H125      -47.5257  -28.5304   12.4767 H         1 UNK         0.0825 
    126 H126      -50.6899  -26.9883   11.7090 H         1 UNK         0.3029 
    127 H127      -52.8125  -25.2309   12.5206 H         1 UNK         0.0897 
    128 H128      -51.2832  -22.7370   11.5949 H         1 UNK         0.0792 
    129 H129      -52.1830  -22.8867   13.1007 H         1 UNK         0.0792 
    130 H130      -53.0366  -22.9282   11.5705 H         1 UNK         0.0792 
    131 H131      -51.0164  -25.3819   10.2114 H         1 UNK         0.3086 
    132 H132      -52.1148  -26.8893    8.5907 H         1 UNK         0.0583 
    133 H133      -54.6197  -27.1356    8.3966 H         1 UNK         0.1020 
    134 H134      -54.7035  -25.6069    7.5697 H         1 UNK         0.1020 
    135 H135      -54.8067  -29.2805    7.0279 H         1 UNK         0.0694 
    136 H136      -53.6856  -29.6694    5.7464 H         1 UNK         0.0694 
    137 H137      -52.5181  -24.5719    6.9251 H         1 UNK         0.2989 
    138 H138      -50.7170  -23.7329    5.8802 H         1 UNK         0.1055 
    139 H139      -49.5688  -22.3321    8.3619 H         1 UNK         0.0806 
    140 H140      -51.1579  -22.0547    7.6620 H         1 UNK         0.0806 
    141 H141      -49.7158  -21.6051    6.7636 H         1 UNK         0.0806 
    142 H142      -48.0628  -24.0004    7.2299 H         1 UNK         0.3061 
    143 H143      -46.6909  -25.9373    5.3828 H         1 UNK         0.0734 
    144 H144      -46.4479  -23.7018    3.3065 H         1 UNK         0.0832 
    145 H145      -45.2452  -24.9628    3.5785 H         1 UNK         0.0832 
    146 H146      -46.8449  -25.3836    2.9937 H         1 UNK         0.0832 
    147 H147      -45.4415  -24.7272    6.7344 H         1 UNK         0.3156 
    148 H148      -43.9633  -22.1979    7.0409 H         1 UNK         0.0589 
    149 H149      -44.8938  -20.5870    8.7348 H         1 UNK         0.0808 
    150 H150      -45.3839  -20.1811    7.0997 H         1 UNK         0.0808 
    151 H151      -46.5264  -20.9611    8.1829 H         1 UNK         0.0808 
    152 H152      -44.0183  -23.6208    8.7317 H         1 UNK         0.3098 
    153 H153      -44.6003  -24.7786   10.4918 H         1 UNK         0.0720 
    154 H154      -47.5639  -24.8777   11.2681 H         1 UNK         0.0791 
    155 H155      -46.3984  -23.7182   11.8871 H         1 UNK         0.0791 
    156 H156      -46.1999  -25.4239   12.2491 H         1 UNK         0.0791 
    157 H157      -46.5596  -26.7836   10.1193 H         1 UNK         0.3028 
@<TRIPOS>BOND
     1    1    2 1    
     2    1   82 1    
     3    1   83 1    
     4    1   84 1    
     5    2    3 2    
     6    2    4 am   BACKBONE|DICT|INTERRES
     7    4    5 1    
     8    4   85 1    
     9    5    6 1    
    10    5   80 1    
    11    5   86 1    
    12    6    7 1    
    13    6   87 1    
    14    6   88 1    
    15    7    8 1    
    16    8    9 1    
    17    8   89 1    
    18    8   90 1    
    19    9   10 ar   
    20    9   14 ar   
    21   10   11 ar   
    22   10   91 1    
    23   11   12 ar   
    24   11   58 1    
    25   12   13 ar   
    26   12   92 1    
    27   13   14 ar   
    28   13   15 1    
    29   14   93 1    
    30   15   16 1    
    31   15   94 1    
    32   15   95 1    
    33   16   17 1    
    34   17   18 1    
    35   17   96 1    
    36   17   97 1    
    37   18   19 1    
    38   18   22 1    
    39   18   98 1    
    40   19   20 am   BACKBONE|DICT|INTERRES
    41   19   21 2    
    42   20   99 1    
    43   20  100 1    
    44   22   23 am   BACKBONE|DICT|INTERRES
    45   22  101 1    
    46   23   24 2    
    47   23   25 1    
    48   25   26 1    
    49   25   27 1    
    50   25  102 1    
    51   26  103 1    
    52   26  104 1    
    53   26  105 1    
    54   27   28 am   BACKBONE|DICT|INTERRES
    55   27  106 1    
    56   28   29 2    
    57   28   30 1    
    58   30   31 1    
    59   30   32 1    
    60   30  107 1    
    61   31  108 1    
    62   31  109 1    
    63   31  110 1    
    64   32   33 am   BACKBONE|DICT|INTERRES
    65   32  111 1    
    66   33   34 2    
    67   33   35 1    
    68   35   36 1    
    69   35   37 1    
    70   35  112 1    
    71   36  113 1    
    72   36  114 1    
    73   36  115 1    
    74   37   38 am   BACKBONE|DICT|INTERRES
    75   37  116 1    
    76   38   39 2    
    77   38   40 1    
    78   40   41 1    
    79   40   42 1    
    80   40  117 1    
    81   41  118 1    
    82   41  119 1    
    83   41  120 1    
    84   42   43 am   BACKBONE|DICT|INTERRES
    85   42  121 1    
    86   43   44 2    
    87   43   45 1    
    88   45   46 1    
    89   45   47 1    
    90   45  122 1    
    91   46  123 1    
    92   46  124 1    
    93   46  125 1    
    94   47   48 am   BACKBONE|DICT|INTERRES
    95   47  126 1    
    96   48   49 2    
    97   48   50 1    
    98   50   51 1    
    99   50   52 1    
   100   50  127 1    
   101   51  128 1    
   102   51  129 1    
   103   51  130 1    
   104   52   53 am   BACKBONE|DICT|INTERRES
   105   52  131 1    
   106   53   54 2    
   107   53   55 1    
   108   55   56 1    
   109   55   59 1    
   110   55  132 1    
   111   56   57 1    
   112   56  133 1    
   113   56  134 1    
   114   57   58 1    
   115   58  135 1    
   116   58  136 1    
   117   59   60 am   BACKBONE|DICT|INTERRES
   118   59  137 1    
   119   60   61 2    
   120   60   62 1    
   121   62   63 1    
   122   62   64 1    
   123   62  138 1    
   124   63  139 1    
   125   63  140 1    
   126   63  141 1    
   127   64   65 am   BACKBONE|DICT|INTERRES
   128   64  142 1    
   129   65   66 2    
   130   65   67 1    
   131   67   68 1    
   132   67   69 1    
   133   67  143 1    
   134   68  144 1    
   135   68  145 1    
   136   68  146 1    
   137   69   70 am   BACKBONE|DICT|INTERRES
   138   69  147 1    
   139   70   71 2    
   140   70   72 1    
   141   72   73 1    
   142   72   74 1    
   143   72  148 1    
   144   73  149 1    
   145   73  150 1    
   146   73  151 1    
   147   74   75 am   BACKBONE|DICT|INTERRES
   148   74  152 1    
   149   75   76 2    
   150   75   77 1    
   151   77   78 1    
   152   77   79 1    
   153   77  153 1    
   154   78  154 1    
   155   78  155 1    
   156   78  156 1    
   157   79   80 am   BACKBONE|DICT|INTERRES
   158   79  157 1    
   159   80   81 2    
@<TRIPOS>SUBSTRUCTURE
     1 UNK         1 GROUP             0       ****    0 ROOT    
