@<TRIPOS>MOLECULE
3R207
157   159    1
SMALL
USER_CHARGES


@<TRIPOS>ATOM
      1 CA        -47.4984  -29.2375    2.5575 C.3       0 UNK        -0.1975 
      2 C         -48.7568  -29.0686    3.3960 C.2       0 UNK         0.4852 
      3 O         -49.8310  -28.8259    2.8446 O.2       0 UNK        -0.5216 
      4 N         -48.6313  -29.1948    4.7243 N.am      1 UNK        -0.4461 
      5 CA        -49.7331  -29.0775    5.6914 C.3       1 UNK         0.0864 
      6 C6        -49.3393  -29.6261    7.0847 C.3       14 UNK        -0.0898 
      7 S7        -48.7840  -31.3652    7.0239 S.3       14 UNK        -0.2598 
      8 C8        -50.1541  -32.2395    7.8554 C.3       14 UNK         0.0286 
      9 C9        -50.3380  -31.8099    9.3069 C.ar      14 UNK        -0.0844 
     10 C10       -49.2523  -31.7949   10.1873 C.ar      14 UNK        -0.0881 
     11 C11       -49.4041  -31.3514   11.5048 C.ar      14 UNK        -0.0643 
     12 C12       -50.6712  -30.9604   11.9528 C.ar      14 UNK        -0.0930 
     13 C13       -51.7746  -31.0084   11.0935 C.ar      14 UNK        -0.0827 
     14 C14       -51.5993  -31.4266    9.7711 C.ar      14 UNK        -0.1249 
     15 C15       -53.1604  -30.6195   11.5874 C.3       14 UNK         0.0141 
     16 S16       -53.6164  -28.9610   11.0075 S.3       14 UNK        -0.2313 
     17 C17       -55.2580  -28.7528   11.7704 C.3       14 UNK        -0.0915 
     18 CA        -55.8985  -27.3878   11.4035 C.3       13 UNK         0.0968 
     19 C         -57.3647  -27.2790   11.9185 C.2       13 UNK         0.5732 
     20 N         -57.7419  -26.2628   12.6872 N.am      13 UNK        -0.7310 
     21 O         -58.1901  -28.1300   11.5942 O.2       13 UNK        -0.5035 
     22 N         -55.0400  -26.2650   11.8054 N.am      13 UNK        -0.4233 
     23 C         -55.0093  -25.0689   11.2072 C.2       13 UNK         0.4989 
     24 O         -55.6453  -24.7946   10.1879 O.2       13 UNK        -0.4996 
     25 CA        -54.1205  -24.0017   11.8748 C.3       12 UNK         0.0216 
     26 CB        -54.4752  -22.5617   11.4457 C.3       12 UNK        -0.1964 
     27 N         -54.0933  -24.1245   13.3391 N.am      12 UNK        -0.4276 
     28 C         -55.1309  -24.0106   14.1819 C.2       12 UNK         0.5020 
     29 O         -56.2866  -23.7817   13.8187 O.2       12 UNK        -0.5489 
     30 CA        -54.8193  -24.2190   15.6766 C.3       11 UNK         0.0294 
     31 CB        -56.0881  -24.2625   16.5553 C.3       11 UNK        -0.2019 
     32 N         -53.9735  -25.3913   15.9317 N.am      11 UNK        -0.4493 
     33 C         -54.2425  -26.6756   15.6417 C.2       11 UNK         0.4932 
     34 O         -55.2699  -27.0465   15.0742 O.2       11 UNK        -0.5029 
     35 CA        -53.1835  -27.7244   16.0387 C.3       10 UNK         0.0280 
     36 CB        -53.0668  -28.8439   14.9896 C.3       10 UNK        -0.1976 
     37 N         -51.8662  -27.1143   16.2144 N.am      10 UNK        -0.4242 
     38 C         -51.2873  -26.8100   17.3835 C.2       10 UNK         0.5072 
     39 O         -51.7848  -27.0630   18.4810 O.2       10 UNK        -0.5224 
     40 CA        -49.9337  -26.0769   17.3263 C.3       9 UNK         0.0343 
     41 CB        -48.7839  -27.0329   17.6835 C.3       9 UNK        -0.2003 
     42 N         -49.6683  -25.4650   16.0203 N.am      9 UNK        -0.4272 
     43 C         -50.2551  -24.3424   15.5766 C.2       9 UNK         0.4988 
     44 O         -51.0642  -23.6892   16.2359 O.2       9 UNK        -0.5108 
     45 CA        -49.9268  -23.9031   14.1375 C.3       8 UNK         0.0248 
     46 CB        -48.6296  -23.0784   14.1268 C.3       8 UNK        -0.2001 
     47 N         -49.8063  -25.0233   13.1976 N.am      8 UNK        -0.4140 
     48 C         -50.7667  -25.9320   12.9612 C.2       8 UNK         0.5028 
     49 O         -51.8873  -25.8732   13.4643 O.2       8 UNK        -0.5428 
     50 CA        -50.4229  -27.1430   12.0755 C.3       7 UNK         0.0264 
     51 CB        -50.8280  -26.8625   10.6221 C.3       7 UNK        -0.1988 
     52 N         -49.0122  -27.5273   12.1014 N.am      7 UNK        -0.4454 
     53 C         -48.2603  -27.7587   13.1884 C.2       7 UNK         0.5027 
     54 O         -48.7102  -27.8053   14.3336 O.2       7 UNK        -0.5083 
     55 CA        -46.7340  -27.8819   12.9688 C.3       6 UNK         0.0844 
     56 C56       -46.2575  -29.3488   13.1077 C.3       14 UNK        -0.0967 
     57 S57       -46.7852  -30.4203   11.7244 S.3       14 UNK        -0.2604 
     58 C58       -48.2059  -31.3140   12.4469 C.3       14 UNK         0.0134 
     59 N         -46.2560  -27.2592   11.7223 N.am      6 UNK        -0.4116 
     60 C         -46.4377  -25.9795   11.3596 C.2       5 UNK         0.5034 
     61 O         -47.0108  -25.1554   12.0766 O.2       5 UNK        -0.5045 
     62 CA        -45.9432  -25.5805    9.9534 C.3       5 UNK         0.0224 
     63 CB        -46.1402  -26.7050    8.9146 C.3       5 UNK        -0.1978 
     64 N         -46.6272  -24.3765    9.4716 N.am      5 UNK        -0.4737 
     65 C         -46.2579  -23.1192    9.7582 C.2       4 UNK         0.5027 
     66 O         -45.2488  -22.8407   10.4079 O.2       4 UNK        -0.5211 
     67 CA        -47.1263  -21.9665    9.2135 C.3       4 UNK         0.0297 
     68 CB        -46.3975  -21.2425    8.0688 C.3       4 UNK        -0.1993 
     69 N         -48.4434  -22.3922    8.7357 N.am      4 UNK        -0.4486 
     70 C         -49.4863  -22.7009    9.5183 C.2       3 UNK         0.4961 
     71 O         -49.4807  -22.5831   10.7416 O.2       3 UNK        -0.5105 
     72 CA        -50.7574  -23.2327    8.8262 C.3       3 UNK         0.0299 
     73 CB        -51.8272  -22.1310    8.7615 C.3       3 UNK        -0.1972 
     74 N         -50.5520  -23.7806    7.4779 N.am      3 UNK        -0.4305 
     75 C         -49.7536  -24.8114    7.1683 C.2       2 UNK         0.5006 
     76 O         -49.0253  -25.3850    7.9804 O.2       2 UNK        -0.5106 
     77 CA        -49.7048  -25.2148    5.6870 C.3       2 UNK         0.0296 
     78 CB        -48.6252  -24.4035    4.9514 C.3       2 UNK        -0.2002 
     79 N         -49.4130  -26.6396    5.5339 N.am      2 UNK        -0.4032 
     80 C         -50.2657  -27.6336    5.8236 C.2       1 UNK         0.5000 
     81 O         -51.4321  -27.4508    6.1779 O.2       1 UNK        -0.5238 
     82 H82       -47.2972  -28.3262    1.9949 H         1 UNK         0.0889 
     83 H83       -47.6276  -30.0545    1.8482 H         1 UNK         0.0889 
     84 H84       -46.6251  -29.4571    3.1715 H         1 UNK         0.0889 
     85 H85       -47.7314  -29.4303    5.1190 H         1 UNK         0.3028 
     86 H86       -50.5625  -29.6823    5.3175 H         1 UNK         0.0864 
     87 H87       -50.1782  -29.5374    7.7779 H         1 UNK         0.0720 
     88 H88       -48.5321  -29.0317    7.5176 H         1 UNK         0.0720 
     89 H89       -49.9564  -33.3118    7.8288 H         1 UNK         0.0814 
     90 H90       -51.0692  -32.0795    7.2828 H         1 UNK         0.0814 
     91 H91       -48.2768  -32.1030    9.8367 H         1 UNK         0.1469 
     92 H92       -50.8013  -30.6253   12.9728 H         1 UNK         0.1381 
     93 H93       -52.4498  -31.4463    9.1031 H         1 UNK         0.1206 
     94 H94       -53.8946  -31.3426   11.2288 H         1 UNK         0.0813 
     95 H95       -53.2024  -30.6509   12.6766 H         1 UNK         0.0813 
     96 H96       -55.1648  -28.8516   12.8524 H         1 UNK         0.0638 
     97 H97       -55.8895  -29.5776   11.4351 H         1 UNK         0.0638 
     98 H98       -55.9811  -27.3635   10.3153 H         1 UNK         0.0568 
     99 H99       -57.0861  -25.5445   12.9706 H         1 UNK         0.3450 
    100 H100      -58.6977  -26.2162   13.0005 H         1 UNK         0.3450 
    101 H101      -54.5061  -26.3998   12.6524 H         1 UNK         0.2987 
    102 H102      -53.1043  -24.2032   11.5324 H         1 UNK         0.0766 
    103 H103      -53.7993  -21.8360   11.8980 H         1 UNK         0.0798 
    104 H104      -55.4940  -22.2934   11.7268 H         1 UNK         0.0798 
    105 H105      -54.3995  -22.4442   10.3644 H         1 UNK         0.0798 
    106 H106      -53.2125  -24.4681   13.7145 H         1 UNK         0.3198 
    107 H107      -54.2361  -23.3497   15.9853 H         1 UNK         0.0843 
    108 H108      -56.7460  -25.0863   16.2759 H         1 UNK         0.0831 
    109 H109      -56.6633  -23.3410   16.4562 H         1 UNK         0.0831 
    110 H110      -55.8378  -24.3753   17.6100 H         1 UNK         0.0831 
    111 H111      -53.0803  -25.1912   16.3617 H         1 UNK         0.3133 
    112 H112      -53.5150  -28.1752   16.9760 H         1 UNK         0.0566 
    113 H113      -52.2811  -29.5536   15.2488 H         1 UNK         0.0814 
    114 H114      -53.9972  -29.4078   14.9153 H         1 UNK         0.0814 
    115 H115      -52.8448  -28.4433   14.0005 H         1 UNK         0.0814 
    116 H116      -51.4111  -26.8165   15.3599 H         1 UNK         0.3091 
    117 H117      -49.9594  -25.2843   18.0773 H         1 UNK         0.0702 
    118 H118      -47.8216  -26.5209   17.6704 H         1 UNK         0.0785 
    119 H119      -48.7272  -27.8746   16.9926 H         1 UNK         0.0785 
    120 H120      -48.9176  -27.4447   18.6848 H         1 UNK         0.0785 
    121 H121      -49.0711  -25.9909   15.3919 H         1 UNK         0.2998 
    122 H122      -50.7423  -23.2681   13.7855 H         1 UNK         0.0697 
    123 H123      -47.7727  -23.6690   14.4536 H         1 UNK         0.0825 
    124 H124      -48.7075  -22.2170   14.7914 H         1 UNK         0.0825 
    125 H125      -48.4058  -22.6981   13.1306 H         1 UNK         0.0825 
    126 H126      -48.9076  -25.1254   12.7341 H         1 UNK         0.3029 
    127 H127      -51.0017  -27.9916   12.4427 H         1 UNK         0.0897 
    128 H128      -50.2062  -26.0839   10.1828 H         1 UNK         0.0792 
    129 H129      -51.8646  -26.5290   10.5568 H         1 UNK         0.0792 
    130 H130      -50.7370  -27.7563   10.0039 H         1 UNK         0.0792 
    131 H131      -48.5433  -27.5391   11.2083 H         1 UNK         0.3086 
    132 H132      -46.2737  -27.3166   13.7818 H         1 UNK         0.0583 
    133 H133      -45.1670  -29.3687   13.1403 H         1 UNK         0.1020 
    134 H134      -46.5741  -29.7733   14.0625 H         1 UNK         0.1020 
    135 H135      -47.9011  -32.3356   12.6771 H         1 UNK         0.0694 
    136 H136      -48.4928  -30.8578   13.3952 H         1 UNK         0.0694 
    137 H137      -45.7960  -27.8838   11.0758 H         1 UNK         0.2989 
    138 H138      -44.8736  -25.3742   10.0337 H         1 UNK         0.1055 
    139 H139      -45.4914  -27.5581    9.1156 H         1 UNK         0.0806 
    140 H140      -45.8988  -26.3594    7.9091 H         1 UNK         0.0806 
    141 H141      -47.1687  -27.0683    8.8980 H         1 UNK         0.0806 
    142 H142      -47.4939  -24.5308    8.9652 H         1 UNK         0.3061 
    143 H143      -47.2694  -21.2559   10.0306 H         1 UNK         0.0734 
    144 H144      -46.2233  -21.9034    7.2186 H         1 UNK         0.0832 
    145 H145      -46.9657  -20.3814    7.7165 H         1 UNK         0.0832 
    146 H146      -45.4250  -20.8727    8.3972 H         1 UNK         0.0832 
    147 H147      -48.5471  -22.5168    7.7398 H         1 UNK         0.3156 
    148 H148      -51.1463  -24.0392    9.4499 H         1 UNK         0.0589 
    149 H149      -51.5207  -21.3079    8.1149 H         1 UNK         0.0808 
    150 H150      -52.7756  -22.5184    8.3887 H         1 UNK         0.0808 
    151 H151      -52.0167  -21.7122    9.7510 H         1 UNK         0.0808 
    152 H152      -51.0923  -23.3542    6.7383 H         1 UNK         0.3098 
    153 H153      -50.6756  -25.0111    5.2299 H         1 UNK         0.0720 
    154 H154      -48.5803  -24.6699    3.8951 H         1 UNK         0.0791 
    155 H155      -47.6351  -24.5654    5.3806 H         1 UNK         0.0791 
    156 H156      -48.8324  -23.3338    5.0037 H         1 UNK         0.0791 
    157 H157      -48.4690  -26.8851    5.2771 H         1 UNK         0.3028 
@<TRIPOS>BOND
     1    1    2 1    
     2    1   82 1    
     3    1   83 1    
     4    1   84 1    
     5    2    3 2    
     6    2    4 am   BACKBONE|DICT|INTERRES
     7    4    5 1    
     8    4   85 1    
     9    5    6 1    
    10    5   80 1    
    11    5   86 1    
    12    6    7 1    
    13    6   87 1    
    14    6   88 1    
    15    7    8 1    
    16    8    9 1    
    17    8   89 1    
    18    8   90 1    
    19    9   10 ar   
    20    9   14 ar   
    21   10   11 ar   
    22   10   91 1    
    23   11   12 ar   
    24   11   58 1    
    25   12   13 ar   
    26   12   92 1    
    27   13   14 ar   
    28   13   15 1    
    29   14   93 1    
    30   15   16 1    
    31   15   94 1    
    32   15   95 1    
    33   16   17 1    
    34   17   18 1    
    35   17   96 1    
    36   17   97 1    
    37   18   19 1    
    38   18   22 1    
    39   18   98 1    
    40   19   20 am   BACKBONE|DICT|INTERRES
    41   19   21 2    
    42   20   99 1    
    43   20  100 1    
    44   22   23 am   BACKBONE|DICT|INTERRES
    45   22  101 1    
    46   23   24 2    
    47   23   25 1    
    48   25   26 1    
    49   25   27 1    
    50   25  102 1    
    51   26  103 1    
    52   26  104 1    
    53   26  105 1    
    54   27   28 am   BACKBONE|DICT|INTERRES
    55   27  106 1    
    56   28   29 2    
    57   28   30 1    
    58   30   31 1    
    59   30   32 1    
    60   30  107 1    
    61   31  108 1    
    62   31  109 1    
    63   31  110 1    
    64   32   33 am   BACKBONE|DICT|INTERRES
    65   32  111 1    
    66   33   34 2    
    67   33   35 1    
    68   35   36 1    
    69   35   37 1    
    70   35  112 1    
    71   36  113 1    
    72   36  114 1    
    73   36  115 1    
    74   37   38 am   BACKBONE|DICT|INTERRES
    75   37  116 1    
    76   38   39 2    
    77   38   40 1    
    78   40   41 1    
    79   40   42 1    
    80   40  117 1    
    81   41  118 1    
    82   41  119 1    
    83   41  120 1    
    84   42   43 am   BACKBONE|DICT|INTERRES
    85   42  121 1    
    86   43   44 2    
    87   43   45 1    
    88   45   46 1    
    89   45   47 1    
    90   45  122 1    
    91   46  123 1    
    92   46  124 1    
    93   46  125 1    
    94   47   48 am   BACKBONE|DICT|INTERRES
    95   47  126 1    
    96   48   49 2    
    97   48   50 1    
    98   50   51 1    
    99   50   52 1    
   100   50  127 1    
   101   51  128 1    
   102   51  129 1    
   103   51  130 1    
   104   52   53 am   BACKBONE|DICT|INTERRES
   105   52  131 1    
   106   53   54 2    
   107   53   55 1    
   108   55   56 1    
   109   55   59 1    
   110   55  132 1    
   111   56   57 1    
   112   56  133 1    
   113   56  134 1    
   114   57   58 1    
   115   58  135 1    
   116   58  136 1    
   117   59   60 am   BACKBONE|DICT|INTERRES
   118   59  137 1    
   119   60   61 2    
   120   60   62 1    
   121   62   63 1    
   122   62   64 1    
   123   62  138 1    
   124   63  139 1    
   125   63  140 1    
   126   63  141 1    
   127   64   65 am   BACKBONE|DICT|INTERRES
   128   64  142 1    
   129   65   66 2    
   130   65   67 1    
   131   67   68 1    
   132   67   69 1    
   133   67  143 1    
   134   68  144 1    
   135   68  145 1    
   136   68  146 1    
   137   69   70 am   BACKBONE|DICT|INTERRES
   138   69  147 1    
   139   70   71 2    
   140   70   72 1    
   141   72   73 1    
   142   72   74 1    
   143   72  148 1    
   144   73  149 1    
   145   73  150 1    
   146   73  151 1    
   147   74   75 am   BACKBONE|DICT|INTERRES
   148   74  152 1    
   149   75   76 2    
   150   75   77 1    
   151   77   78 1    
   152   77   79 1    
   153   77  153 1    
   154   78  154 1    
   155   78  155 1    
   156   78  156 1    
   157   79   80 am   BACKBONE|DICT|INTERRES
   158   79  157 1    
   159   80   81 2    
@<TRIPOS>SUBSTRUCTURE
     1 UNK         1 GROUP             0       ****    0 ROOT    
