@<TRIPOS>MOLECULE
3R207
157   159    1
SMALL
USER_CHARGES


@<TRIPOS>ATOM
      1 CA        -47.4272  -27.8390    8.2037 C.3       0 UNK        -0.1975 
      2 C         -47.9644  -28.3222    6.8700 C.2       0 UNK         0.4852 
      3 O         -47.3277  -28.1003    5.8380 O.2       0 UNK        -0.5216 
      4 N         -49.1288  -28.9823    6.8740 N.am      1 UNK        -0.4461 
      5 CA        -49.7996  -29.4924    5.6758 C.3       1 UNK         0.0864 
      6 C6        -50.9307  -30.4976    6.0064 C.3       14 UNK        -0.0898 
      7 S7        -50.3490  -31.8932    7.0313 S.3       14 UNK        -0.2598 
      8 C8        -51.3400  -31.6935    8.5474 C.3       14 UNK         0.0286 
      9 C9        -50.9057  -30.4948    9.3813 C.ar      14 UNK        -0.0844 
     10 C10       -49.8787  -30.6241   10.3220 C.ar      14 UNK        -0.0881 
     11 C11       -49.5173  -29.5408   11.1286 C.ar      14 UNK        -0.0643 
     12 C12       -50.1805  -28.3208   10.9734 C.ar      14 UNK        -0.0930 
     13 C13       -51.2124  -28.1724   10.0440 C.ar      14 UNK        -0.0827 
     14 C14       -51.5640  -29.2684    9.2463 C.ar      14 UNK        -0.1249 
     15 C15       -51.9080  -26.8127    9.9418 C.3       14 UNK         0.0141 
     16 S16       -53.5730  -26.8231    9.1887 S.3       14 UNK        -0.2313 
     17 C17       -54.5244  -27.8908   10.3254 C.3       14 UNK        -0.0915 
     18 CA        -55.7007  -27.1324   10.9968 C.3       13 UNK         0.0968 
     19 C         -56.7576  -28.0986   11.6126 C.2       13 UNK         0.5732 
     20 N         -57.2139  -27.9119   12.8455 N.am      13 UNK        -0.7310 
     21 O         -57.1971  -29.0324   10.9454 O.2       13 UNK        -0.5035 
     22 N         -55.2127  -26.1094   11.9337 N.am      13 UNK        -0.4233 
     23 C         -55.8153  -24.9382   12.1649 C.2       13 UNK         0.4989 
     24 O         -56.8148  -24.5473   11.5586 O.2       13 UNK        -0.4996 
     25 CA        -55.1904  -24.0686   13.2732 C.3       12 UNK         0.0216 
     26 CB        -56.0731  -22.8628   13.6597 C.3       12 UNK        -0.1964 
     27 N         -54.8153  -24.8314   14.4723 N.am      12 UNK        -0.4276 
     28 C         -55.6119  -25.5848   15.2444 C.2       12 UNK         0.5020 
     29 O         -56.7949  -25.8229   14.9936 O.2       12 UNK        -0.5489 
     30 CA        -54.9449  -26.1797   16.4968 C.3       11 UNK         0.0294 
     31 CB        -55.9336  -26.9071   17.4338 C.3       11 UNK        -0.2019 
     32 N         -53.8044  -27.0321   16.1458 N.am      11 UNK        -0.4493 
     33 C         -53.8222  -28.2012   15.4890 C.2       11 UNK         0.4932 
     34 O         -54.8482  -28.7664   15.1131 O.2       11 UNK        -0.5029 
     35 CA        -52.4652  -28.8596   15.1773 C.3       10 UNK         0.0280 
     36 CB        -52.1693  -28.7860   13.6740 C.3       10 UNK        -0.1976 
     37 N         -51.3330  -28.2926   15.9174 N.am      10 UNK        -0.4242 
     38 C         -51.0852  -28.5183   17.2162 C.2       10 UNK         0.5072 
     39 O         -51.7805  -29.2370   17.9350 O.2       10 UNK        -0.5224 
     40 CA        -49.8635  -27.8084   17.8182 C.3       9 UNK         0.0343 
     41 CB        -48.5689  -28.5684   17.4839 C.3       9 UNK        -0.2003 
     42 N         -49.7611  -26.4260   17.3482 N.am      9 UNK        -0.4272 
     43 C         -50.4541  -25.3988   17.8622 C.2       9 UNK         0.4988 
     44 O         -51.2193  -25.4998   18.8210 O.2       9 UNK        -0.5108 
     45 CA        -50.2754  -24.0254   17.1887 C.3       8 UNK         0.0248 
     46 CB        -49.1123  -23.2555   17.8348 C.3       8 UNK        -0.2001 
     47 N         -50.0546  -24.1219   15.7439 N.am      8 UNK        -0.4140 
     48 C         -50.9801  -24.5323   14.8663 C.2       8 UNK         0.5028 
     49 O         -52.1425  -24.7939   15.1722 O.2       8 UNK        -0.5428 
     50 CA        -50.5344  -24.7314   13.4099 C.3       7 UNK         0.0264 
     51 CB        -50.8517  -23.4884   12.5658 C.3       7 UNK        -0.1988 
     52 N         -49.1178  -25.0740   13.2605 N.am      7 UNK        -0.4454 
     53 C         -48.5352  -26.1902   13.7253 C.2       7 UNK         0.5027 
     54 O         -49.1430  -27.0148   14.4122 O.2       7 UNK        -0.5083 
     55 CA        -47.0229  -26.3909   13.4450 C.3       6 UNK         0.0844 
     56 C56       -46.5795  -27.8835   13.3531 C.3       14 UNK        -0.0967 
     57 S57       -46.9418  -28.7565   11.7870 S.3       14 UNK        -0.2604 
     58 C58       -48.4478  -29.6897   12.2020 C.3       14 UNK         0.0134 
     59 N         -46.4283  -25.5149   12.4179 N.am      6 UNK        -0.4116 
     60 C         -46.8362  -25.3126   11.1557 C.2       5 UNK         0.5034 
     61 O         -47.8345  -25.8311   10.6562 O.2       5 UNK        -0.5045 
     62 CA        -45.9800  -24.3477   10.3144 C.3       5 UNK         0.0224 
     63 CB        -44.7945  -25.0945    9.6802 C.3       5 UNK        -0.1978 
     64 N         -46.7519  -23.6977    9.2513 N.am      5 UNK        -0.4737 
     65 C         -47.7950  -22.8761    9.4387 C.2       4 UNK         0.5027 
     66 O         -48.1653  -22.4974   10.5511 O.2       4 UNK        -0.5211 
     67 CA        -48.5373  -22.3664    8.1853 C.3       4 UNK         0.0297 
     68 CB        -48.4897  -20.8302    8.1129 C.3       4 UNK        -0.1993 
     69 N         -48.0134  -22.9143    6.9278 N.am      4 UNK        -0.4486 
     70 C         -48.3190  -24.1178    6.4261 C.2       3 UNK         0.4961 
     71 O         -49.1105  -24.9018    6.9520 O.2       3 UNK        -0.5105 
     72 CA        -47.5594  -24.5157    5.1503 C.3       3 UNK         0.0299 
     73 CB        -46.1118  -24.9159    5.4879 C.3       3 UNK        -0.1972 
     74 N         -48.2116  -25.6313    4.4628 N.am      3 UNK        -0.4305 
     75 C         -49.2107  -25.4985    3.5776 C.2       2 UNK         0.5006 
     76 O         -49.6665  -24.4095    3.2244 O.2       2 UNK        -0.5106 
     77 CA        -49.7908  -26.7809    2.9490 C.3       2 UNK         0.0296 
     78 CB        -49.1871  -27.0127    1.5537 C.3       2 UNK        -0.2002 
     79 N         -49.5658  -27.9713    3.7704 N.am      2 UNK        -0.4032 
     80 C         -50.3127  -28.3098    4.8295 C.2       1 UNK         0.5000 
     81 O         -51.3379  -27.7135    5.1669 O.2       1 UNK        -0.5238 
     82 H82       -47.3231  -26.7552    8.1888 H         1 UNK         0.0889 
     83 H83       -46.4513  -28.2782    8.4068 H         1 UNK         0.0889 
     84 H84       -48.0944  -28.0968    9.0246 H         1 UNK         0.0889 
     85 H85       -49.6210  -29.1326    7.7456 H         1 UNK         0.3028 
     86 H86       -49.0536  -30.0344    5.0899 H         1 UNK         0.0864 
     87 H87       -51.3373  -30.9148    5.0834 H         1 UNK         0.0720 
     88 H88       -51.7674  -30.0004    6.4970 H         1 UNK         0.0720 
     89 H89       -51.2492  -32.6025    9.1439 H         1 UNK         0.0814 
     90 H90       -52.3964  -31.6146    8.2852 H         1 UNK         0.0814 
     91 H91       -49.3757  -31.5743   10.4390 H         1 UNK         0.1469 
     92 H92       -49.8928  -27.4819   11.5901 H         1 UNK         0.1381 
     93 H93       -52.3628  -29.1770    8.5252 H         1 UNK         0.1206 
     94 H94       -51.2699  -26.1476    9.3576 H         1 UNK         0.0813 
     95 H95       -51.9923  -26.3662   10.9326 H         1 UNK         0.0813 
     96 H96       -53.8666  -28.3240   11.0791 H         1 UNK         0.0638 
     97 H97       -54.8886  -28.7282    9.7278 H         1 UNK         0.0638 
     98 H98       -56.2413  -26.6259   10.1950 H         1 UNK         0.0568 
     99 H99       -57.8954  -28.5556   13.2127 H         1 UNK         0.3450 
    100 H100      -56.8962  -27.1427   13.4240 H         1 UNK         0.3450 
    101 H101      -54.4231  -26.3686   12.5038 H         1 UNK         0.2987 
    102 H102      -54.2624  -23.6747   12.8580 H         1 UNK         0.0766 
    103 H103      -55.5898  -22.2441   14.4158 H         1 UNK         0.0798 
    104 H104      -57.0395  -23.1800   14.0534 H         1 UNK         0.0798 
    105 H105      -56.2663  -22.2247   12.7964 H         1 UNK         0.0798 
    106 H106      -53.8349  -24.7554   14.7546 H         1 UNK         0.3198 
    107 H107      -54.5327  -25.3370   17.0546 H         1 UNK         0.0843 
    108 H108      -56.4330  -27.7400   16.9383 H         1 UNK         0.0831 
    109 H109      -56.7124  -26.2251   17.7770 H         1 UNK         0.0831 
    110 H110      -55.4287  -27.2959   18.3180 H         1 UNK         0.0831 
    111 H111      -52.8966  -26.6239   16.3281 H         1 UNK         0.3133 
    112 H112      -52.5524  -29.9141   15.4478 H         1 UNK         0.0566 
    113 H113      -51.2616  -29.3357   13.4312 H         1 UNK         0.0814 
    114 H114      -52.9759  -29.2344   13.0931 H         1 UNK         0.0814 
    115 H115      -52.0470  -27.7585   13.3329 H         1 UNK         0.0814 
    116 H116      -50.6674  -27.7362   15.3874 H         1 UNK         0.3091 
    117 H117      -49.9779  -27.8048   18.9046 H         1 UNK         0.0702 
    118 H118      -47.7005  -28.0900   17.9369 H         1 UNK         0.0785 
    119 H119      -48.3954  -28.6301   16.4093 H         1 UNK         0.0785 
    120 H120      -48.6103  -29.5900   17.8642 H         1 UNK         0.0785 
    121 H121      -49.1968  -26.2715   16.5238 H         1 UNK         0.2998 
    122 H122      -51.1934  -23.4564   17.3518 H         1 UNK         0.0697 
    123 H123      -48.1584  -23.7649   17.6918 H         1 UNK         0.0825 
    124 H124      -49.2660  -23.1485   18.9096 H         1 UNK         0.0825 
    125 H125      -49.0229  -22.2507   17.4214 H         1 UNK         0.0825 
    126 H126      -49.1294  -23.9088   15.4014 H         1 UNK         0.3029 
    127 H127      -51.1147  -25.5660   13.0151 H         1 UNK         0.0897 
    128 H128      -51.9006  -23.2053   12.6573 H         1 UNK         0.0792 
    129 H129      -50.6572  -23.6699   11.5082 H         1 UNK         0.0792 
    130 H130      -50.2539  -22.6288   12.8714 H         1 UNK         0.0792 
    131 H131      -48.5656  -24.4569   12.6811 H         1 UNK         0.3086 
    132 H132      -46.5706  -26.0239   14.3675 H         1 UNK         0.0583 
    133 H133      -45.4968  -27.9247   13.4797 H         1 UNK         0.1020 
    134 H134      -46.9709  -28.4590   14.1938 H         1 UNK         0.1020 
    135 H135      -48.1827  -30.7383   12.3443 H         1 UNK         0.0694 
    136 H136      -48.8575  -29.3500   13.1530 H         1 UNK         0.0694 
    137 H137      -45.5995  -25.0232   12.7209 H         1 UNK         0.2989 
    138 H138      -45.5963  -23.5633   10.9705 H         1 UNK         0.1055 
    139 H139      -44.1739  -25.5671   10.4429 H         1 UNK         0.0806 
    140 H140      -44.1517  -24.4168    9.1180 H         1 UNK         0.0806 
    141 H141      -45.1276  -25.8811    9.0023 H         1 UNK         0.0806 
    142 H142      -46.5414  -23.9732    8.3051 H         1 UNK         0.3061 
    143 H143      -49.5818  -22.6680    8.2906 H         1 UNK         0.0734 
    144 H144      -47.4671  -20.4608    8.0271 H         1 UNK         0.0832 
    145 H145      -49.0571  -20.4543    7.2613 H         1 UNK         0.0832 
    146 H146      -48.9227  -20.3822    9.0085 H         1 UNK         0.0832 
    147 H147      -47.3461  -22.3385    6.4330 H         1 UNK         0.3156 
    148 H148      -47.5286  -23.6526    4.4816 H         1 UNK         0.0589 
    149 H149      -46.0721  -25.7351    6.2063 H         1 UNK         0.0808 
    150 H150      -45.5708  -25.2312    4.5955 H         1 UNK         0.0808 
    151 H151      -45.5586  -24.0799    5.9173 H         1 UNK         0.0808 
    152 H152      -47.9375  -26.5609    4.7676 H         1 UNK         0.3098 
    153 H153      -50.8663  -26.6310    2.8306 H         1 UNK         0.0720 
    154 H154      -49.6330  -27.8807    1.0675 H         1 UNK         0.0791 
    155 H155      -48.1086  -27.1694    1.6000 H         1 UNK         0.0791 
    156 H156      -49.3638  -26.1537    0.9047 H         1 UNK         0.0791 
    157 H157      -48.7194  -28.4935    3.5897 H         1 UNK         0.3028 
@<TRIPOS>BOND
     1    1    2 1    
     2    1   82 1    
     3    1   83 1    
     4    1   84 1    
     5    2    3 2    
     6    2    4 am   BACKBONE|DICT|INTERRES
     7    4    5 1    
     8    4   85 1    
     9    5    6 1    
    10    5   80 1    
    11    5   86 1    
    12    6    7 1    
    13    6   87 1    
    14    6   88 1    
    15    7    8 1    
    16    8    9 1    
    17    8   89 1    
    18    8   90 1    
    19    9   10 ar   
    20    9   14 ar   
    21   10   11 ar   
    22   10   91 1    
    23   11   12 ar   
    24   11   58 1    
    25   12   13 ar   
    26   12   92 1    
    27   13   14 ar   
    28   13   15 1    
    29   14   93 1    
    30   15   16 1    
    31   15   94 1    
    32   15   95 1    
    33   16   17 1    
    34   17   18 1    
    35   17   96 1    
    36   17   97 1    
    37   18   19 1    
    38   18   22 1    
    39   18   98 1    
    40   19   20 am   BACKBONE|DICT|INTERRES
    41   19   21 2    
    42   20   99 1    
    43   20  100 1    
    44   22   23 am   BACKBONE|DICT|INTERRES
    45   22  101 1    
    46   23   24 2    
    47   23   25 1    
    48   25   26 1    
    49   25   27 1    
    50   25  102 1    
    51   26  103 1    
    52   26  104 1    
    53   26  105 1    
    54   27   28 am   BACKBONE|DICT|INTERRES
    55   27  106 1    
    56   28   29 2    
    57   28   30 1    
    58   30   31 1    
    59   30   32 1    
    60   30  107 1    
    61   31  108 1    
    62   31  109 1    
    63   31  110 1    
    64   32   33 am   BACKBONE|DICT|INTERRES
    65   32  111 1    
    66   33   34 2    
    67   33   35 1    
    68   35   36 1    
    69   35   37 1    
    70   35  112 1    
    71   36  113 1    
    72   36  114 1    
    73   36  115 1    
    74   37   38 am   BACKBONE|DICT|INTERRES
    75   37  116 1    
    76   38   39 2    
    77   38   40 1    
    78   40   41 1    
    79   40   42 1    
    80   40  117 1    
    81   41  118 1    
    82   41  119 1    
    83   41  120 1    
    84   42   43 am   BACKBONE|DICT|INTERRES
    85   42  121 1    
    86   43   44 2    
    87   43   45 1    
    88   45   46 1    
    89   45   47 1    
    90   45  122 1    
    91   46  123 1    
    92   46  124 1    
    93   46  125 1    
    94   47   48 am   BACKBONE|DICT|INTERRES
    95   47  126 1    
    96   48   49 2    
    97   48   50 1    
    98   50   51 1    
    99   50   52 1    
   100   50  127 1    
   101   51  128 1    
   102   51  129 1    
   103   51  130 1    
   104   52   53 am   BACKBONE|DICT|INTERRES
   105   52  131 1    
   106   53   54 2    
   107   53   55 1    
   108   55   56 1    
   109   55   59 1    
   110   55  132 1    
   111   56   57 1    
   112   56  133 1    
   113   56  134 1    
   114   57   58 1    
   115   58  135 1    
   116   58  136 1    
   117   59   60 am   BACKBONE|DICT|INTERRES
   118   59  137 1    
   119   60   61 2    
   120   60   62 1    
   121   62   63 1    
   122   62   64 1    
   123   62  138 1    
   124   63  139 1    
   125   63  140 1    
   126   63  141 1    
   127   64   65 am   BACKBONE|DICT|INTERRES
   128   64  142 1    
   129   65   66 2    
   130   65   67 1    
   131   67   68 1    
   132   67   69 1    
   133   67  143 1    
   134   68  144 1    
   135   68  145 1    
   136   68  146 1    
   137   69   70 am   BACKBONE|DICT|INTERRES
   138   69  147 1    
   139   70   71 2    
   140   70   72 1    
   141   72   73 1    
   142   72   74 1    
   143   72  148 1    
   144   73  149 1    
   145   73  150 1    
   146   73  151 1    
   147   74   75 am   BACKBONE|DICT|INTERRES
   148   74  152 1    
   149   75   76 2    
   150   75   77 1    
   151   77   78 1    
   152   77   79 1    
   153   77  153 1    
   154   78  154 1    
   155   78  155 1    
   156   78  156 1    
   157   79   80 am   BACKBONE|DICT|INTERRES
   158   79  157 1    
   159   80   81 2    
@<TRIPOS>SUBSTRUCTURE
     1 UNK         1 GROUP             0       ****    0 ROOT    
