@<TRIPOS>MOLECULE
3R207
157   159    1
SMALL
USER_CHARGES


@<TRIPOS>ATOM
      1 CA        -50.2799  -25.2281    1.5384 C.3       0 UNK        -0.1975 
      2 C         -50.8997  -25.3492    2.9223 C.2       0 UNK         0.4852 
      3 O         -51.6309  -24.4534    3.3481 O.2       0 UNK        -0.5216 
      4 N         -50.6059  -26.4427    3.6386 N.am      1 UNK        -0.4461 
      5 CA        -51.0955  -26.7458    4.9900 C.3       1 UNK         0.0864 
      6 C6        -51.0981  -28.2769    5.2277 C.3       14 UNK        -0.0898 
      7 S7        -52.1758  -28.7809    6.6090 S.3       14 UNK        -0.2598 
      8 C8        -51.0328  -29.8634    7.5187 C.3       14 UNK         0.0286 
      9 C9        -51.6767  -30.4249    8.7751 C.ar      14 UNK        -0.0844 
     10 C10       -51.2245  -30.0271   10.0355 C.ar      14 UNK        -0.0881 
     11 C11       -51.7966  -30.5573   11.1959 C.ar      14 UNK        -0.0643 
     12 C12       -52.8334  -31.4874   11.0874 C.ar      14 UNK        -0.0930 
     13 C13       -53.3223  -31.8608    9.8319 C.ar      14 UNK        -0.0827 
     14 C14       -52.7261  -31.3431    8.6788 C.ar      14 UNK        -0.1249 
     15 C15       -54.5346  -32.7734    9.7242 C.3       14 UNK         0.0141 
     16 S16       -56.0134  -32.0254   10.4883 S.3       14 UNK        -0.2313 
     17 C17       -56.1715  -30.4445    9.5808 C.3       14 UNK        -0.0915 
     18 CA        -55.5139  -29.2350   10.3057 C.3       13 UNK         0.0968 
     19 C         -55.7349  -27.9275    9.4987 C.2       13 UNK         0.5732 
     20 N         -54.8678  -27.6331    8.5402 N.am      13 UNK        -0.7310 
     21 O         -56.7088  -27.2039    9.7025 O.2       13 UNK        -0.5035 
     22 N         -55.9601  -29.1308   11.7020 N.am      13 UNK        -0.4233 
     23 C         -55.4312  -28.3266   12.6322 C.2       13 UNK         0.4989 
     24 O         -54.4820  -27.5669   12.4239 O.2       13 UNK        -0.4996 
     25 CA        -56.1132  -28.3541   14.0174 C.3       12 UNK         0.0216 
     26 CB        -56.6236  -29.7576   14.4221 C.3       12 UNK        -0.1964 
     27 N         -55.2791  -27.7773   15.0793 N.am      12 UNK        -0.4276 
     28 C         -54.1152  -28.2412   15.5569 C.2       12 UNK         0.5020 
     29 O         -53.5698  -29.2812   15.1820 O.2       12 UNK        -0.5489 
     30 CA        -53.4553  -27.3686   16.6391 C.3       11 UNK         0.0294 
     31 CB        -52.2249  -28.0313   17.2855 C.3       11 UNK        -0.2019 
     32 N         -53.0576  -26.0812   16.0729 N.am      11 UNK        -0.4493 
     33 C         -53.8471  -25.0056   15.9626 C.2       11 UNK         0.4932 
     34 O         -55.0204  -24.9950   16.3409 O.2       11 UNK        -0.5029 
     35 CA        -53.2458  -23.7552   15.2889 C.3       10 UNK         0.0280 
     36 CB        -53.9470  -22.4477   15.7143 C.3       10 UNK        -0.1976 
     37 N         -51.7886  -23.6484   15.4364 N.am      10 UNK        -0.4242 
     38 C         -51.0833  -23.4977   16.5698 C.2       10 UNK         0.5072 
     39 O         -51.5978  -23.3679   17.6816 O.2       10 UNK        -0.5224 
     40 CA        -49.5423  -23.5137   16.4701 C.3       9 UNK         0.0343 
     41 CB        -48.9684  -24.7269   17.2220 C.3       9 UNK        -0.2003 
     42 N         -49.0355  -23.5294   15.0949 N.am      9 UNK        -0.4272 
     43 C         -48.9885  -22.4663   14.2795 C.2       9 UNK         0.4988 
     44 O         -49.2842  -21.3228   14.6268 O.2       9 UNK        -0.5108 
     45 CA        -48.5903  -22.7322   12.8156 C.3       8 UNK         0.0248 
     46 CB        -47.0632  -22.6871   12.6462 C.3       8 UNK        -0.2001 
     47 N         -49.0994  -24.0095   12.3073 N.am      8 UNK        -0.4140 
     48 C         -50.3958  -24.3345   12.1967 C.2       8 UNK         0.5028 
     49 O         -51.3189  -23.5639   12.4557 O.2       8 UNK        -0.5428 
     50 CA        -50.7152  -25.7828   11.7980 C.3       7 UNK         0.0264 
     51 CB        -50.6100  -25.9683   10.2752 C.3       7 UNK        -0.1988 
     52 N         -49.8502  -26.7407   12.4940 N.am      7 UNK        -0.4454 
     53 C         -49.9151  -26.9921   13.8115 C.2       7 UNK         0.5027 
     54 O         -50.7250  -26.4525   14.5638 O.2       7 UNK        -0.5083 
     55 CA        -48.8829  -27.9738   14.4072 C.3       6 UNK         0.0844 
     56 C56       -49.3918  -29.4356   14.4410 C.3       14 UNK        -0.0967 
     57 S57       -49.5473  -30.2192   12.8011 S.3       14 UNK        -0.2604 
     58 C58       -51.3480  -30.0782   12.5664 C.3       14 UNK         0.0134 
     59 N         -47.5674  -27.8490   13.7773 N.am      6 UNK        -0.4116 
     60 C         -46.7606  -26.7931   13.9422 C.2       5 UNK         0.5034 
     61 O         -47.0350  -25.8234   14.6499 O.2       5 UNK        -0.5045 
     62 CA        -45.4442  -26.8010   13.1480 C.3       5 UNK         0.0224 
     63 CB        -44.4004  -27.6963   13.8353 C.3       5 UNK        -0.1978 
     64 N         -45.5829  -27.1938   11.7383 N.am      5 UNK        -0.4737 
     65 C         -46.3910  -26.5897   10.8580 C.2       4 UNK         0.5027 
     66 O         -47.2243  -25.7363   11.1679 O.2       4 UNK        -0.5211 
     67 CA        -46.2594  -26.9959    9.3821 C.3       4 UNK         0.0297 
     68 CB        -47.3259  -28.0388    9.0094 C.3       4 UNK        -0.1993 
     69 N         -46.4267  -25.8027    8.5498 N.am      4 UNK        -0.4486 
     70 C         -45.5041  -24.8348    8.4386 C.2       3 UNK         0.4961 
     71 O         -44.3321  -24.9779    8.7908 O.2       3 UNK        -0.5105 
     72 CA        -45.9573  -23.4519    7.9290 C.3       3 UNK         0.0299 
     73 CB        -45.1069  -22.9554    6.7400 C.3       3 UNK        -0.1972 
     74 N         -47.4030  -23.3429    7.6811 N.am      3 UNK        -0.4305 
     75 C         -48.1034  -23.8105    6.6394 C.2       2 UNK         0.5006 
     76 O         -47.6063  -24.3430    5.6446 O.2       2 UNK        -0.5106 
     77 CA        -49.6301  -23.6359    6.7434 C.3       2 UNK         0.0296 
     78 CB        -50.0412  -22.2189    6.3098 C.3       2 UNK        -0.2002 
     79 N         -50.3661  -24.6070    5.9337 N.am      2 UNK        -0.4032 
     80 C         -50.3197  -25.9401    6.0616 C.2       1 UNK         0.5000 
     81 O         -49.6862  -26.5154    6.9502 O.2       1 UNK        -0.5238 
     82 H82       -49.6647  -26.0926    1.2896 H         1 UNK         0.0889 
     83 H83       -49.6527  -24.3386    1.4855 H         1 UNK         0.0889 
     84 H84       -51.0615  -25.1398    0.7842 H         1 UNK         0.0889 
     85 H85       -49.9688  -27.1233    3.2492 H         1 UNK         0.3028 
     86 H86       -52.1337  -26.4095    5.0437 H         1 UNK         0.0864 
     87 H87       -50.0819  -28.6494    5.3710 H         1 UNK         0.0720 
     88 H88       -51.4774  -28.7888    4.3417 H         1 UNK         0.0720 
     89 H89       -50.1301  -29.3014    7.7657 H         1 UNK         0.0814 
     90 H90       -50.7216  -30.6870    6.8743 H         1 UNK         0.0814 
     91 H91       -50.4244  -29.3051   10.1183 H         1 UNK         0.1469 
     92 H92       -53.3028  -31.8787   11.9798 H         1 UNK         0.1381 
     93 H93       -53.0946  -31.6300    7.7031 H         1 UNK         0.1206 
     94 H94       -54.3173  -33.7206   10.2193 H         1 UNK         0.0813 
     95 H95       -54.7547  -33.0118    8.6824 H         1 UNK         0.0813 
     96 H96       -57.2372  -30.2600    9.4334 H         1 UNK         0.0638 
     97 H97       -55.7472  -30.5674    8.5826 H         1 UNK         0.0638 
     98 H98       -54.4373  -29.3971   10.3403 H         1 UNK         0.0568 
     99 H99       -54.0764  -28.2287    8.3457 H         1 UNK         0.3450 
    100 H100      -55.0094  -26.7974    7.9963 H         1 UNK         0.3450 
    101 H101      -56.7457  -29.7120   11.9499 H         1 UNK         0.2987 
    102 H102      -56.9809  -27.6977   13.9372 H         1 UNK         0.0766 
    103 H103      -55.8325  -30.5069   14.3705 H         1 UNK         0.0798 
    104 H104      -57.4355  -30.0925   13.7760 H         1 UNK         0.0798 
    105 H105      -57.0136  -29.7575   15.4401 H         1 UNK         0.0798 
    106 H106      -55.5809  -26.8753   15.4319 H         1 UNK         0.3198 
    107 H107      -54.1934  -27.2094   17.4285 H         1 UNK         0.0843 
    108 H108      -51.4265  -28.1918   16.5629 H         1 UNK         0.0831 
    109 H109      -52.4820  -29.0017   17.7120 H         1 UNK         0.0831 
    110 H110      -51.8244  -27.4171   18.0921 H         1 UNK         0.0831 
    111 H111      -52.1422  -26.0590   15.6242 H         1 UNK         0.3133 
    112 H112      -53.4239  -23.8854   14.2208 H         1 UNK         0.0566 
    113 H113      -55.0061  -22.4694   15.4549 H         1 UNK         0.0814 
    114 H114      -53.8811  -22.2830   16.7901 H         1 UNK         0.0814 
    115 H115      -53.5106  -21.5833   15.2140 H         1 UNK         0.0814 
    116 H116      -51.2738  -23.7437   14.5683 H         1 UNK         0.3091 
    117 H117      -49.1781  -22.6087   16.9608 H         1 UNK         0.0702 
    118 H118      -47.8787  -24.7359   17.1896 H         1 UNK         0.0785 
    119 H119      -49.3241  -25.6669   16.8001 H         1 UNK         0.0785 
    120 H120      -49.2605  -24.7115   18.2728 H         1 UNK         0.0785 
    121 H121      -48.7062  -24.4217   14.7450 H         1 UNK         0.2998 
    122 H122      -49.0262  -21.9386   12.2053 H         1 UNK         0.0697 
    123 H123      -46.5709  -23.4736   13.2192 H         1 UNK         0.0825 
    124 H124      -46.6599  -21.7324   12.9864 H         1 UNK         0.0825 
    125 H125      -46.7761  -22.8083   11.6015 H         1 UNK         0.0825 
    126 H126      -48.4031  -24.6976   12.0194 H         1 UNK         0.3029 
    127 H127      -51.7475  -25.9896   12.0919 H         1 UNK         0.0897 
    128 H128      -49.6046  -25.7674    9.9057 H         1 UNK         0.0792 
    129 H129      -51.2845  -25.2870    9.7551 H         1 UNK         0.0792 
    130 H130      -50.8862  -26.9779    9.9737 H         1 UNK         0.0792 
    131 H131      -49.1160  -27.1737   11.9533 H         1 UNK         0.3086 
    132 H132      -48.7572  -27.6759   15.4506 H         1 UNK         0.0583 
    133 H133      -48.7011  -30.0412   15.0298 H         1 UNK         0.1020 
    134 H134      -50.3446  -29.4989   14.9696 H         1 UNK         0.1020 
    135 H135      -51.8487  -30.6433   13.3544 H         1 UNK         0.0694 
    136 H136      -51.6628  -29.0409   12.6863 H         1 UNK         0.0694 
    137 H137      -47.2803  -28.5994   13.1659 H         1 UNK         0.2989 
    138 H138      -45.0667  -25.7760   13.1571 H         1 UNK         0.1055 
    139 H139      -44.2738  -27.4159   14.8822 H         1 UNK         0.0806 
    140 H140      -43.4239  -27.6049   13.3593 H         1 UNK         0.0806 
    141 H141      -44.6883  -28.7481   13.8122 H         1 UNK         0.0806 
    142 H142      -44.9383  -27.8946   11.4002 H         1 UNK         0.3061 
    143 H143      -45.2692  -27.4212    9.2058 H         1 UNK         0.0734 
    144 H144      -47.2514  -28.3229    7.9596 H         1 UNK         0.0832 
    145 H145      -47.2097  -28.9477    9.6011 H         1 UNK         0.0832 
    146 H146      -48.3367  -27.6675    9.1783 H         1 UNK         0.0832 
    147 H147      -47.3674  -25.6030    8.2423 H         1 UNK         0.3156 
    148 H148      -45.7671  -22.7671    8.7569 H         1 UNK         0.0589 
    149 H149      -45.1355  -23.6471    5.8981 H         1 UNK         0.0808 
    150 H150      -45.4428  -21.9799    6.3886 H         1 UNK         0.0808 
    151 H151      -44.0606  -22.8519    7.0300 H         1 UNK         0.0808 
    152 H152      -47.9227  -22.9109    8.4334 H         1 UNK         0.3098 
    153 H153      -49.9257  -23.7880    7.7837 H         1 UNK         0.0720 
    154 H154      -51.1144  -22.0644    6.4244 H         1 UNK         0.0791 
    155 H155      -49.7850  -22.0285    5.2665 H         1 UNK         0.0791 
    156 H156      -49.5409  -21.4594    6.9121 H         1 UNK         0.0791 
    157 H157      -50.8699  -24.2457    5.1291 H         1 UNK         0.3028 
@<TRIPOS>BOND
     1    1    2 1    
     2    1   82 1    
     3    1   83 1    
     4    1   84 1    
     5    2    3 2    
     6    2    4 am   BACKBONE|DICT|INTERRES
     7    4    5 1    
     8    4   85 1    
     9    5    6 1    
    10    5   80 1    
    11    5   86 1    
    12    6    7 1    
    13    6   87 1    
    14    6   88 1    
    15    7    8 1    
    16    8    9 1    
    17    8   89 1    
    18    8   90 1    
    19    9   10 ar   
    20    9   14 ar   
    21   10   11 ar   
    22   10   91 1    
    23   11   12 ar   
    24   11   58 1    
    25   12   13 ar   
    26   12   92 1    
    27   13   14 ar   
    28   13   15 1    
    29   14   93 1    
    30   15   16 1    
    31   15   94 1    
    32   15   95 1    
    33   16   17 1    
    34   17   18 1    
    35   17   96 1    
    36   17   97 1    
    37   18   19 1    
    38   18   22 1    
    39   18   98 1    
    40   19   20 am   BACKBONE|DICT|INTERRES
    41   19   21 2    
    42   20   99 1    
    43   20  100 1    
    44   22   23 am   BACKBONE|DICT|INTERRES
    45   22  101 1    
    46   23   24 2    
    47   23   25 1    
    48   25   26 1    
    49   25   27 1    
    50   25  102 1    
    51   26  103 1    
    52   26  104 1    
    53   26  105 1    
    54   27   28 am   BACKBONE|DICT|INTERRES
    55   27  106 1    
    56   28   29 2    
    57   28   30 1    
    58   30   31 1    
    59   30   32 1    
    60   30  107 1    
    61   31  108 1    
    62   31  109 1    
    63   31  110 1    
    64   32   33 am   BACKBONE|DICT|INTERRES
    65   32  111 1    
    66   33   34 2    
    67   33   35 1    
    68   35   36 1    
    69   35   37 1    
    70   35  112 1    
    71   36  113 1    
    72   36  114 1    
    73   36  115 1    
    74   37   38 am   BACKBONE|DICT|INTERRES
    75   37  116 1    
    76   38   39 2    
    77   38   40 1    
    78   40   41 1    
    79   40   42 1    
    80   40  117 1    
    81   41  118 1    
    82   41  119 1    
    83   41  120 1    
    84   42   43 am   BACKBONE|DICT|INTERRES
    85   42  121 1    
    86   43   44 2    
    87   43   45 1    
    88   45   46 1    
    89   45   47 1    
    90   45  122 1    
    91   46  123 1    
    92   46  124 1    
    93   46  125 1    
    94   47   48 am   BACKBONE|DICT|INTERRES
    95   47  126 1    
    96   48   49 2    
    97   48   50 1    
    98   50   51 1    
    99   50   52 1    
   100   50  127 1    
   101   51  128 1    
   102   51  129 1    
   103   51  130 1    
   104   52   53 am   BACKBONE|DICT|INTERRES
   105   52  131 1    
   106   53   54 2    
   107   53   55 1    
   108   55   56 1    
   109   55   59 1    
   110   55  132 1    
   111   56   57 1    
   112   56  133 1    
   113   56  134 1    
   114   57   58 1    
   115   58  135 1    
   116   58  136 1    
   117   59   60 am   BACKBONE|DICT|INTERRES
   118   59  137 1    
   119   60   61 2    
   120   60   62 1    
   121   62   63 1    
   122   62   64 1    
   123   62  138 1    
   124   63  139 1    
   125   63  140 1    
   126   63  141 1    
   127   64   65 am   BACKBONE|DICT|INTERRES
   128   64  142 1    
   129   65   66 2    
   130   65   67 1    
   131   67   68 1    
   132   67   69 1    
   133   67  143 1    
   134   68  144 1    
   135   68  145 1    
   136   68  146 1    
   137   69   70 am   BACKBONE|DICT|INTERRES
   138   69  147 1    
   139   70   71 2    
   140   70   72 1    
   141   72   73 1    
   142   72   74 1    
   143   72  148 1    
   144   73  149 1    
   145   73  150 1    
   146   73  151 1    
   147   74   75 am   BACKBONE|DICT|INTERRES
   148   74  152 1    
   149   75   76 2    
   150   75   77 1    
   151   77   78 1    
   152   77   79 1    
   153   77  153 1    
   154   78  154 1    
   155   78  155 1    
   156   78  156 1    
   157   79   80 am   BACKBONE|DICT|INTERRES
   158   79  157 1    
   159   80   81 2    
@<TRIPOS>SUBSTRUCTURE
     1 UNK         1 GROUP             0       ****    0 ROOT    
