@<TRIPOS>MOLECULE
3R207
157   159    1
SMALL
USER_CHARGES


@<TRIPOS>ATOM
      1 CA        -43.7372  -26.3940   11.1357 C.3       0 UNK        -0.1975 
      2 C         -44.4867  -26.8089    9.8778 C.2       0 UNK         0.4852 
      3 O         -44.0558  -26.4797    8.7719 O.2       0 UNK        -0.5216 
      4 N         -45.5983  -27.5383   10.0390 N.am      1 UNK        -0.4461 
      5 CA        -46.4372  -28.0291    8.9425 C.3       1 UNK         0.0864 
      6 C6        -47.1784  -29.3371    9.3449 C.3       14 UNK        -0.0898 
      7 S7        -48.7715  -29.1374   10.2245 S.3       14 UNK        -0.2598 
      8 C8        -49.8815  -29.9712    9.0429 C.3       14 UNK         0.0286 
      9 C9        -51.3433  -29.6986    9.3487 C.ar      14 UNK        -0.0844 
     10 C10       -51.8745  -28.4322    9.0961 C.ar      14 UNK        -0.0881 
     11 C11       -53.2176  -28.1494    9.3727 C.ar      14 UNK        -0.0643 
     12 C12       -54.0343  -29.1728    9.8640 C.ar      14 UNK        -0.0930 
     13 C13       -53.5201  -30.4499   10.1082 C.ar      14 UNK        -0.0827 
     14 C14       -52.1690  -30.7056    9.8563 C.ar      14 UNK        -0.1249 
     15 C15       -54.4266  -31.5501   10.6406 C.3       14 UNK         0.0141 
     16 S16       -54.6398  -31.4001   12.4411 S.3       14 UNK        -0.2313 
     17 C17       -56.4568  -31.4067   12.6176 C.3       14 UNK        -0.0915 
     18 CA        -57.1648  -30.1076   12.1392 C.3       13 UNK         0.0968 
     19 C         -58.6868  -30.1656   12.4660 C.2       13 UNK         0.5732 
     20 N         -59.2136  -29.3357   13.3610 N.am      13 UNK        -0.7310 
     21 O         -59.4036  -30.9813   11.8912 O.2       13 UNK        -0.5035 
     22 N         -56.4900  -28.8955   12.6218 N.am      13 UNK        -0.4233 
     23 C         -56.6859  -27.6608   12.1422 C.2       13 UNK         0.4989 
     24 O         -57.3757  -27.4165   11.1511 O.2       13 UNK        -0.4996 
     25 CA        -55.9887  -26.5090   12.8930 C.3       12 UNK         0.0216 
     26 CB        -56.7638  -25.1790   12.7905 C.3       12 UNK        -0.1964 
     27 N         -55.6744  -26.8216   14.2942 N.am      12 UNK        -0.4276 
     28 C         -56.5305  -27.1511   15.2764 C.2       12 UNK         0.5020 
     29 O         -57.7481  -27.2462   15.1104 O.2       12 UNK        -0.5489 
     30 CA        -55.9433  -27.4960   16.6618 C.3       11 UNK         0.0294 
     31 CB        -56.1959  -28.9775   16.9926 C.3       11 UNK        -0.2019 
     32 N         -54.5067  -27.2291   16.7802 N.am      11 UNK        -0.4493 
     33 C         -53.9538  -26.0148   16.9068 C.2       11 UNK         0.4932 
     34 O         -54.6057  -24.9804   17.0493 O.2       11 UNK        -0.5029 
     35 CA        -52.4150  -25.9311   16.8300 C.3       10 UNK         0.0280 
     36 CB        -51.8138  -25.8340   18.2414 C.3       10 UNK        -0.1976 
     37 N         -51.7616  -27.0300   16.1021 N.am      10 UNK        -0.4242 
     38 C         -52.0036  -27.3792   14.8301 C.2       10 UNK         0.5072 
     39 O         -52.8612  -26.8444   14.1265 O.2       10 UNK        -0.5224 
     40 CA        -51.1427  -28.5145   14.2662 C.3       9 UNK         0.0343 
     41 CB        -51.6351  -29.0109   12.8962 C.3       9 UNK        -0.2003 
     42 N         -49.7700  -28.0404   14.1307 N.am      9 UNK        -0.4272 
     43 C         -48.6762  -28.7154   14.5089 C.2       9 UNK         0.4988 
     44 O         -48.7181  -29.8059   15.0802 O.2       9 UNK        -0.5108 
     45 CA        -47.2988  -28.0952   14.2006 C.3       8 UNK         0.0248 
     46 CB        -46.4169  -29.0717   13.4016 C.3       8 UNK        -0.2001 
     47 N         -47.3998  -26.8297   13.4672 N.am      8 UNK        -0.4140 
     48 C         -47.3795  -25.6183   14.0380 C.2       8 UNK         0.5028 
     49 O         -47.2135  -25.4302   15.2436 O.2       8 UNK        -0.5428 
     50 CA        -47.5904  -24.4050   13.1144 C.3       7 UNK         0.0264 
     51 CB        -46.2384  -23.7707   12.7577 C.3       7 UNK        -0.1988 
     52 N         -48.3449  -24.6839   11.8837 N.am      7 UNK        -0.4454 
     53 C         -49.6268  -25.0816   11.8521 C.2       7 UNK         0.5027 
     54 O         -50.2543  -25.3829   12.8665 O.2       7 UNK        -0.5083 
     55 CA        -50.3083  -25.1617   10.4686 C.3       6 UNK         0.0844 
     56 C56       -51.8601  -25.2766   10.5605 C.3       14 UNK        -0.0967 
     57 S57       -52.6577  -25.3902    8.9173 S.3       14 UNK        -0.2604 
     58 C58       -53.8360  -26.7695    9.1412 C.3       14 UNK         0.0134 
     59 N         -49.8462  -24.0870    9.5794 N.am      6 UNK        -0.4116 
     60 C         -50.1369  -22.7816    9.6831 C.2       5 UNK         0.5034 
     61 O         -50.7863  -22.2868   10.6063 O.2       5 UNK        -0.5045 
     62 CA        -49.6237  -21.8907    8.5367 C.3       5 UNK         0.0224 
     63 CB        -49.8335  -20.3810    8.7873 C.3       5 UNK        -0.1978 
     64 N         -48.2333  -22.1894    8.1742 N.am      5 UNK        -0.4737 
     65 C         -47.1371  -22.0061    8.9266 C.2       4 UNK         0.5027 
     66 O         -47.1607  -21.5040   10.0496 O.2       4 UNK        -0.5211 
     67 CA        -45.7882  -22.4729    8.3437 C.3       4 UNK         0.0297 
     68 CB        -44.9141  -23.1408    9.4168 C.3       4 UNK        -0.1993 
     69 N         -45.9660  -23.4163    7.2388 N.am      4 UNK        -0.4486 
     70 C         -45.9531  -23.0970    5.9377 C.2       3 UNK         0.4961 
     71 O         -45.7191  -21.9662    5.5113 O.2       3 UNK        -0.5105 
     72 CA        -46.2881  -24.2206    4.9379 C.3       3 UNK         0.0299 
     73 CB        -44.9971  -24.8323    4.3705 C.3       3 UNK        -0.1972 
     74 N         -47.1194  -25.2897    5.5019 N.am      3 UNK        -0.4305 
     75 C         -48.3703  -25.1388    5.9632 C.2       2 UNK         0.5006 
     76 O         -48.9831  -24.0718    5.9464 O.2       2 UNK        -0.5106 
     77 CA        -49.0256  -26.3699    6.6114 C.3       2 UNK         0.0296 
     78 CB        -49.8269  -27.1720    5.5748 C.3       2 UNK        -0.2002 
     79 N         -48.0648  -27.2523    7.2820 N.am      2 UNK        -0.4032 
     80 C         -47.3542  -26.9211    8.3706 C.2       1 UNK         0.5000 
     81 O         -47.4210  -25.8105    8.9117 O.2       1 UNK        -0.5238 
     82 H82       -44.3073  -26.6044   12.0402 H         1 UNK         0.0889 
     83 H83       -43.5202  -25.3266   11.1116 H         1 UNK         0.0889 
     84 H84       -42.7905  -26.9294   11.1983 H         1 UNK         0.0889 
     85 H85       -45.9096  -27.7774   10.9665 H         1 UNK         0.3028 
     86 H86       -45.7600  -28.2989    8.1286 H         1 UNK         0.0864 
     87 H87       -47.3463  -29.9343    8.4474 H         1 UNK         0.0720 
     88 H88       -46.5300  -29.9610    9.9624 H         1 UNK         0.0720 
     89 H89       -49.6764  -31.0428    9.0556 H         1 UNK         0.0814 
     90 H90       -49.6703  -29.6286    8.0294 H         1 UNK         0.0814 
     91 H91       -51.2248  -27.6715    8.6901 H         1 UNK         0.1469 
     92 H92       -55.0782  -28.9747   10.0600 H         1 UNK         0.1381 
     93 H93       -51.7627  -31.6887   10.0507 H         1 UNK         0.1206 
     94 H94       -54.0089  -32.5325   10.4157 H         1 UNK         0.0813 
     95 H95       -55.3899  -31.5090   10.1313 H         1 UNK         0.0813 
     96 H96       -56.6699  -31.5798   13.6742 H         1 UNK         0.0638 
     97 H97       -56.8515  -32.2744   12.0856 H         1 UNK         0.0638 
     98 H98       -57.1017  -30.0859   11.0503 H         1 UNK         0.0568 
     99 H99       -60.2005  -29.3881   13.5556 H         1 UNK         0.3450 
    100 H100      -58.6416  -28.6543   13.8471 H         1 UNK         0.3450 
    101 H101      -55.8916  -29.0129   13.4245 H         1 UNK         0.2987 
    102 H102      -55.0270  -26.3689   12.3974 H         1 UNK         0.0766 
    103 H103      -56.8729  -24.8667   11.7512 H         1 UNK         0.0798 
    104 H104      -56.2440  -24.3770   13.3147 H         1 UNK         0.0798 
    105 H105      -57.7659  -25.2619   13.2126 H         1 UNK         0.0798 
    106 H106      -54.6770  -26.8051   14.5032 H         1 UNK         0.3198 
    107 H107      -56.4716  -26.8845   17.3966 H         1 UNK         0.0843 
    108 H108      -55.6978  -29.6422   16.2856 H         1 UNK         0.0831 
    109 H109      -57.2615  -29.2099   16.9606 H         1 UNK         0.0831 
    110 H110      -55.8449  -29.2265   17.9943 H         1 UNK         0.0831 
    111 H111      -53.8885  -28.0217   16.6864 H         1 UNK         0.3133 
    112 H112      -52.1744  -25.0101   16.2949 H         1 UNK         0.0566 
    113 H113      -50.7387  -25.6565   18.2050 H         1 UNK         0.0814 
    114 H114      -51.9865  -26.7440   18.8175 H         1 UNK         0.0814 
    115 H115      -52.2562  -25.0071   18.7990 H         1 UNK         0.0814 
    116 H116      -51.0322  -27.5237   16.5970 H         1 UNK         0.3091 
    117 H117      -51.2039  -29.3444   14.9730 H         1 UNK         0.0702 
    118 H118      -51.0787  -29.8893   12.5695 H         1 UNK         0.0785 
    119 H119      -51.5268  -28.2469   12.1266 H         1 UNK         0.0785 
    120 H120      -52.6884  -29.2867   12.9319 H         1 UNK         0.0785 
    121 H121      -49.6780  -27.1138   13.7249 H         1 UNK         0.2998 
    122 H122      -46.8095  -27.9253   15.1619 H         1 UNK         0.0697 
    123 H123      -45.4325  -28.6491   13.2021 H         1 UNK         0.0825 
    124 H124      -46.8718  -29.3457   12.4510 H         1 UNK         0.0825 
    125 H125      -46.2581  -29.9965   13.9580 H         1 UNK         0.0825 
    126 H126      -47.5953  -26.8853   12.4787 H         1 UNK         0.3029 
    127 H127      -48.1654  -23.6719   13.6844 H         1 UNK         0.0897 
    128 H128      -45.6271  -24.4413   12.1566 H         1 UNK         0.0792 
    129 H129      -45.6690  -23.5304   13.6568 H         1 UNK         0.0792 
    130 H130      -46.3693  -22.8406   12.2060 H         1 UNK         0.0792 
    131 H131      -47.8867  -24.4840   11.0043 H         1 UNK         0.3086 
    132 H132      -49.9444  -26.0893   10.0259 H         1 UNK         0.0583 
    133 H133      -52.1378  -26.1491   11.1545 H         1 UNK         0.1020 
    134 H134      -52.2819  -24.4199   11.0884 H         1 UNK         0.1020 
    135 H135      -54.4980  -26.5211    9.9717 H         1 UNK         0.0694 
    136 H136      -54.4659  -26.8241    8.2525 H         1 UNK         0.0694 
    137 H137      -49.2397  -24.3818    8.8268 H         1 UNK         0.2989 
    138 H138      -50.2254  -22.1577    7.6659 H         1 UNK         0.1055 
    139 H139      -49.3233  -20.0408    9.6888 H         1 UNK         0.0806 
    140 H140      -50.8926  -20.1519    8.9117 H         1 UNK         0.0806 
    141 H141      -49.4704  -19.7852    7.9500 H         1 UNK         0.0806 
    142 H142      -48.1177  -22.6358    7.2709 H         1 UNK         0.3061 
    143 H143      -45.2657  -21.5807    7.9927 H         1 UNK         0.0734 
    144 H144      -45.4182  -24.0052    9.8466 H         1 UNK         0.0832 
    145 H145      -43.9635  -23.4780    9.0033 H         1 UNK         0.0832 
    146 H146      -44.6861  -22.4512   10.2305 H         1 UNK         0.0832 
    147 H147      -46.1906  -24.3670    7.5043 H         1 UNK         0.3156 
    148 H148      -46.8446  -23.7691    4.1138 H         1 UNK         0.0589 
    149 H149      -44.4059  -25.3200    5.1470 H         1 UNK         0.0808 
    150 H150      -44.3682  -24.0646    3.9171 H         1 UNK         0.0808 
    151 H151      -45.2120  -25.5694    3.5966 H         1 UNK         0.0808 
    152 H152      -46.6985  -26.2056    5.5573 H         1 UNK         0.3098 
    153 H153      -49.7276  -26.0074    7.3647 H         1 UNK         0.0720 
    154 H154      -50.3746  -27.9904    6.0426 H         1 UNK         0.0791 
    155 H155      -49.1839  -27.5942    4.8015 H         1 UNK         0.0791 
    156 H156      -50.5626  -26.5383    5.0771 H         1 UNK         0.0791 
    157 H157      -47.9551  -28.1768    6.8911 H         1 UNK         0.3028 
@<TRIPOS>BOND
     1    1    2 1    
     2    1   82 1    
     3    1   83 1    
     4    1   84 1    
     5    2    3 2    
     6    2    4 am   BACKBONE|DICT|INTERRES
     7    4    5 1    
     8    4   85 1    
     9    5    6 1    
    10    5   80 1    
    11    5   86 1    
    12    6    7 1    
    13    6   87 1    
    14    6   88 1    
    15    7    8 1    
    16    8    9 1    
    17    8   89 1    
    18    8   90 1    
    19    9   10 ar   
    20    9   14 ar   
    21   10   11 ar   
    22   10   91 1    
    23   11   12 ar   
    24   11   58 1    
    25   12   13 ar   
    26   12   92 1    
    27   13   14 ar   
    28   13   15 1    
    29   14   93 1    
    30   15   16 1    
    31   15   94 1    
    32   15   95 1    
    33   16   17 1    
    34   17   18 1    
    35   17   96 1    
    36   17   97 1    
    37   18   19 1    
    38   18   22 1    
    39   18   98 1    
    40   19   20 am   BACKBONE|DICT|INTERRES
    41   19   21 2    
    42   20   99 1    
    43   20  100 1    
    44   22   23 am   BACKBONE|DICT|INTERRES
    45   22  101 1    
    46   23   24 2    
    47   23   25 1    
    48   25   26 1    
    49   25   27 1    
    50   25  102 1    
    51   26  103 1    
    52   26  104 1    
    53   26  105 1    
    54   27   28 am   BACKBONE|DICT|INTERRES
    55   27  106 1    
    56   28   29 2    
    57   28   30 1    
    58   30   31 1    
    59   30   32 1    
    60   30  107 1    
    61   31  108 1    
    62   31  109 1    
    63   31  110 1    
    64   32   33 am   BACKBONE|DICT|INTERRES
    65   32  111 1    
    66   33   34 2    
    67   33   35 1    
    68   35   36 1    
    69   35   37 1    
    70   35  112 1    
    71   36  113 1    
    72   36  114 1    
    73   36  115 1    
    74   37   38 am   BACKBONE|DICT|INTERRES
    75   37  116 1    
    76   38   39 2    
    77   38   40 1    
    78   40   41 1    
    79   40   42 1    
    80   40  117 1    
    81   41  118 1    
    82   41  119 1    
    83   41  120 1    
    84   42   43 am   BACKBONE|DICT|INTERRES
    85   42  121 1    
    86   43   44 2    
    87   43   45 1    
    88   45   46 1    
    89   45   47 1    
    90   45  122 1    
    91   46  123 1    
    92   46  124 1    
    93   46  125 1    
    94   47   48 am   BACKBONE|DICT|INTERRES
    95   47  126 1    
    96   48   49 2    
    97   48   50 1    
    98   50   51 1    
    99   50   52 1    
   100   50  127 1    
   101   51  128 1    
   102   51  129 1    
   103   51  130 1    
   104   52   53 am   BACKBONE|DICT|INTERRES
   105   52  131 1    
   106   53   54 2    
   107   53   55 1    
   108   55   56 1    
   109   55   59 1    
   110   55  132 1    
   111   56   57 1    
   112   56  133 1    
   113   56  134 1    
   114   57   58 1    
   115   58  135 1    
   116   58  136 1    
   117   59   60 am   BACKBONE|DICT|INTERRES
   118   59  137 1    
   119   60   61 2    
   120   60   62 1    
   121   62   63 1    
   122   62   64 1    
   123   62  138 1    
   124   63  139 1    
   125   63  140 1    
   126   63  141 1    
   127   64   65 am   BACKBONE|DICT|INTERRES
   128   64  142 1    
   129   65   66 2    
   130   65   67 1    
   131   67   68 1    
   132   67   69 1    
   133   67  143 1    
   134   68  144 1    
   135   68  145 1    
   136   68  146 1    
   137   69   70 am   BACKBONE|DICT|INTERRES
   138   69  147 1    
   139   70   71 2    
   140   70   72 1    
   141   72   73 1    
   142   72   74 1    
   143   72  148 1    
   144   73  149 1    
   145   73  150 1    
   146   73  151 1    
   147   74   75 am   BACKBONE|DICT|INTERRES
   148   74  152 1    
   149   75   76 2    
   150   75   77 1    
   151   77   78 1    
   152   77   79 1    
   153   77  153 1    
   154   78  154 1    
   155   78  155 1    
   156   78  156 1    
   157   79   80 am   BACKBONE|DICT|INTERRES
   158   79  157 1    
   159   80   81 2    
@<TRIPOS>SUBSTRUCTURE
     1 UNK         1 GROUP             0       ****    0 ROOT    
