@<TRIPOS>MOLECULE
3R207
157   159    1
SMALL
USER_CHARGES


@<TRIPOS>ATOM
      1 CA        -49.6547  -21.0720    9.3111 C.3       0 UNK        -0.1975 
      2 C         -49.5029  -22.5758    9.1507 C.2       0 UNK         0.4852 
      3 O         -48.9743  -23.2347   10.0468 O.2       0 UNK        -0.5216 
      4 N         -49.9942  -23.1384    8.0377 N.am      1 UNK        -0.4461 
      5 CA        -49.8603  -24.5616    7.6920 C.3       1 UNK         0.0864 
      6 C6        -50.7938  -24.9928    6.5319 C.3       14 UNK        -0.0898 
      7 S7        -52.5277  -24.4715    6.7911 S.3       14 UNK        -0.2598 
      8 C8        -53.4637  -26.0318    6.7085 C.3       14 UNK         0.0286 
      9 C9        -53.4007  -26.8253    8.0065 C.ar      14 UNK        -0.0844 
     10 C10       -52.5810  -27.9525    8.1032 C.ar      14 UNK        -0.0881 
     11 C11       -52.5489  -28.7080    9.2796 C.ar      14 UNK        -0.0643 
     12 C12       -53.3511  -28.3356   10.3605 C.ar      14 UNK        -0.0930 
     13 C13       -54.1720  -27.2085   10.2798 C.ar      14 UNK        -0.0827 
     14 C14       -54.1938  -26.4578    9.0993 C.ar      14 UNK        -0.1249 
     15 C15       -55.0262  -26.8066   11.4748 C.3       14 UNK         0.0141 
     16 S16       -56.8092  -26.9670   11.1454 S.3       14 UNK        -0.2313 
     17 C17       -56.9904  -28.7447   10.7765 C.3       14 UNK        -0.0915 
     18 CA        -57.7442  -29.5090   11.8926 C.3       13 UNK         0.0968 
     19 C         -58.2077  -30.9077   11.3903 C.2       13 UNK         0.5732 
     20 N         -57.6826  -32.0128   11.9081 N.am      13 UNK        -0.7310 
     21 O         -59.0723  -30.9911   10.5210 O.2       13 UNK        -0.5035 
     22 N         -56.9662  -29.5664   13.1409 N.am      13 UNK        -0.4233 
     23 C         -57.5041  -29.6948   14.3570 C.2       13 UNK         0.4989 
     24 O         -58.7133  -29.6024   14.5748 O.2       13 UNK        -0.4996 
     25 CA        -56.5706  -30.0050   15.5445 C.3       12 UNK         0.0216 
     26 CB        -56.6175  -31.5101   15.8743 C.3       12 UNK        -0.1964 
     27 N         -55.1731  -29.5515   15.4546 N.am      12 UNK        -0.4276 
     28 C         -54.2067  -29.8847   14.5893 C.2       12 UNK         0.5020 
     29 O         -54.4041  -30.5316   13.5588 O.2       12 UNK        -0.5489 
     30 CA        -52.7815  -29.4129   14.9505 C.3       11 UNK         0.0294 
     31 CB        -51.7188  -29.9610   13.9857 C.3       11 UNK        -0.2019 
     32 N         -52.6463  -27.9546   15.0214 N.am      11 UNK        -0.4493 
     33 C         -53.1317  -27.1809   16.0026 C.2       11 UNK         0.4932 
     34 O         -53.7980  -27.6168   16.9447 O.2       11 UNK        -0.5029 
     35 CA        -52.8110  -25.6795   15.9134 C.3       10 UNK         0.0280 
     36 CB        -53.3606  -24.8686   17.1056 C.3       10 UNK        -0.1976 
     37 N         -51.3800  -25.4217   15.7286 N.am      10 UNK        -0.4242 
     38 C         -50.3606  -25.7743   16.5281 C.2       10 UNK         0.5072 
     39 O         -50.4946  -26.3850   17.5893 O.2       10 UNK        -0.5224 
     40 CA        -48.9383  -25.3908   16.0696 C.3       9 UNK         0.0343 
     41 CB        -48.1812  -26.6438   15.5982 C.3       9 UNK        -0.2003 
     42 N         -48.9150  -24.3940   14.9951 N.am      9 UNK        -0.4272 
     43 C         -49.2139  -23.0939   15.1344 C.2       9 UNK         0.4988 
     44 O         -49.4247  -22.5503   16.2187 O.2       9 UNK        -0.5108 
     45 CA        -49.3695  -22.2813   13.8348 C.3       8 UNK         0.0248 
     46 CB        -48.0091  -21.7927   13.3146 C.3       8 UNK        -0.2001 
     47 N         -50.0561  -23.0435   12.7866 N.am      8 UNK        -0.4140 
     48 C         -51.3309  -23.4568   12.8639 C.2       8 UNK         0.5028 
     49 O         -52.0915  -23.1494   13.7795 O.2       8 UNK        -0.5428 
     50 CA        -51.8344  -24.4201   11.7821 C.3       7 UNK         0.0264 
     51 CB        -52.5264  -23.6537   10.6445 C.3       7 UNK        -0.1988 
     52 N         -50.7475  -25.2571   11.2647 N.am      7 UNK        -0.4454 
     53 C         -50.3920  -26.4279   11.8154 C.2       7 UNK         0.5027 
     54 O         -50.9593  -26.9074   12.8009 O.2       7 UNK        -0.5083 
     55 CA        -49.1738  -27.1606   11.2074 C.3       6 UNK         0.0844 
     56 C56       -49.5378  -28.1263   10.0535 C.3       14 UNK        -0.0967 
     57 S57       -50.3074  -29.6785   10.6153 S.3       14 UNK        -0.2604 
     58 C58       -51.6331  -29.9183    9.3882 C.3       14 UNK         0.0134 
     59 N         -48.1254  -26.2594   10.7449 N.am      6 UNK        -0.4116 
     60 C         -47.3132  -25.5192   11.5037 C.2       5 UNK         0.5034 
     61 O         -47.5001  -25.2981   12.6996 O.2       5 UNK        -0.5045 
     62 CA        -46.0543  -24.9931   10.7794 C.3       5 UNK         0.0224 
     63 CB        -44.9700  -24.4775   11.7488 C.3       5 UNK        -0.1978 
     64 N         -45.5029  -26.0021    9.8517 N.am      5 UNK        -0.4737 
     65 C         -45.0969  -27.2454   10.1675 C.2       4 UNK         0.5027 
     66 O         -44.9654  -27.6426   11.3254 O.2       4 UNK        -0.5211 
     67 CA        -44.8362  -28.2327    9.0139 C.3       4 UNK         0.0297 
     68 CB        -45.3519  -29.6495    9.3436 C.3       4 UNK        -0.1993 
     69 N         -45.4091  -27.7873    7.7386 N.am      4 UNK        -0.4486 
     70 C         -44.9117  -28.1102    6.5350 C.2       3 UNK         0.4961 
     71 O         -43.9310  -28.8370    6.3706 O.2       3 UNK        -0.5105 
     72 CA        -45.6115  -27.5144    5.2969 C.3       3 UNK         0.0299 
     73 CB        -46.7022  -28.4702    4.7874 C.3       3 UNK        -0.1972 
     74 N         -46.2011  -26.1960    5.5407 N.am      3 UNK        -0.4305 
     75 C         -45.5183  -25.1068    5.9175 C.2       2 UNK         0.5006 
     76 O         -44.2891  -25.0622    5.9741 O.2       2 UNK        -0.5106 
     77 CA        -46.3176  -23.8596    6.3384 C.3       2 UNK         0.0296 
     78 CB        -46.1149  -22.7275    5.3167 C.3       2 UNK        -0.2002 
     79 N         -47.7588  -24.0218    6.5742 N.am      2 UNK        -0.4032 
     80 C         -48.3823  -24.8880    7.3899 C.2       1 UNK         0.5000 
     81 O         -47.8351  -25.8470    7.9421 O.2       1 UNK        -0.5238 
     82 H82       -50.2238  -20.6301    8.4935 H         1 UNK         0.0889 
     83 H83       -48.6732  -20.6000    9.3391 H         1 UNK         0.0889 
     84 H84       -50.1679  -20.8447   10.2451 H         1 UNK         0.0889 
     85 H85       -50.4829  -22.5669    7.3625 H         1 UNK         0.3028 
     86 H86       -50.1482  -25.1458    8.5662 H         1 UNK         0.0864 
     87 H87       -50.7544  -26.0757    6.4015 H         1 UNK         0.0720 
     88 H88       -50.4640  -24.5611    5.5851 H         1 UNK         0.0720 
     89 H89       -53.1107  -26.6283    5.8659 H         1 UNK         0.0814 
     90 H90       -54.5065  -25.7965    6.4904 H         1 UNK         0.0814 
     91 H91       -51.9671  -28.2427    7.2617 H         1 UNK         0.1469 
     92 H92       -53.3260  -28.9215   11.2688 H         1 UNK         0.1381 
     93 H93       -54.8331  -25.5882    9.0303 H         1 UNK         0.1206 
     94 H94       -54.8148  -25.7683   11.7312 H         1 UNK         0.0813 
     95 H95       -54.7716  -27.3984   12.3558 H         1 UNK         0.0813 
     96 H96       -56.0188  -29.2043   10.5942 H         1 UNK         0.0638 
     97 H97       -57.5325  -28.8084    9.8312 H         1 UNK         0.0638 
     98 H98       -58.6642  -28.9564   12.0927 H         1 UNK         0.0568 
     99 H99       -57.9979  -32.9105   11.5761 H         1 UNK         0.3450 
    100 H100      -56.9586  -31.9572   12.6062 H         1 UNK         0.3450 
    101 H101      -55.9695  -29.7503   13.0539 H         1 UNK         0.2987 
    102 H102      -56.9897  -29.4705   16.3986 H         1 UNK         0.0766 
    103 H103      -56.0731  -31.7314   16.7923 H         1 UNK         0.0798 
    104 H104      -56.1860  -32.1144   15.0758 H         1 UNK         0.0798 
    105 H105      -57.6443  -31.8493   16.0195 H         1 UNK         0.0798 
    106 H106      -54.8766  -28.9300   16.2062 H         1 UNK         0.3198 
    107 H107      -52.5583  -29.8202   15.9391 H         1 UNK         0.0843 
    108 H108      -51.8796  -29.5861   12.9769 H         1 UNK         0.0831 
    109 H109      -51.7495  -31.0502   13.9393 H         1 UNK         0.0831 
    110 H110      -50.7124  -29.6747   14.2916 H         1 UNK         0.0831 
    111 H111      -52.1025  -27.5207   14.2781 H         1 UNK         0.3133 
    112 H112      -53.3077  -25.3162   15.0128 H         1 UNK         0.0566 
    113 H113      -53.1510  -23.8052   16.9886 H         1 UNK         0.0814 
    114 H114      -52.9283  -25.1940   18.0524 H         1 UNK         0.0814 
    115 H115      -54.4426  -24.9784   17.1870 H         1 UNK         0.0814 
    116 H116      -51.1491  -24.9029   14.8928 H         1 UNK         0.3091 
    117 H117      -48.4150  -24.9757   16.9333 H         1 UNK         0.0702 
    118 H118      -47.1526  -26.4067   15.3251 H         1 UNK         0.0785 
    119 H119      -48.6607  -27.0994   14.7304 H         1 UNK         0.0785 
    120 H120      -48.1421  -27.3988   16.3845 H         1 UNK         0.0785 
    121 H121      -48.6408  -24.7330   14.0753 H         1 UNK         0.2998 
    122 H122      -49.9798  -21.4048   14.0625 H         1 UNK         0.0697 
    123 H123      -47.3533  -22.6238   13.0586 H         1 UNK         0.0825 
    124 H124      -47.4967  -21.1923   14.0673 H         1 UNK         0.0825 
    125 H125      -48.1236  -21.1721   12.4256 H         1 UNK         0.0825 
    126 H126      -49.5076  -23.3019   11.9725 H         1 UNK         0.3029 
    127 H127      -52.5849  -25.0681   12.2389 H         1 UNK         0.0897 
    128 H128      -53.5218  -23.3329   10.9532 H         1 UNK         0.0792 
    129 H129      -52.6462  -24.2726    9.7574 H         1 UNK         0.0792 
    130 H130      -51.9848  -22.7553   10.3564 H         1 UNK         0.0792 
    131 H131      -50.1632  -24.8550   10.5416 H         1 UNK         0.3086 
    132 H132      -48.7313  -27.7514   12.0128 H         1 UNK         0.0583 
    133 H133      -50.1489  -27.6164    9.3101 H         1 UNK         0.1020 
    134 H134      -48.6354  -28.4258    9.5178 H         1 UNK         0.1020 
    135 H135      -51.1812  -30.1524    8.4231 H         1 UNK         0.0694 
    136 H136      -52.2235  -30.7907    9.6716 H         1 UNK         0.0694 
    137 H137      -47.9144  -26.2950    9.7522 H         1 UNK         0.2989 
    138 H138      -46.3847  -24.1499   10.1703 H         1 UNK         0.1055 
    139 H139      -45.3386  -23.6380   12.3378 H         1 UNK         0.0806 
    140 H140      -44.0885  -24.1310   11.2098 H         1 UNK         0.0806 
    141 H141      -44.6527  -25.2485   12.4515 H         1 UNK         0.0806 
    142 H142      -45.5560  -25.7611    8.8728 H         1 UNK         0.3061 
    143 H143      -43.7498  -28.2797    8.9121 H         1 UNK         0.0734 
    144 H144      -45.1136  -30.3571    8.5495 H         1 UNK         0.0832 
    145 H145      -44.8972  -30.0345   10.2572 H         1 UNK         0.0832 
    146 H146      -46.4326  -29.6591    9.4874 H         1 UNK         0.0832 
    147 H147      -46.2454  -27.2137    7.7811 H         1 UNK         0.3156 
    148 H148      -44.8592  -27.4019    4.5135 H         1 UNK         0.0589 
    149 H149      -47.4987  -28.6033    5.5209 H         1 UNK         0.0808 
    150 H150      -47.1519  -28.1047    3.8639 H         1 UNK         0.0808 
    151 H151      -46.2873  -29.4566    4.5749 H         1 UNK         0.0808 
    152 H152      -47.2088  -26.1412    5.5358 H         1 UNK         0.3098 
    153 H153      -45.8876  -23.5327    7.2872 H         1 UNK         0.0720 
    154 H154      -46.5489  -21.7909    5.6674 H         1 UNK         0.0791 
    155 H155      -46.5673  -22.9694    4.3541 H         1 UNK         0.0791 
    156 H156      -45.0547  -22.5397    5.1397 H         1 UNK         0.0791 
    157 H157      -48.3322  -23.2891    6.1824 H         1 UNK         0.3028 
@<TRIPOS>BOND
     1    1    2 1    
     2    1   82 1    
     3    1   83 1    
     4    1   84 1    
     5    2    3 2    
     6    2    4 am   BACKBONE|DICT|INTERRES
     7    4    5 1    
     8    4   85 1    
     9    5    6 1    
    10    5   80 1    
    11    5   86 1    
    12    6    7 1    
    13    6   87 1    
    14    6   88 1    
    15    7    8 1    
    16    8    9 1    
    17    8   89 1    
    18    8   90 1    
    19    9   10 ar   
    20    9   14 ar   
    21   10   11 ar   
    22   10   91 1    
    23   11   12 ar   
    24   11   58 1    
    25   12   13 ar   
    26   12   92 1    
    27   13   14 ar   
    28   13   15 1    
    29   14   93 1    
    30   15   16 1    
    31   15   94 1    
    32   15   95 1    
    33   16   17 1    
    34   17   18 1    
    35   17   96 1    
    36   17   97 1    
    37   18   19 1    
    38   18   22 1    
    39   18   98 1    
    40   19   20 am   BACKBONE|DICT|INTERRES
    41   19   21 2    
    42   20   99 1    
    43   20  100 1    
    44   22   23 am   BACKBONE|DICT|INTERRES
    45   22  101 1    
    46   23   24 2    
    47   23   25 1    
    48   25   26 1    
    49   25   27 1    
    50   25  102 1    
    51   26  103 1    
    52   26  104 1    
    53   26  105 1    
    54   27   28 am   BACKBONE|DICT|INTERRES
    55   27  106 1    
    56   28   29 2    
    57   28   30 1    
    58   30   31 1    
    59   30   32 1    
    60   30  107 1    
    61   31  108 1    
    62   31  109 1    
    63   31  110 1    
    64   32   33 am   BACKBONE|DICT|INTERRES
    65   32  111 1    
    66   33   34 2    
    67   33   35 1    
    68   35   36 1    
    69   35   37 1    
    70   35  112 1    
    71   36  113 1    
    72   36  114 1    
    73   36  115 1    
    74   37   38 am   BACKBONE|DICT|INTERRES
    75   37  116 1    
    76   38   39 2    
    77   38   40 1    
    78   40   41 1    
    79   40   42 1    
    80   40  117 1    
    81   41  118 1    
    82   41  119 1    
    83   41  120 1    
    84   42   43 am   BACKBONE|DICT|INTERRES
    85   42  121 1    
    86   43   44 2    
    87   43   45 1    
    88   45   46 1    
    89   45   47 1    
    90   45  122 1    
    91   46  123 1    
    92   46  124 1    
    93   46  125 1    
    94   47   48 am   BACKBONE|DICT|INTERRES
    95   47  126 1    
    96   48   49 2    
    97   48   50 1    
    98   50   51 1    
    99   50   52 1    
   100   50  127 1    
   101   51  128 1    
   102   51  129 1    
   103   51  130 1    
   104   52   53 am   BACKBONE|DICT|INTERRES
   105   52  131 1    
   106   53   54 2    
   107   53   55 1    
   108   55   56 1    
   109   55   59 1    
   110   55  132 1    
   111   56   57 1    
   112   56  133 1    
   113   56  134 1    
   114   57   58 1    
   115   58  135 1    
   116   58  136 1    
   117   59   60 am   BACKBONE|DICT|INTERRES
   118   59  137 1    
   119   60   61 2    
   120   60   62 1    
   121   62   63 1    
   122   62   64 1    
   123   62  138 1    
   124   63  139 1    
   125   63  140 1    
   126   63  141 1    
   127   64   65 am   BACKBONE|DICT|INTERRES
   128   64  142 1    
   129   65   66 2    
   130   65   67 1    
   131   67   68 1    
   132   67   69 1    
   133   67  143 1    
   134   68  144 1    
   135   68  145 1    
   136   68  146 1    
   137   69   70 am   BACKBONE|DICT|INTERRES
   138   69  147 1    
   139   70   71 2    
   140   70   72 1    
   141   72   73 1    
   142   72   74 1    
   143   72  148 1    
   144   73  149 1    
   145   73  150 1    
   146   73  151 1    
   147   74   75 am   BACKBONE|DICT|INTERRES
   148   74  152 1    
   149   75   76 2    
   150   75   77 1    
   151   77   78 1    
   152   77   79 1    
   153   77  153 1    
   154   78  154 1    
   155   78  155 1    
   156   78  156 1    
   157   79   80 am   BACKBONE|DICT|INTERRES
   158   79  157 1    
   159   80   81 2    
@<TRIPOS>SUBSTRUCTURE
     1 UNK         1 GROUP             0       ****    0 ROOT    
