@<TRIPOS>MOLECULE
3R207
157   159    1
SMALL
USER_CHARGES


@<TRIPOS>ATOM
      1 CA        -50.2232  -32.9051    5.0198 C.3       0 UNK        -0.1975 
      2 C         -49.1043  -31.9663    5.4459 C.2       0 UNK         0.4852 
      3 O         -47.9492  -32.3860    5.5238 O.2       0 UNK        -0.5216 
      4 N         -49.4375  -30.6989    5.7252 N.am      1 UNK        -0.4461 
      5 CA        -48.4968  -29.6578    6.1597 C.3       1 UNK         0.0864 
      6 C6        -49.0945  -28.2407    5.9671 C.3       14 UNK        -0.0898 
      7 S7        -50.5902  -27.9318    6.9693 S.3       14 UNK        -0.2598 
      8 C8        -51.1452  -26.3484    6.2600 C.3       14 UNK         0.0286 
      9 C9        -52.1613  -25.6173    7.1343 C.ar      14 UNK        -0.0844 
     10 C10       -52.0642  -24.2303    7.2849 C.ar      14 UNK        -0.0881 
     11 C11       -52.9900  -23.5223    8.0623 C.ar      14 UNK        -0.0643 
     12 C12       -54.0182  -24.2260    8.6978 C.ar      14 UNK        -0.0930 
     13 C13       -54.1379  -25.6111    8.5481 C.ar      14 UNK        -0.0827 
     14 C14       -53.2110  -26.2992    7.7608 C.ar      14 UNK        -0.1249 
     15 C15       -55.2992  -26.3516    9.1974 C.3       14 UNK         0.0141 
     16 S16       -55.0279  -26.6291   10.9745 S.3       14 UNK        -0.2313 
     17 C17       -53.9030  -28.0655   10.9747 C.3       14 UNK        -0.0915 
     18 CA        -54.5728  -29.3560   11.5066 C.3       13 UNK         0.0968 
     19 C         -53.6404  -30.5858   11.2870 C.2       13 UNK         0.5732 
     20 N         -53.1525  -31.2638   12.3197 N.am      13 UNK        -0.7310 
     21 O         -53.3594  -30.9383   10.1443 O.2       13 UNK        -0.5035 
     22 N         -55.0560  -29.1851   12.8869 N.am      13 UNK        -0.4233 
     23 C         -55.9315  -29.9999   13.4880 C.2       13 UNK         0.4989 
     24 O         -56.5079  -30.9232   12.9088 O.2       13 UNK        -0.4996 
     25 CA        -56.1999  -29.7486   14.9877 C.3       12 UNK         0.0216 
     26 CB        -56.8360  -30.9699   15.6848 C.3       12 UNK        -0.1964 
     27 N         -55.0245  -29.2987   15.7483 N.am      12 UNK        -0.4276 
     28 C         -53.8152  -29.8753   15.8245 C.2       12 UNK         0.5020 
     29 O         -53.5005  -30.8788   15.1820 O.2       12 UNK        -0.5489 
     30 CA        -52.7819  -29.2122   16.7631 C.3       11 UNK         0.0294 
     31 CB        -51.3497  -29.7187   16.5075 C.3       11 UNK        -0.2019 
     32 N         -52.7913  -27.7473   16.6762 N.am      11 UNK        -0.4493 
     33 C         -53.6821  -26.9420   17.2765 C.2       11 UNK         0.4932 
     34 O         -54.5877  -27.3632   17.9960 O.2       11 UNK        -0.5029 
     35 CA        -53.5994  -25.4272   17.0024 C.3       10 UNK         0.0280 
     36 CB        -52.8895  -24.7132   18.1638 C.3       10 UNK        -0.1976 
     37 N         -52.9337  -25.0770   15.7461 N.am      10 UNK        -0.4242 
     38 C         -53.3171  -25.4643   14.5204 C.2       10 UNK         0.5072 
     39 O         -54.3381  -26.1160   14.2974 O.2       10 UNK        -0.5224 
     40 CA        -52.3675  -25.1171   13.3570 C.3       9 UNK         0.0343 
     41 CB        -52.8570  -23.8659   12.6107 C.3       9 UNK        -0.2003 
     42 N         -50.9581  -24.9490   13.7465 N.am      9 UNK        -0.4272 
     43 C         -50.2086  -25.8910   14.3460 C.2       9 UNK         0.4988 
     44 O         -50.6493  -26.9966   14.6608 O.2       9 UNK        -0.5108 
     45 CA        -48.7466  -25.5464   14.6802 C.3       8 UNK         0.0248 
     46 CB        -47.8089  -26.7592   14.5288 C.3       8 UNK        -0.2001 
     47 N         -48.2438  -24.4464   13.8565 N.am      8 UNK        -0.4140 
     48 C         -47.9554  -23.2183   14.3031 C.2       8 UNK         0.5028 
     49 O         -48.0713  -22.8649   15.4773 O.2       8 UNK        -0.5428 
     50 CA        -47.4649  -22.2017   13.2600 C.3       7 UNK         0.0264 
     51 CB        -45.9353  -22.2686   13.1218 C.3       7 UNK        -0.1988 
     52 N         -48.0709  -22.3749   11.9383 N.am      7 UNK        -0.4454 
     53 C         -49.3629  -22.1812   11.6378 C.2       7 UNK         0.5027 
     54 O         -50.2086  -21.9050   12.4895 O.2       7 UNK        -0.5083 
     55 CA        -49.7999  -22.3246   10.1572 C.3       6 UNK         0.0844 
     56 C56       -50.7521  -21.1668    9.7488 C.3       14 UNK        -0.0967 
     57 S57       -51.3120  -21.2357    8.0129 S.3       14 UNK        -0.2604 
     58 C58       -52.9669  -21.9961    8.1557 C.3       14 UNK         0.0134 
     59 N         -48.6779  -22.5374    9.2293 N.am      6 UNK        -0.4116 
     60 C         -47.7036  -21.6794    8.8948 C.2       5 UNK         0.5034 
     61 O         -47.6292  -20.5273    9.3243 O.2       5 UNK        -0.5045 
     62 CA        -46.5938  -22.2334    7.9735 C.3       5 UNK         0.0224 
     63 CB        -45.4077  -21.2619    7.8234 C.3       5 UNK        -0.1978 
     64 N         -46.0872  -23.5289    8.4467 N.am      5 UNK        -0.4737 
     65 C         -46.6960  -24.7062    8.2558 C.2       4 UNK         0.5027 
     66 O         -47.7281  -24.8217    7.5916 O.2       4 UNK        -0.5211 
     67 CA        -46.1133  -25.9489    8.9597 C.3       4 UNK         0.0297 
     68 CB        -44.9885  -25.6452    9.9766 C.3       4 UNK        -0.1993 
     69 N         -47.1924  -26.7261    9.5790 N.am      4 UNK        -0.4486 
     70 C         -48.0372  -26.3003   10.5333 C.2       3 UNK         0.4961 
     71 O         -47.8930  -25.2494   11.1584 O.2       3 UNK        -0.5105 
     72 CA        -49.3014  -27.1336   10.8030 C.3       3 UNK         0.0299 
     73 CB        -50.5169  -26.3700   10.2581 C.3       3 UNK        -0.1972 
     74 N         -49.2590  -28.4683   10.2061 N.am      3 UNK        -0.4305 
     75 C         -48.5515  -29.4975   10.6961 C.2       2 UNK         0.5006 
     76 O         -47.9162  -29.4504   11.7493 O.2       2 UNK        -0.5106 
     77 CA        -48.5198  -30.7926    9.8614 C.3       2 UNK         0.0296 
     78 CB        -49.5443  -31.8032   10.4021 C.3       2 UNK        -0.2002 
     79 N         -48.7602  -30.5846    8.4297 N.am      2 UNK        -0.4032 
     80 C         -47.9939  -29.8497    7.6078 C.2       1 UNK         0.5000 
     81 O         -46.9600  -29.2834    7.9672 O.2       1 UNK        -0.5238 
     82 H82       -50.0188  -33.3057    4.0273 H         1 UNK         0.0889 
     83 H83       -51.1892  -32.4013    4.9893 H         1 UNK         0.0889 
     84 H84       -50.2979  -33.7401    5.7158 H         1 UNK         0.0889 
     85 H85       -50.4003  -30.4028    5.6394 H         1 UNK         0.3028 
     86 H86       -47.6147  -29.7281    5.5193 H         1 UNK         0.0864 
     87 H87       -48.3521  -27.4768    6.2093 H         1 UNK         0.0720 
     88 H88       -49.3429  -28.0890    4.9154 H         1 UNK         0.0720 
     89 H89       -51.5826  -26.5282    5.2772 H         1 UNK         0.0814 
     90 H90       -50.2680  -25.7178    6.1035 H         1 UNK         0.0814 
     91 H91       -51.2747  -23.6992    6.7720 H         1 UNK         0.1469 
     92 H92       -54.7491  -23.6920    9.2897 H         1 UNK         0.1381 
     93 H93       -53.3101  -27.3679    7.6313 H         1 UNK         0.1206 
     94 H94       -55.4830  -27.3053    8.7002 H         1 UNK         0.0813 
     95 H95       -56.2115  -25.7667    9.0724 H         1 UNK         0.0813 
     96 H96       -53.0393  -27.8274   11.5943 H         1 UNK         0.0638 
     97 H97       -53.5213  -28.2152    9.9636 H         1 UNK         0.0638 
     98 H98       -55.4491  -29.5433   10.8832 H         1 UNK         0.0568 
     99 H99       -53.3770  -31.0121   13.2787 H         1 UNK         0.3450 
    100 H100      -52.5627  -32.0599   12.1435 H         1 UNK         0.3450 
    101 H101      -54.6494  -28.4249   13.4149 H         1 UNK         0.2987 
    102 H102      -56.9204  -28.9306   15.0288 H         1 UNK         0.0766 
    103 H103      -57.7790  -31.2480   15.2123 H         1 UNK         0.0798 
    104 H104      -57.0517  -30.7614   16.7327 H         1 UNK         0.0798 
    105 H105      -56.1807  -31.8409   15.6444 H         1 UNK         0.0798 
    106 H106      -55.1639  -28.4771   16.3266 H         1 UNK         0.3198 
    107 H107      -53.0539  -29.5006   17.7807 H         1 UNK         0.0843 
    108 H108      -51.0334  -29.5289   15.4810 H         1 UNK         0.0831 
    109 H109      -51.2790  -30.7941   16.6751 H         1 UNK         0.0831 
    110 H110      -50.6318  -29.2403   17.1737 H         1 UNK         0.0831 
    111 H111      -52.1041  -27.3390   16.0490 H         1 UNK         0.3133 
    112 H112      -54.6231  -25.0520   16.9436 H         1 UNK         0.0566 
    113 H113      -52.9043  -23.6308   18.0349 H         1 UNK         0.0814 
    114 H114      -51.8492  -25.0280   18.2563 H         1 UNK         0.0814 
    115 H115      -53.3806  -24.9299   19.1137 H         1 UNK         0.0814 
    116 H116      -52.0804  -24.5433   15.8212 H         1 UNK         0.3091 
    117 H117      -52.4053  -25.9554   12.6627 H         1 UNK         0.0702 
    118 H118      -52.2959  -23.7059   11.6907 H         1 UNK         0.0785 
    119 H119      -52.7664  -22.9680   13.2229 H         1 UNK         0.0785 
    120 H120      -53.9060  -23.9653   12.3277 H         1 UNK         0.0785 
    121 H121      -50.5359  -24.0522   13.5431 H         1 UNK         0.2998 
    122 H122      -48.7415  -25.2624   15.7342 H         1 UNK         0.0697 
    123 H123      -47.7615  -27.1156   13.5006 H         1 UNK         0.0825 
    124 H124      -48.1371  -27.5948   15.1484 H         1 UNK         0.0825 
    125 H125      -46.7940  -26.5108   14.8389 H         1 UNK         0.0825 
    126 H126      -48.1150  -24.6461   12.8643 H         1 UNK         0.3029 
    127 H127      -47.7347  -21.2067   13.6205 H         1 UNK         0.0897 
    128 H128      -45.6063  -23.2373   12.7431 H         1 UNK         0.0792 
    129 H129      -45.4494  -22.1133   14.0862 H         1 UNK         0.0792 
    130 H130      -45.5634  -21.4984   12.4455 H         1 UNK         0.0792 
    131 H131      -47.4579  -22.6702   11.1931 H         1 UNK         0.3086 
    132 H132      -50.3795  -23.2467   10.1122 H         1 UNK         0.0583 
    133 H133      -51.6258  -21.1436   10.4026 H         1 UNK         0.1020 
    134 H134      -50.2563  -20.2051    9.8933 H         1 UNK         0.1020 
    135 H135      -53.4445  -21.6611    9.0776 H         1 UNK         0.0694 
    136 H136      -53.5813  -21.6090    7.3420 H         1 UNK         0.0694 
    137 H137      -48.6283  -23.4602    8.8102 H         1 UNK         0.2989 
    138 H138      -47.0414  -22.3654    6.9855 H         1 UNK         0.1055 
    139 H139      -44.9227  -21.0644    8.7802 H         1 UNK         0.0806 
    140 H140      -45.7355  -20.3030    7.4195 H         1 UNK         0.0806 
    141 H141      -44.6553  -21.6565    7.1402 H         1 UNK         0.0806 
    142 H142      -45.2597  -23.5068    9.0256 H         1 UNK         0.3061 
    143 H143      -45.6943  -26.5790    8.1737 H         1 UNK         0.0734 
    144 H144      -45.3100  -24.9594   10.7610 H         1 UNK         0.0832 
    145 H145      -44.6480  -26.5595   10.4626 H         1 UNK         0.0832 
    146 H146      -44.1189  -25.2069    9.4857 H         1 UNK         0.0832 
    147 H147      -47.3912  -27.6087    9.1210 H         1 UNK         0.3156 
    148 H148      -49.4240  -27.2474   11.8800 H         1 UNK         0.0589 
    149 H149      -50.3465  -26.0187    9.2404 H         1 UNK         0.0808 
    150 H150      -51.4156  -26.9810   10.2483 H         1 UNK         0.0808 
    151 H151      -50.7253  -25.4909   10.8659 H         1 UNK         0.0808 
    152 H152      -49.7528  -28.5888    9.3320 H         1 UNK         0.3098 
    153 H153      -47.5220  -31.2231    9.9682 H         1 UNK         0.0720 
    154 H154      -49.4710  -32.7601    9.8848 H         1 UNK         0.0791 
    155 H155      -50.5664  -31.4383   10.2927 H         1 UNK         0.0791 
    156 H156      -49.3798  -31.9968   11.4631 H         1 UNK         0.0791 
    157 H157      -49.5964  -30.9991    8.0447 H         1 UNK         0.3028 
@<TRIPOS>BOND
     1    1    2 1    
     2    1   82 1    
     3    1   83 1    
     4    1   84 1    
     5    2    3 2    
     6    2    4 am   BACKBONE|DICT|INTERRES
     7    4    5 1    
     8    4   85 1    
     9    5    6 1    
    10    5   80 1    
    11    5   86 1    
    12    6    7 1    
    13    6   87 1    
    14    6   88 1    
    15    7    8 1    
    16    8    9 1    
    17    8   89 1    
    18    8   90 1    
    19    9   10 ar   
    20    9   14 ar   
    21   10   11 ar   
    22   10   91 1    
    23   11   12 ar   
    24   11   58 1    
    25   12   13 ar   
    26   12   92 1    
    27   13   14 ar   
    28   13   15 1    
    29   14   93 1    
    30   15   16 1    
    31   15   94 1    
    32   15   95 1    
    33   16   17 1    
    34   17   18 1    
    35   17   96 1    
    36   17   97 1    
    37   18   19 1    
    38   18   22 1    
    39   18   98 1    
    40   19   20 am   BACKBONE|DICT|INTERRES
    41   19   21 2    
    42   20   99 1    
    43   20  100 1    
    44   22   23 am   BACKBONE|DICT|INTERRES
    45   22  101 1    
    46   23   24 2    
    47   23   25 1    
    48   25   26 1    
    49   25   27 1    
    50   25  102 1    
    51   26  103 1    
    52   26  104 1    
    53   26  105 1    
    54   27   28 am   BACKBONE|DICT|INTERRES
    55   27  106 1    
    56   28   29 2    
    57   28   30 1    
    58   30   31 1    
    59   30   32 1    
    60   30  107 1    
    61   31  108 1    
    62   31  109 1    
    63   31  110 1    
    64   32   33 am   BACKBONE|DICT|INTERRES
    65   32  111 1    
    66   33   34 2    
    67   33   35 1    
    68   35   36 1    
    69   35   37 1    
    70   35  112 1    
    71   36  113 1    
    72   36  114 1    
    73   36  115 1    
    74   37   38 am   BACKBONE|DICT|INTERRES
    75   37  116 1    
    76   38   39 2    
    77   38   40 1    
    78   40   41 1    
    79   40   42 1    
    80   40  117 1    
    81   41  118 1    
    82   41  119 1    
    83   41  120 1    
    84   42   43 am   BACKBONE|DICT|INTERRES
    85   42  121 1    
    86   43   44 2    
    87   43   45 1    
    88   45   46 1    
    89   45   47 1    
    90   45  122 1    
    91   46  123 1    
    92   46  124 1    
    93   46  125 1    
    94   47   48 am   BACKBONE|DICT|INTERRES
    95   47  126 1    
    96   48   49 2    
    97   48   50 1    
    98   50   51 1    
    99   50   52 1    
   100   50  127 1    
   101   51  128 1    
   102   51  129 1    
   103   51  130 1    
   104   52   53 am   BACKBONE|DICT|INTERRES
   105   52  131 1    
   106   53   54 2    
   107   53   55 1    
   108   55   56 1    
   109   55   59 1    
   110   55  132 1    
   111   56   57 1    
   112   56  133 1    
   113   56  134 1    
   114   57   58 1    
   115   58  135 1    
   116   58  136 1    
   117   59   60 am   BACKBONE|DICT|INTERRES
   118   59  137 1    
   119   60   61 2    
   120   60   62 1    
   121   62   63 1    
   122   62   64 1    
   123   62  138 1    
   124   63  139 1    
   125   63  140 1    
   126   63  141 1    
   127   64   65 am   BACKBONE|DICT|INTERRES
   128   64  142 1    
   129   65   66 2    
   130   65   67 1    
   131   67   68 1    
   132   67   69 1    
   133   67  143 1    
   134   68  144 1    
   135   68  145 1    
   136   68  146 1    
   137   69   70 am   BACKBONE|DICT|INTERRES
   138   69  147 1    
   139   70   71 2    
   140   70   72 1    
   141   72   73 1    
   142   72   74 1    
   143   72  148 1    
   144   73  149 1    
   145   73  150 1    
   146   73  151 1    
   147   74   75 am   BACKBONE|DICT|INTERRES
   148   74  152 1    
   149   75   76 2    
   150   75   77 1    
   151   77   78 1    
   152   77   79 1    
   153   77  153 1    
   154   78  154 1    
   155   78  155 1    
   156   78  156 1    
   157   79   80 am   BACKBONE|DICT|INTERRES
   158   79  157 1    
   159   80   81 2    
@<TRIPOS>SUBSTRUCTURE
     1 UNK         1 GROUP             0       ****    0 ROOT    
