@<TRIPOS>MOLECULE
3R207
157   159    1
SMALL
USER_CHARGES


@<TRIPOS>ATOM
      1 CA        -48.2675  -24.6567    1.9930 C.3       0 UNK        -0.1975 
      2 C         -48.5090  -25.0620    3.4390 C.2       0 UNK         0.4852 
      3 O         -47.5481  -25.2954    4.1728 O.2       0 UNK        -0.5216 
      4 N         -49.7840  -25.1251    3.8559 N.am      1 UNK        -0.4461 
      5 CA        -50.2522  -25.5333    5.1905 C.3       1 UNK         0.0864 
      6 C6        -50.1348  -27.0684    5.4034 C.3       14 UNK        -0.0898 
      7 S7        -51.2866  -27.6932    6.6732 S.3       14 UNK        -0.2598 
      8 C8        -51.1062  -29.4886    6.4521 C.3       14 UNK         0.0286 
      9 C9        -51.4482  -30.2244    7.7384 C.ar      14 UNK        -0.0844 
     10 C10       -50.4383  -30.5192    8.6586 C.ar      14 UNK        -0.0881 
     11 C11       -50.7343  -31.1688    9.8603 C.ar      14 UNK        -0.0643 
     12 C12       -52.0533  -31.5523   10.1211 C.ar      14 UNK        -0.0930 
     13 C13       -53.0751  -31.2517    9.2160 C.ar      14 UNK        -0.0827 
     14 C14       -52.7676  -30.5917    8.0218 C.ar      14 UNK        -0.1249 
     15 C15       -54.5103  -31.6177    9.5557 C.3       14 UNK         0.0141 
     16 S16       -55.2195  -30.4025   10.7093 S.3       14 UNK        -0.2313 
     17 C17       -56.7365  -31.2577   11.2547 C.3       14 UNK        -0.0915 
     18 CA        -58.0017  -30.3446   11.2303 C.3       13 UNK         0.0968 
     19 C         -59.3135  -31.0884   11.6323 C.2       13 UNK         0.5732 
     20 N         -59.4814  -32.3452   11.2414 N.am      13 UNK        -0.7310 
     21 O         -60.2127  -30.5241   12.2545 O.2       13 UNK        -0.5035 
     22 N         -57.8214  -29.0729   11.9551 N.am      13 UNK        -0.4233 
     23 C         -57.5555  -28.9352   13.2600 C.2       13 UNK         0.4989 
     24 O         -57.3781  -29.8720   14.0435 O.2       13 UNK        -0.4996 
     25 CA        -57.5140  -27.4965   13.7920 C.3       12 UNK         0.0216 
     26 CB        -58.8447  -27.1392   14.4756 C.3       12 UNK        -0.1964 
     27 N         -56.4252  -27.3618   14.7595 N.am      12 UNK        -0.4276 
     28 C         -55.2090  -26.8889   14.4678 C.2       12 UNK         0.5020 
     29 O         -54.8862  -26.4548   13.3585 O.2       12 UNK        -0.5489 
     30 CA        -54.1694  -26.9359   15.5998 C.3       11 UNK         0.0294 
     31 CB        -53.3379  -28.2265   15.5163 C.3       11 UNK        -0.2019 
     32 N         -53.2724  -25.7829   15.5255 N.am      11 UNK        -0.4493 
     33 C         -53.5913  -24.5481   15.9355 C.2       11 UNK         0.4932 
     34 O         -54.6512  -24.2735   16.5025 O.2       11 UNK        -0.5029 
     35 CA        -52.5545  -23.4399   15.6605 C.3       10 UNK         0.0280 
     36 CB        -52.8425  -22.1313   16.4271 C.3       10 UNK        -0.1976 
     37 N         -51.1713  -23.8796   15.8734 N.am      10 UNK        -0.4242 
     38 C         -50.6119  -24.3146   17.0134 C.2       10 UNK         0.5072 
     39 O         -51.1995  -24.3516   18.0957 O.2       10 UNK        -0.5224 
     40 CA        -49.1542  -24.8157   16.9492 C.3       9 UNK         0.0343 
     41 CB        -49.1079  -26.3370   17.1724 C.3       9 UNK        -0.2003 
     42 N         -48.4725  -24.5051   15.6893 N.am      9 UNK        -0.4272 
     43 C         -48.0088  -23.2980   15.3358 C.2       9 UNK         0.4988 
     44 O         -48.0286  -22.3131   16.0744 O.2       9 UNK        -0.5108 
     45 CA        -47.4750  -23.1556   13.8968 C.3       8 UNK         0.0248 
     46 CB        -46.0081  -23.6047   13.8086 C.3       8 UNK        -0.2001 
     47 N         -48.2804  -23.8891   12.9127 N.am      8 UNK        -0.4140 
     48 C         -49.5752  -23.6423   12.6601 C.2       8 UNK         0.5028 
     49 O         -50.2143  -22.7317   13.1856 O.2       8 UNK        -0.5428 
     50 CA        -50.3031  -24.6075   11.7154 C.3       7 UNK         0.0264 
     51 CB        -50.0761  -24.2195   10.2488 C.3       7 UNK        -0.1988 
     52 N         -49.9028  -25.9971   11.9378 N.am      7 UNK        -0.4454 
     53 C         -50.2657  -26.7155   13.0113 C.2       7 UNK         0.5027 
     54 O         -50.9968  -26.2852   13.9032 O.2       7 UNK        -0.5083 
     55 CA        -49.6921  -28.1419   13.1282 C.3       6 UNK         0.0844 
     56 C56       -50.5492  -29.1311   12.3054 C.3       14 UNK        -0.0967 
     57 S57       -50.0577  -30.8711   12.5668 S.3       14 UNK        -0.2604 
     58 C58       -49.6285  -31.4266   10.8797 C.3       14 UNK         0.0134 
     59 N         -48.2752  -28.1950   12.7587 N.am      6 UNK        -0.4116 
     60 C         -47.2877  -27.5448   13.3896 C.2       5 UNK         0.5034 
     61 O         -47.4498  -26.8591   14.3970 O.2       5 UNK        -0.5045 
     62 CA        -45.8900  -27.6286   12.7533 C.3       5 UNK         0.0224 
     63 CB        -45.1251  -28.8470   13.2935 C.3       5 UNK        -0.1978 
     64 N         -45.9235  -27.6782   11.2870 N.am      5 UNK        -0.4737 
     65 C         -46.4348  -26.7201   10.5020 C.2       4 UNK         0.5027 
     66 O         -46.9358  -25.6774   10.9306 O.2       4 UNK        -0.5211 
     67 CA        -46.4705  -27.0400    9.0010 C.3       4 UNK         0.0297 
     68 CB        -47.7437  -27.8334    8.6676 C.3       4 UNK        -0.1993 
     69 N         -46.4127  -25.8345    8.1723 N.am      4 UNK        -0.4486 
     70 C         -45.2907  -25.1295    7.9593 C.2       3 UNK         0.4961 
     71 O         -44.2028  -25.4284    8.4553 O.2       3 UNK        -0.5105 
     72 CA        -45.3514  -23.9139    7.0134 C.3       3 UNK         0.0299 
     73 CB        -44.6047  -24.2167    5.7033 C.3       3 UNK        -0.1972 
     74 N         -46.7150  -23.4920    6.6925 N.am      3 UNK        -0.4305 
     75 C         -47.4570  -22.6842    7.4641 C.2       2 UNK         0.5006 
     76 O         -47.0408  -22.1609    8.4982 O.2       2 UNK        -0.5106 
     77 CA        -48.9085  -22.3984    7.0235 C.3       2 UNK         0.0296 
     78 CB        -49.0075  -20.9997    6.3923 C.3       2 UNK        -0.2002 
     79 N         -49.4965  -23.3777    6.1015 N.am      2 UNK        -0.4032 
     80 C         -49.6116  -24.6957    6.3250 C.2       1 UNK         0.5000 
     81 O         -49.1820  -25.2418    7.3408 O.2       1 UNK        -0.5238 
     82 H82       -49.1990  -24.4684    1.4598 H         1 UNK         0.0889 
     83 H83       -47.7303  -25.4463    1.4687 H         1 UNK         0.0889 
     84 H84       -47.6643  -23.7503    1.9538 H         1 UNK         0.0889 
     85 H85       -50.5185  -24.9017    3.1977 H         1 UNK         0.3028 
     86 H86       -51.3135  -25.2796    5.2075 H         1 UNK         0.0864 
     87 H87       -49.1126  -27.3541    5.6579 H         1 UNK         0.0720 
     88 H88       -50.3691  -27.5880    4.4729 H         1 UNK         0.0720 
     89 H89       -50.0836  -29.7235    6.1521 H         1 UNK         0.0814 
     90 H90       -51.7513  -29.8218    5.6378 H         1 UNK         0.0814 
     91 H91       -49.4215  -30.2265    8.4409 H         1 UNK         0.1469 
     92 H92       -52.2923  -32.0510   11.0505 H         1 UNK         0.1381 
     93 H93       -53.5551  -30.3478    7.3216 H         1 UNK         0.1206 
     94 H94       -55.1233  -31.6666    8.6544 H         1 UNK         0.0813 
     95 H95       -54.5351  -32.6112   10.0063 H         1 UNK         0.0813 
     96 H96       -56.5628  -31.6548   12.2558 H         1 UNK         0.0638 
     97 H97       -56.8866  -32.1247   10.6103 H         1 UNK         0.0638 
     98 H98       -58.1650  -30.0504   10.1932 H         1 UNK         0.0568 
     99 H99       -60.3368  -32.8202   11.4840 H         1 UNK         0.3450 
    100 H100      -58.7750  -32.8272   10.7090 H         1 UNK         0.3450 
    101 H101      -57.9815  -28.2417   11.4055 H         1 UNK         0.2987 
    102 H102      -57.3627  -26.8074   12.9580 H         1 UNK         0.0766 
    103 H103      -58.8352  -26.1156   14.8508 H         1 UNK         0.0798 
    104 H104      -59.0612  -27.8023   15.3145 H         1 UNK         0.0798 
    105 H105      -59.6770  -27.2199   13.7749 H         1 UNK         0.0798 
    106 H106      -56.5877  -27.7699   15.6696 H         1 UNK         0.3198 
    107 H107      -54.6850  -26.9162   16.5626 H         1 UNK         0.0843 
    108 H108      -52.8189  -28.3077   14.5612 H         1 UNK         0.0831 
    109 H109      -53.9724  -29.1081   15.6171 H         1 UNK         0.0831 
    110 H110      -52.5902  -28.2702   16.3084 H         1 UNK         0.0831 
    111 H111      -52.4101  -25.9155   14.9984 H         1 UNK         0.3133 
    112 H112      -52.6341  -23.2171   14.5956 H         1 UNK         0.0566 
    113 H113      -52.1048  -21.3644   16.1910 H         1 UNK         0.0814 
    114 H114      -53.8215  -21.7305   16.1616 H         1 UNK         0.0814 
    115 H115      -52.8362  -22.2833   17.5068 H         1 UNK         0.0814 
    116 H116      -50.5969  -23.8847   15.0397 H         1 UNK         0.3091 
    117 H117      -48.6084  -24.3339   17.7629 H         1 UNK         0.0702 
    118 H118      -48.0816  -26.7042   17.1915 H         1 UNK         0.0785 
    119 H119      -49.6407  -26.8739   16.3864 H         1 UNK         0.0785 
    120 H120      -49.5670  -26.6097   18.1235 H         1 UNK         0.0785 
    121 H121      -48.3290  -25.2850   15.0529 H         1 UNK         0.2998 
    122 H122      -47.5217  -22.0978   13.6298 H         1 UNK         0.0697 
    123 H123      -45.8847  -24.6438   14.1119 H         1 UNK         0.0825 
    124 H124      -45.3779  -23.0000   14.4619 H         1 UNK         0.0825 
    125 H125      -45.6197  -23.5019   12.7950 H         1 UNK         0.0825 
    126 H126      -47.8163  -24.6241   12.3858 H         1 UNK         0.3029 
    127 H127      -51.3732  -24.5263   11.9207 H         1 UNK         0.0897 
    128 H128      -50.6444  -24.8641    9.5781 H         1 UNK         0.0792 
    129 H129      -50.4012  -23.1949   10.0656 H         1 UNK         0.0792 
    130 H130      -49.0248  -24.2839    9.9655 H         1 UNK         0.0792 
    131 H131      -49.2470  -26.3893   11.2775 H         1 UNK         0.3086 
    132 H132      -49.7620  -28.4276   14.1803 H         1 UNK         0.0583 
    133 H133      -51.6025  -29.0500   12.5814 H         1 UNK         0.1020 
    134 H134      -50.5034  -28.8790   11.2446 H         1 UNK         0.1020 
    135 H135      -48.7025  -30.9342   10.5793 H         1 UNK         0.0694 
    136 H136      -49.4151  -32.4959   10.9050 H         1 UNK         0.0694 
    137 H137      -48.0397  -28.7551   11.9544 H         1 UNK         0.2989 
    138 H138      -45.3454  -26.7270   13.0403 H         1 UNK         0.1055 
    139 H139      -45.0696  -28.8199   14.3829 H         1 UNK         0.0806 
    140 H140      -44.1009  -28.8705   12.9207 H         1 UNK         0.0806 
    141 H141      -45.6065  -29.7855   13.0155 H         1 UNK         0.0806 
    142 H142      -45.5346  -28.5043   10.8539 H         1 UNK         0.3061 
    143 H143      -45.6069  -27.6624    8.7561 H         1 UNK         0.0734 
    144 H144      -47.7915  -28.0817    7.6076 H         1 UNK         0.0832 
    145 H145      -47.7705  -28.7716    9.2213 H         1 UNK         0.0832 
    146 H146      -48.6484  -27.2791    8.9211 H         1 UNK         0.0832 
    147 H147      -47.2961  -25.5067    7.7900 H         1 UNK         0.3156 
    148 H148      -44.8325  -23.0905    7.5089 H         1 UNK         0.0589 
    149 H149      -45.0465  -25.0611    5.1730 H         1 UNK         0.0808 
    150 H150      -44.6121  -23.3574    5.0325 H         1 UNK         0.0808 
    151 H151      -43.5606  -24.4660    5.8972 H         1 UNK         0.0808 
    152 H152      -47.1351  -23.9143    5.8721 H         1 UNK         0.3098 
    153 H153      -49.5192  -22.4050    7.9276 H         1 UNK         0.0720 
    154 H154      -50.0424  -20.7305    6.1799 H         1 UNK         0.0791 
    155 H155      -48.4441  -20.9376    5.4604 H         1 UNK         0.0791 
    156 H156      -48.6099  -20.2376    7.0644 H         1 UNK         0.0791 
    157 H157      -49.8453  -23.0166    5.2255 H         1 UNK         0.3028 
@<TRIPOS>BOND
     1    1    2 1    
     2    1   82 1    
     3    1   83 1    
     4    1   84 1    
     5    2    3 2    
     6    2    4 am   BACKBONE|DICT|INTERRES
     7    4    5 1    
     8    4   85 1    
     9    5    6 1    
    10    5   80 1    
    11    5   86 1    
    12    6    7 1    
    13    6   87 1    
    14    6   88 1    
    15    7    8 1    
    16    8    9 1    
    17    8   89 1    
    18    8   90 1    
    19    9   10 ar   
    20    9   14 ar   
    21   10   11 ar   
    22   10   91 1    
    23   11   12 ar   
    24   11   58 1    
    25   12   13 ar   
    26   12   92 1    
    27   13   14 ar   
    28   13   15 1    
    29   14   93 1    
    30   15   16 1    
    31   15   94 1    
    32   15   95 1    
    33   16   17 1    
    34   17   18 1    
    35   17   96 1    
    36   17   97 1    
    37   18   19 1    
    38   18   22 1    
    39   18   98 1    
    40   19   20 am   BACKBONE|DICT|INTERRES
    41   19   21 2    
    42   20   99 1    
    43   20  100 1    
    44   22   23 am   BACKBONE|DICT|INTERRES
    45   22  101 1    
    46   23   24 2    
    47   23   25 1    
    48   25   26 1    
    49   25   27 1    
    50   25  102 1    
    51   26  103 1    
    52   26  104 1    
    53   26  105 1    
    54   27   28 am   BACKBONE|DICT|INTERRES
    55   27  106 1    
    56   28   29 2    
    57   28   30 1    
    58   30   31 1    
    59   30   32 1    
    60   30  107 1    
    61   31  108 1    
    62   31  109 1    
    63   31  110 1    
    64   32   33 am   BACKBONE|DICT|INTERRES
    65   32  111 1    
    66   33   34 2    
    67   33   35 1    
    68   35   36 1    
    69   35   37 1    
    70   35  112 1    
    71   36  113 1    
    72   36  114 1    
    73   36  115 1    
    74   37   38 am   BACKBONE|DICT|INTERRES
    75   37  116 1    
    76   38   39 2    
    77   38   40 1    
    78   40   41 1    
    79   40   42 1    
    80   40  117 1    
    81   41  118 1    
    82   41  119 1    
    83   41  120 1    
    84   42   43 am   BACKBONE|DICT|INTERRES
    85   42  121 1    
    86   43   44 2    
    87   43   45 1    
    88   45   46 1    
    89   45   47 1    
    90   45  122 1    
    91   46  123 1    
    92   46  124 1    
    93   46  125 1    
    94   47   48 am   BACKBONE|DICT|INTERRES
    95   47  126 1    
    96   48   49 2    
    97   48   50 1    
    98   50   51 1    
    99   50   52 1    
   100   50  127 1    
   101   51  128 1    
   102   51  129 1    
   103   51  130 1    
   104   52   53 am   BACKBONE|DICT|INTERRES
   105   52  131 1    
   106   53   54 2    
   107   53   55 1    
   108   55   56 1    
   109   55   59 1    
   110   55  132 1    
   111   56   57 1    
   112   56  133 1    
   113   56  134 1    
   114   57   58 1    
   115   58  135 1    
   116   58  136 1    
   117   59   60 am   BACKBONE|DICT|INTERRES
   118   59  137 1    
   119   60   61 2    
   120   60   62 1    
   121   62   63 1    
   122   62   64 1    
   123   62  138 1    
   124   63  139 1    
   125   63  140 1    
   126   63  141 1    
   127   64   65 am   BACKBONE|DICT|INTERRES
   128   64  142 1    
   129   65   66 2    
   130   65   67 1    
   131   67   68 1    
   132   67   69 1    
   133   67  143 1    
   134   68  144 1    
   135   68  145 1    
   136   68  146 1    
   137   69   70 am   BACKBONE|DICT|INTERRES
   138   69  147 1    
   139   70   71 2    
   140   70   72 1    
   141   72   73 1    
   142   72   74 1    
   143   72  148 1    
   144   73  149 1    
   145   73  150 1    
   146   73  151 1    
   147   74   75 am   BACKBONE|DICT|INTERRES
   148   74  152 1    
   149   75   76 2    
   150   75   77 1    
   151   77   78 1    
   152   77   79 1    
   153   77  153 1    
   154   78  154 1    
   155   78  155 1    
   156   78  156 1    
   157   79   80 am   BACKBONE|DICT|INTERRES
   158   79  157 1    
   159   80   81 2    
@<TRIPOS>SUBSTRUCTURE
     1 UNK         1 GROUP             0       ****    0 ROOT    
