@<TRIPOS>MOLECULE
3R207
157   159    1
SMALL
USER_CHARGES


@<TRIPOS>ATOM
      1 CA        -49.0555  -24.5177    5.0293 C.3       0 UNK        -0.1975 
      2 C         -49.3324  -25.8732    5.6629 C.2       0 UNK         0.4852 
      3 O         -49.1784  -26.0239    6.8744 O.2       0 UNK        -0.5216 
      4 N         -49.7440  -26.8554    4.8508 N.am      1 UNK        -0.4461 
      5 CA        -50.0405  -28.2234    5.2870 C.3       1 UNK         0.0864 
      6 C6        -50.8756  -29.0130    4.2454 C.3       14 UNK        -0.0898 
      7 S7        -52.3718  -28.1432    3.6645 S.3       14 UNK        -0.2598 
      8 C8        -53.5800  -28.5136    4.9791 C.3       14 UNK         0.0286 
      9 C9        -53.4016  -27.6066    6.1898 C.ar      14 UNK        -0.0844 
     10 C10       -53.6040  -26.2287    6.0642 C.ar      14 UNK        -0.0881 
     11 C11       -53.4458  -25.3814    7.1641 C.ar      14 UNK        -0.0643 
     12 C12       -53.0893  -25.9266    8.3994 C.ar      14 UNK        -0.0930 
     13 C13       -52.8679  -27.3012    8.5404 C.ar      14 UNK        -0.0827 
     14 C14       -53.0387  -28.1374    7.4321 C.ar      14 UNK        -0.1249 
     15 C15       -52.3885  -27.8876    9.8649 C.3       14 UNK         0.0141 
     16 S16       -53.2287  -27.1980   11.3278 S.3       14 UNK        -0.2313 
     17 C17       -54.9028  -27.9147   11.1845 C.3       14 UNK        -0.0915 
     18 CA        -55.1414  -29.1392   12.1101 C.3       13 UNK         0.0968 
     19 C         -54.4980  -30.4382   11.5380 C.2       13 UNK         0.5732 
     20 N         -53.5307  -31.0645   12.1990 N.am      13 UNK        -0.7310 
     21 O         -54.8963  -30.8946   10.4692 O.2       13 UNK        -0.5035 
     22 N         -54.7908  -28.8327   13.5037 N.am      13 UNK        -0.4233 
     23 C         -55.1887  -29.5254   14.5772 C.2       13 UNK         0.4989 
     24 O         -56.0298  -30.4251   14.5346 O.2       13 UNK        -0.4996 
     25 CA        -54.5214  -29.1534   15.9192 C.3       12 UNK         0.0216 
     26 CB        -54.5563  -30.3104   16.9403 C.3       12 UNK        -0.1964 
     27 N         -53.1503  -28.6347   15.7765 N.am      12 UNK        -0.4276 
     28 C         -52.1045  -29.2631   15.2146 C.2       12 UNK         0.5020 
     29 O         -52.1768  -30.3836   14.7083 O.2       12 UNK        -0.5489 
     30 CA        -50.7576  -28.5217   15.1617 C.3       11 UNK         0.0294 
     31 CB        -50.4876  -27.9931   13.7433 C.3       11 UNK        -0.2019 
     32 N         -50.6350  -27.4137   16.1113 N.am      11 UNK        -0.4493 
     33 C         -50.4204  -27.5538   17.4270 C.2       11 UNK         0.4932 
     34 O         -50.3814  -28.6413   18.0025 O.2       11 UNK        -0.5029 
     35 CA        -50.1986  -26.2669   18.2353 C.3       10 UNK         0.0280 
     36 CB        -48.7664  -25.7456   18.0288 C.3       10 UNK        -0.1976 
     37 N         -51.1506  -25.2283   17.8421 N.am      10 UNK        -0.4242 
     38 C         -52.2057  -24.8368   18.5707 C.2       10 UNK         0.5072 
     39 O         -52.4607  -25.2649   19.6974 O.2       10 UNK        -0.5224 
     40 CA        -53.1494  -23.7899   17.9434 C.3       9 UNK         0.0343 
     41 CB        -52.7768  -22.3772   18.4215 C.3       9 UNK        -0.2003 
     42 N         -53.1687  -23.8117   16.4781 N.am      9 UNK        -0.4272 
     43 C         -53.5816  -24.8488   15.7366 C.2       9 UNK         0.4988 
     44 O         -54.0606  -25.8786   16.2088 O.2       9 UNK        -0.5108 
     45 CA        -53.3721  -24.7614   14.2167 C.3       8 UNK         0.0248 
     46 CB        -54.6578  -24.3020   13.5128 C.3       8 UNK        -0.2001 
     47 N         -52.2494  -23.9203   13.7856 N.am      8 UNK        -0.4140 
     48 C         -50.9671  -24.0671   14.1466 C.2       8 UNK         0.5028 
     49 O         -50.5946  -24.8678   15.0072 O.2       8 UNK        -0.5428 
     50 CA        -49.9375  -23.1851   13.4140 C.3       7 UNK         0.0264 
     51 CB        -48.4908  -23.4959   13.8423 C.3       7 UNK        -0.1988 
     52 N         -50.0351  -23.3352   11.9601 N.am      7 UNK        -0.4454 
     53 C         -50.9558  -22.7827   11.1616 C.2       7 UNK         0.5027 
     54 O         -51.8405  -22.0373   11.5889 O.2       7 UNK        -0.5083 
     55 CA        -50.8979  -23.1413    9.6550 C.3       6 UNK         0.0844 
     56 C56       -52.0310  -22.4463    8.8529 C.3       14 UNK        -0.0967 
     57 S57       -52.1052  -22.9442    7.0952 S.3       14 UNK        -0.2604 
     58 C58       -53.6681  -23.8827    7.0144 C.3       14 UNK         0.0134 
     59 N         -49.5764  -22.9059    9.0581 N.am      6 UNK        -0.4116 
     60 C         -48.4862  -23.6571    9.2626 C.2       5 UNK         0.5034 
     61 O         -48.4608  -24.5993   10.0589 O.2       5 UNK        -0.5045 
     62 CA        -47.2369  -23.3066    8.4300 C.3       5 UNK         0.0224 
     63 CB        -46.8456  -21.8157    8.5334 C.3       5 UNK        -0.1978 
     64 N         -46.1085  -24.1931    8.7452 N.am      5 UNK        -0.4737 
     65 C         -45.3799  -24.2434    9.8693 C.2       4 UNK         0.5027 
     66 O         -45.4237  -23.4044   10.7709 O.2       4 UNK        -0.5211 
     67 CA        -44.4906  -25.4936   10.0228 C.3       4 UNK         0.0297 
     68 CB        -43.4547  -25.3484   11.1534 C.3       4 UNK        -0.1993 
     69 N         -45.3150  -26.6785   10.2801 N.am      4 UNK        -0.4486 
     70 C         -46.0492  -27.3203    9.3616 C.2       3 UNK         0.4961 
     71 O         -46.0235  -27.0417    8.1595 O.2       3 UNK        -0.5105 
     72 CA        -46.9764  -28.4301    9.8909 C.3       3 UNK         0.0299 
     73 CB        -48.1173  -27.8458   10.7433 C.3       3 UNK        -0.1972 
     74 N         -47.5754  -29.1978    8.8011 N.am      3 UNK        -0.4305 
     75 C         -46.9803  -30.1931    8.1320 C.2       2 UNK         0.5006 
     76 O         -45.8577  -30.6244    8.4004 O.2       2 UNK        -0.5106 
     77 CA        -47.7792  -30.8420    6.9853 C.3       2 UNK         0.0296 
     78 CB        -48.3386  -32.2049    7.4278 C.3       2 UNK        -0.2002 
     79 N         -48.8871  -30.0064    6.5080 N.am      2 UNK        -0.4032 
     80 C         -48.7512  -28.9962    5.6375 C.2       1 UNK         0.5000 
     81 O         -47.6829  -28.7002    5.0940 O.2       1 UNK        -0.5238 
     82 H82       -47.9836  -24.3238    5.0128 H         1 UNK         0.0889 
     83 H83       -49.5388  -23.7285    5.6042 H         1 UNK         0.0889 
     84 H84       -49.4283  -24.4646    4.0065 H         1 UNK         0.0889 
     85 H85       -49.8446  -26.6827    3.8614 H         1 UNK         0.3028 
     86 H86       -50.6244  -28.1435    6.2040 H         1 UNK         0.0864 
     87 H87       -50.2691  -29.2278    3.3631 H         1 UNK         0.0720 
     88 H88       -51.1731  -29.9840    4.6458 H         1 UNK         0.0720 
     89 H89       -53.5136  -29.5663    5.2577 H         1 UNK         0.0814 
     90 H90       -54.5848  -28.3685    4.5800 H         1 UNK         0.0814 
     91 H91       -53.8785  -25.8173    5.1024 H         1 UNK         0.1469 
     92 H92       -52.9764  -25.2753    9.2522 H         1 UNK         0.1381 
     93 H93       -52.8716  -29.2012    7.5319 H         1 UNK         0.1206 
     94 H94       -51.3207  -27.6864    9.9583 H         1 UNK         0.0813 
     95 H95       -52.4972  -28.9728    9.8721 H         1 UNK         0.0813 
     96 H96       -55.1181  -28.1560   10.1419 H         1 UNK         0.0638 
     97 H97       -55.6090  -27.1264   11.4488 H         1 UNK         0.0638 
     98 H98       -56.2157  -29.3322   12.0969 H         1 UNK         0.0568 
     99 H99       -53.1410  -31.9060   11.8072 H         1 UNK         0.3450 
    100 H100      -53.1815  -30.7207   13.0888 H         1 UNK         0.3450 
    101 H101      -54.0876  -28.1202   13.6237 H         1 UNK         0.2987 
    102 H102      -55.1165  -28.3372   16.3306 H         1 UNK         0.0766 
    103 H103      -55.5816  -30.6094   17.1613 H         1 UNK         0.0798 
    104 H104      -54.0951  -30.0193   17.8842 H         1 UNK         0.0798 
    105 H105      -54.0329  -31.1923   16.5694 H         1 UNK         0.0798 
    106 H106      -53.0181  -27.6892   16.1201 H         1 UNK         0.3198 
    107 H107      -49.9847  -29.2567   15.3973 H         1 UNK         0.0843 
    108 H108      -51.1813  -27.1990   13.4703 H         1 UNK         0.0831 
    109 H109      -50.5879  -28.7850   12.9996 H         1 UNK         0.0831 
    110 H110      -49.4775  -27.5925   13.6568 H         1 UNK         0.0831 
    111 H111      -50.6158  -26.4760   15.7088 H         1 UNK         0.3133 
    112 H112      -50.3160  -26.5129   19.2927 H         1 UNK         0.0566 
    113 H113      -48.5745  -24.8665   18.6441 H         1 UNK         0.0814 
    114 H114      -48.5781  -25.4726   16.9893 H         1 UNK         0.0814 
    115 H115      -48.0314  -26.5023   18.3067 H         1 UNK         0.0814 
    116 H116      -51.0350  -24.8480   16.9072 H         1 UNK         0.3091 
    117 H117      -54.1603  -24.0139   18.2908 H         1 UNK         0.0702 
    118 H118      -53.4868  -21.6342   18.0576 H         1 UNK         0.0785 
    119 H119      -51.7810  -22.0862   18.0844 H         1 UNK         0.0785 
    120 H120      -52.7815  -22.3203   19.5110 H         1 UNK         0.0785 
    121 H121      -52.7861  -23.0073   16.0030 H         1 UNK         0.2998 
    122 H122      -53.1498  -25.7747   13.8820 H         1 UNK         0.0697 
    123 H123      -55.5036  -24.9318   13.7930 H         1 UNK         0.0825 
    124 H124      -54.9145  -23.2740   13.7710 H         1 UNK         0.0825 
    125 H125      -54.5590  -24.3629   12.4286 H         1 UNK         0.0825 
    126 H126      -52.4459  -23.2237   13.0734 H         1 UNK         0.3029 
    127 H127      -50.1525  -22.1474   13.6775 H         1 UNK         0.0897 
    128 H128      -48.2175  -24.5277   13.6161 H         1 UNK         0.0792 
    129 H129      -48.3590  -23.3506   14.9154 H         1 UNK         0.0792 
    130 H130      -47.7777  -22.8440   13.3370 H         1 UNK         0.0792 
    131 H131      -49.3559  -23.9500   11.5138 H         1 UNK         0.3086 
    132 H132      -51.0733  -24.2164    9.6040 H         1 UNK         0.0583 
    133 H133      -52.9982  -22.6407    9.3196 H         1 UNK         0.1020 
    134 H134      -51.9047  -21.3624    8.8872 H         1 UNK         0.1020 
    135 H135      -54.3738  -23.5342    7.7691 H         1 UNK         0.0694 
    136 H136      -54.1373  -23.6694    6.0527 H         1 UNK         0.0694 
    137 H137      -49.5272  -22.1452    8.3973 H         1 UNK         0.2989 
    138 H138      -47.4931  -23.5176    7.3913 H         1 UNK         0.1055 
    139 H139      -46.7429  -21.4912    9.5695 H         1 UNK         0.0806 
    140 H140      -47.5954  -21.1754    8.0683 H         1 UNK         0.0806 
    141 H141      -45.9011  -21.6180    8.0264 H         1 UNK         0.0806 
    142 H142      -46.0496  -25.0214    8.1588 H         1 UNK         0.3061 
    143 H143      -43.9449  -25.6341    9.0870 H         1 UNK         0.0734 
    144 H144      -43.9299  -25.2279   12.1278 H         1 UNK         0.0832 
    145 H145      -42.7987  -26.2176   11.2048 H         1 UNK         0.0832 
    146 H146      -42.8217  -24.4752   10.9901 H         1 UNK         0.0832 
    147 H147      -45.4168  -26.9471   11.2482 H         1 UNK         0.3156 
    148 H148      -46.3817  -29.1002   10.5154 H         1 UNK         0.0589 
    149 H149      -48.7700  -27.2037   10.1508 H         1 UNK         0.0808 
    150 H150      -47.7380  -27.2453   11.5709 H         1 UNK         0.0808 
    151 H151      -48.7316  -28.6360   11.1749 H         1 UNK         0.0808 
    152 H152      -48.4636  -28.8631    8.4608 H         1 UNK         0.3098 
    153 H153      -47.0842  -31.0143    6.1604 H         1 UNK         0.0720 
    154 H154      -49.0404  -32.1055    8.2569 H         1 UNK         0.0791 
    155 H155      -47.5368  -32.8670    7.7583 H         1 UNK         0.0791 
    156 H156      -48.8533  -32.7079    6.6088 H         1 UNK         0.0791 
    157 H157      -49.8015  -30.2138    6.8837 H         1 UNK         0.3028 
@<TRIPOS>BOND
     1    1    2 1    
     2    1   82 1    
     3    1   83 1    
     4    1   84 1    
     5    2    3 2    
     6    2    4 am   BACKBONE|DICT|INTERRES
     7    4    5 1    
     8    4   85 1    
     9    5    6 1    
    10    5   80 1    
    11    5   86 1    
    12    6    7 1    
    13    6   87 1    
    14    6   88 1    
    15    7    8 1    
    16    8    9 1    
    17    8   89 1    
    18    8   90 1    
    19    9   10 ar   
    20    9   14 ar   
    21   10   11 ar   
    22   10   91 1    
    23   11   12 ar   
    24   11   58 1    
    25   12   13 ar   
    26   12   92 1    
    27   13   14 ar   
    28   13   15 1    
    29   14   93 1    
    30   15   16 1    
    31   15   94 1    
    32   15   95 1    
    33   16   17 1    
    34   17   18 1    
    35   17   96 1    
    36   17   97 1    
    37   18   19 1    
    38   18   22 1    
    39   18   98 1    
    40   19   20 am   BACKBONE|DICT|INTERRES
    41   19   21 2    
    42   20   99 1    
    43   20  100 1    
    44   22   23 am   BACKBONE|DICT|INTERRES
    45   22  101 1    
    46   23   24 2    
    47   23   25 1    
    48   25   26 1    
    49   25   27 1    
    50   25  102 1    
    51   26  103 1    
    52   26  104 1    
    53   26  105 1    
    54   27   28 am   BACKBONE|DICT|INTERRES
    55   27  106 1    
    56   28   29 2    
    57   28   30 1    
    58   30   31 1    
    59   30   32 1    
    60   30  107 1    
    61   31  108 1    
    62   31  109 1    
    63   31  110 1    
    64   32   33 am   BACKBONE|DICT|INTERRES
    65   32  111 1    
    66   33   34 2    
    67   33   35 1    
    68   35   36 1    
    69   35   37 1    
    70   35  112 1    
    71   36  113 1    
    72   36  114 1    
    73   36  115 1    
    74   37   38 am   BACKBONE|DICT|INTERRES
    75   37  116 1    
    76   38   39 2    
    77   38   40 1    
    78   40   41 1    
    79   40   42 1    
    80   40  117 1    
    81   41  118 1    
    82   41  119 1    
    83   41  120 1    
    84   42   43 am   BACKBONE|DICT|INTERRES
    85   42  121 1    
    86   43   44 2    
    87   43   45 1    
    88   45   46 1    
    89   45   47 1    
    90   45  122 1    
    91   46  123 1    
    92   46  124 1    
    93   46  125 1    
    94   47   48 am   BACKBONE|DICT|INTERRES
    95   47  126 1    
    96   48   49 2    
    97   48   50 1    
    98   50   51 1    
    99   50   52 1    
   100   50  127 1    
   101   51  128 1    
   102   51  129 1    
   103   51  130 1    
   104   52   53 am   BACKBONE|DICT|INTERRES
   105   52  131 1    
   106   53   54 2    
   107   53   55 1    
   108   55   56 1    
   109   55   59 1    
   110   55  132 1    
   111   56   57 1    
   112   56  133 1    
   113   56  134 1    
   114   57   58 1    
   115   58  135 1    
   116   58  136 1    
   117   59   60 am   BACKBONE|DICT|INTERRES
   118   59  137 1    
   119   60   61 2    
   120   60   62 1    
   121   62   63 1    
   122   62   64 1    
   123   62  138 1    
   124   63  139 1    
   125   63  140 1    
   126   63  141 1    
   127   64   65 am   BACKBONE|DICT|INTERRES
   128   64  142 1    
   129   65   66 2    
   130   65   67 1    
   131   67   68 1    
   132   67   69 1    
   133   67  143 1    
   134   68  144 1    
   135   68  145 1    
   136   68  146 1    
   137   69   70 am   BACKBONE|DICT|INTERRES
   138   69  147 1    
   139   70   71 2    
   140   70   72 1    
   141   72   73 1    
   142   72   74 1    
   143   72  148 1    
   144   73  149 1    
   145   73  150 1    
   146   73  151 1    
   147   74   75 am   BACKBONE|DICT|INTERRES
   148   74  152 1    
   149   75   76 2    
   150   75   77 1    
   151   77   78 1    
   152   77   79 1    
   153   77  153 1    
   154   78  154 1    
   155   78  155 1    
   156   78  156 1    
   157   79   80 am   BACKBONE|DICT|INTERRES
   158   79  157 1    
   159   80   81 2    
@<TRIPOS>SUBSTRUCTURE
     1 UNK         1 GROUP             0       ****    0 ROOT    
