@<TRIPOS>MOLECULE
3R207
157   159    1
SMALL
USER_CHARGES


@<TRIPOS>ATOM
      1 CA        -44.4121  -26.8821    9.1038 C.3       0 UNK        -0.1975 
      2 C         -45.5097  -27.8781    8.7630 C.2       0 UNK         0.4852 
      3 O         -45.2246  -29.0573    8.5486 O.2       0 UNK        -0.5216 
      4 N         -46.7644  -27.4189    8.6899 N.am      1 UNK        -0.4461 
      5 CA        -47.9522  -28.2224    8.3946 C.3       1 UNK         0.0864 
      6 C6        -49.1962  -27.6513    9.1290 C.3       14 UNK        -0.0898 
      7 S7        -50.4139  -28.9407    9.5605 S.3       14 UNK        -0.2598 
      8 C8        -51.7078  -28.7385    8.2928 C.3       14 UNK         0.0286 
      9 C9        -52.4906  -27.4442    8.4598 C.ar      14 UNK        -0.0844 
     10 C10       -52.1801  -26.3248    7.6818 C.ar      14 UNK        -0.0881 
     11 C11       -52.8984  -25.1353    7.8307 C.ar      14 UNK        -0.0643 
     12 C12       -53.9419  -25.0733    8.7599 C.ar      14 UNK        -0.0930 
     13 C13       -54.2657  -26.1878    9.5389 C.ar      14 UNK        -0.0827 
     14 C14       -53.5411  -27.3720    9.3790 C.ar      14 UNK        -0.1249 
     15 C15       -55.4067  -26.1193   10.5414 C.3       14 UNK         0.0141 
     16 S16       -54.7855  -26.0561   12.2501 S.3       14 UNK        -0.2313 
     17 C17       -56.3260  -25.7225   13.1742 C.3       14 UNK        -0.0915 
     18 CA        -57.0025  -26.9830   13.7772 C.3       13 UNK         0.0968 
     19 C         -57.7232  -27.8456   12.6991 C.2       13 UNK         0.5732 
     20 N         -57.3289  -29.0911   12.4581 N.am      13 UNK        -0.7310 
     21 O         -58.6695  -27.3734   12.0739 O.2       13 UNK        -0.5035 
     22 N         -56.0781  -27.7307   14.6371 N.am      13 UNK        -0.4233 
     23 C         -56.4450  -28.5628   15.6191 C.2       13 UNK         0.4989 
     24 O         -57.6095  -28.6863   16.0026 O.2       13 UNK        -0.4996 
     25 CA        -55.3284  -29.3929   16.2923 C.3       12 UNK         0.0216 
     26 CB        -55.8448  -30.7608   16.7878 C.3       12 UNK        -0.1964 
     27 N         -54.1050  -29.5762   15.4878 N.am      12 UNK        -0.4276 
     28 C         -54.0295  -30.1309   14.2679 C.2       12 UNK         0.5020 
     29 O         -55.0246  -30.4567   13.6176 O.2       12 UNK        -0.5489 
     30 CA        -52.6341  -30.3721   13.6689 C.3       11 UNK         0.0294 
     31 CB        -52.6538  -30.4080   12.1272 C.3       11 UNK        -0.2019 
     32 N         -51.6109  -29.4201   14.1214 N.am      11 UNK        -0.4493 
     33 C         -50.3120  -29.7444   14.2220 C.2       11 UNK         0.4932 
     34 O         -49.8838  -30.8952   14.1230 O.2       11 UNK        -0.5029 
     35 CA        -49.3091  -28.6032   14.4377 C.3       10 UNK         0.0280 
     36 CB        -49.1148  -27.8023   13.1415 C.3       10 UNK        -0.1976 
     37 N         -49.7155  -27.7127   15.5229 N.am      10 UNK        -0.4242 
     38 C         -49.3847  -27.9067   16.8095 C.2       10 UNK         0.5072 
     39 O         -48.6775  -28.8366   17.2012 O.2       10 UNK        -0.5224 
     40 CA        -49.9195  -26.9015   17.8498 C.3       9 UNK         0.0343 
     41 CB        -48.8658  -25.8208   18.1422 C.3       9 UNK        -0.2003 
     42 N         -51.1727  -26.2537   17.4611 N.am      9 UNK        -0.4272 
     43 C         -52.3277  -26.8952   17.2413 C.2       9 UNK         0.4988 
     44 O         -52.4839  -28.1034   17.4171 O.2       9 UNK        -0.5108 
     45 CA        -53.4914  -26.0697   16.6663 C.3       8 UNK         0.0248 
     46 CB        -54.4654  -25.6481   17.7769 C.3       8 UNK        -0.2001 
     47 N         -53.0897  -24.8944   15.8865 N.am      8 UNK        -0.4140 
     48 C         -52.3120  -24.9195   14.7951 C.2       8 UNK         0.5028 
     49 O         -51.7829  -25.9428   14.3487 O.2       8 UNK        -0.5428 
     50 CA        -52.0445  -23.5621   14.1399 C.3       7 UNK         0.0264 
     51 CB        -50.9820  -22.7753   14.9301 C.3       7 UNK        -0.1988 
     52 N         -51.5817  -23.7591   12.7713 N.am      7 UNK        -0.4454 
     53 C         -51.7439  -22.8927   11.7663 C.2       7 UNK         0.5027 
     54 O         -52.3299  -21.8144   11.8877 O.2       7 UNK        -0.5083 
     55 CA        -51.1003  -23.2690   10.4145 C.3       6 UNK         0.0844 
     56 C56       -51.6954  -22.4507    9.2390 C.3       14 UNK        -0.0967 
     57 S57       -51.0900  -23.0375    7.6194 S.3       14 UNK        -0.2604 
     58 C58       -52.5491  -23.9214    6.9815 C.3       14 UNK         0.0134 
     59 N         -49.6468  -23.1008   10.4833 N.am      6 UNK        -0.4116 
     60 C         -48.7895  -23.9115   11.1143 C.2       5 UNK         0.5034 
     61 O         -49.1328  -24.9236   11.7243 O.2       5 UNK        -0.5045 
     62 CA        -47.3001  -23.5143   11.0495 C.3       5 UNK         0.0224 
     63 CB        -46.3635  -24.6647   11.4775 C.3       5 UNK        -0.1978 
     64 N         -46.8975  -22.9652    9.7432 N.am      5 UNK        -0.4737 
     65 C         -46.9720  -23.5818    8.5540 C.2       4 UNK         0.5027 
     66 O         -47.4077  -24.7250    8.4119 O.2       4 UNK        -0.5211 
     67 CA        -46.5074  -22.7636    7.3282 C.3       4 UNK         0.0297 
     68 CB        -45.1264  -22.1061    7.5502 C.3       4 UNK        -0.1993 
     69 N         -46.5232  -23.5352    6.0752 N.am      4 UNK        -0.4486 
     70 C         -45.7766  -24.6072    5.7752 C.2       3 UNK         0.4961 
     71 O         -44.8832  -25.0643    6.4915 O.2       3 UNK        -0.5105 
     72 CA        -46.0834  -25.3109    4.4509 C.3       3 UNK         0.0299 
     73 CB        -44.9868  -25.0509    3.4028 C.3       3 UNK        -0.1972 
     74 N         -46.1764  -26.7307    4.7586 N.am      3 UNK        -0.4305 
     75 C         -46.8576  -27.6519    4.0696 C.2       2 UNK         0.5006 
     76 O         -47.3795  -27.4480    2.9728 O.2       2 UNK        -0.5106 
     77 CA        -47.0122  -29.0305    4.7414 C.3       2 UNK         0.0296 
     78 CB        -45.8371  -29.9495    4.3707 C.3       2 UNK        -0.2002 
     79 N         -47.1245  -28.9460    6.2031 N.am      2 UNK        -0.4032 
     80 C         -48.1208  -28.3351    6.8636 C.2       1 UNK         0.5000 
     81 O         -49.0964  -27.8367    6.2991 O.2       1 UNK        -0.5238 
     82 H82       -43.6192  -26.9277    8.3578 H         1 UNK         0.0889 
     83 H83       -43.9821  -27.1134   10.0777 H         1 UNK         0.0889 
     84 H84       -44.7868  -25.8591    9.1288 H         1 UNK         0.0889 
     85 H85       -46.9393  -26.4140    8.7463 H         1 UNK         0.3028 
     86 H86       -47.7779  -29.2326    8.7721 H         1 UNK         0.0864 
     87 H87       -48.8890  -27.2145   10.0807 H         1 UNK         0.0720 
     88 H88       -49.6551  -26.8247    8.5870 H         1 UNK         0.0720 
     89 H89       -51.2678  -28.7987    7.2977 H         1 UNK         0.0814 
     90 H90       -52.3940  -29.5836    8.3643 H         1 UNK         0.0814 
     91 H91       -51.3713  -26.3751    6.9647 H         1 UNK         0.1469 
     92 H92       -54.5042  -24.1571    8.8759 H         1 UNK         0.1381 
     93 H93       -53.7942  -28.2366    9.9759 H         1 UNK         0.1206 
     94 H94       -56.0303  -25.2450   10.3486 H         1 UNK         0.0813 
     95 H95       -56.0491  -26.9918   10.4173 H         1 UNK         0.0813 
     96 H96       -56.0665  -25.0399   13.9849 H         1 UNK         0.0638 
     97 H97       -57.0242  -25.1671   12.5455 H         1 UNK         0.0638 
     98 H98       -57.8047  -26.6167   14.4206 H         1 UNK         0.0568 
     99 H99       -56.5388  -29.5006   12.9501 H         1 UNK         0.3450 
    100 H100      -57.8145  -29.6320   11.7615 H         1 UNK         0.3450 
    101 H101      -55.1127  -27.7172   14.3461 H         1 UNK         0.2987 
    102 H102      -55.0333  -28.8240   17.1740 H         1 UNK         0.0766 
    103 H103      -55.0583  -31.3222   17.2922 H         1 UNK         0.0798 
    104 H104      -56.6604  -30.6411   17.5020 H         1 UNK         0.0798 
    105 H105      -56.2192  -31.3722   15.9659 H         1 UNK         0.0798 
    106 H106      -53.2449  -29.3186   15.9637 H         1 UNK         0.3198 
    107 H107      -52.3648  -31.3716   14.0170 H         1 UNK         0.0843 
    108 H108      -53.3906  -31.1169   11.7476 H         1 UNK         0.0831 
    109 H109      -51.6877  -30.7126   11.7253 H         1 UNK         0.0831 
    110 H110      -52.8930  -29.4286   11.7145 H         1 UNK         0.0831 
    111 H111      -51.8805  -28.4465   14.1939 H         1 UNK         0.3133 
    112 H112      -48.3433  -29.0506   14.6828 H         1 UNK         0.0566 
    113 H113      -48.3612  -27.0248   13.2659 H         1 UNK         0.0814 
    114 H114      -50.0371  -27.3234   12.8105 H         1 UNK         0.0814 
    115 H115      -48.7794  -28.4498   12.3304 H         1 UNK         0.0814 
    116 H116      -50.3332  -26.9458   15.2723 H         1 UNK         0.3091 
    117 H117      -50.1071  -27.4563   18.7716 H         1 UNK         0.0702 
    118 H118      -49.1911  -25.1534   18.9405 H         1 UNK         0.0785 
    119 H119      -48.6541  -25.2144   17.2604 H         1 UNK         0.0785 
    120 H120      -47.9245  -26.2702   18.4621 H         1 UNK         0.0785 
    121 H121      -51.1374  -25.2603   17.2875 H         1 UNK         0.2998 
    122 H122      -54.0227  -26.7237   15.9790 H         1 UNK         0.0697 
    123 H123      -54.0070  -24.9403   18.4687 H         1 UNK         0.0825 
    124 H124      -54.7907  -26.5097   18.3618 H         1 UNK         0.0825 
    125 H125      -55.3617  -25.1847   17.3640 H         1 UNK         0.0825 
    126 H126      -53.4610  -24.0064   16.1934 H         1 UNK         0.3029 
    127 H127      -52.9834  -23.0038   14.1256 H         1 UNK         0.0897 
    128 H128      -50.8007  -21.7969   14.4846 H         1 UNK         0.0792 
    129 H129      -51.2968  -22.6042   15.9601 H         1 UNK         0.0792 
    130 H130      -50.0303  -23.3081   14.9612 H         1 UNK         0.0792 
    131 H131      -51.0744  -24.6247   12.6073 H         1 UNK         0.3086 
    132 H132      -51.3178  -24.3250   10.2362 H         1 UNK         0.0583 
    133 H133      -52.7855  -22.4870    9.2530 H         1 UNK         0.1020 
    134 H134      -51.4382  -21.3942    9.3372 H         1 UNK         0.1020 
    135 H135      -53.3941  -23.2335    6.9228 H         1 UNK         0.0694 
    136 H136      -52.3464  -24.2407    5.9582 H         1 UNK         0.0694 
    137 H137      -49.2734  -22.2985   10.0000 H         1 UNK         0.2989 
    138 H138      -47.1755  -22.7076   11.7738 H         1 UNK         0.1055 
    139 H139      -45.3145  -24.3828   11.3890 H         1 UNK         0.0806 
    140 H140      -46.5267  -25.5605   10.8794 H         1 UNK         0.0806 
    141 H141      -46.5387  -24.9407   12.5181 H         1 UNK         0.0806 
    142 H142      -46.5371  -22.0207    9.7626 H         1 UNK         0.3061 
    143 H143      -47.2414  -21.9673    7.1953 H         1 UNK         0.0734 
    144 H144      -45.1634  -21.3504    8.3349 H         1 UNK         0.0832 
    145 H145      -44.3703  -22.8369    7.8398 H         1 UNK         0.0832 
    146 H146      -44.7763  -21.6060    6.6471 H         1 UNK         0.0832 
    147 H147      -47.2508  -23.2745    5.4239 H         1 UNK         0.3156 
    148 H148      -47.0454  -24.9627    4.0683 H         1 UNK         0.0589 
    149 H149      -45.2081  -25.5548    2.4619 H         1 UNK         0.0808 
    150 H150      -44.8989  -23.9853    3.1880 H         1 UNK         0.0808 
    151 H151      -44.0115  -25.3974    3.7470 H         1 UNK         0.0808 
    152 H152      -45.7805  -26.9793    5.6560 H         1 UNK         0.3098 
    153 H153      -47.9328  -29.4797    4.3629 H         1 UNK         0.0720 
    154 H154      -45.7430  -30.0441    3.2879 H         1 UNK         0.0791 
    155 H155      -44.8884  -29.5661    4.7485 H         1 UNK         0.0791 
    156 H156      -45.9771  -30.9538    4.7711 H         1 UNK         0.0791 
    157 H157      -46.3488  -29.3013    6.7518 H         1 UNK         0.3028 
@<TRIPOS>BOND
     1    1    2 1    
     2    1   82 1    
     3    1   83 1    
     4    1   84 1    
     5    2    3 2    
     6    2    4 am   BACKBONE|DICT|INTERRES
     7    4    5 1    
     8    4   85 1    
     9    5    6 1    
    10    5   80 1    
    11    5   86 1    
    12    6    7 1    
    13    6   87 1    
    14    6   88 1    
    15    7    8 1    
    16    8    9 1    
    17    8   89 1    
    18    8   90 1    
    19    9   10 ar   
    20    9   14 ar   
    21   10   11 ar   
    22   10   91 1    
    23   11   12 ar   
    24   11   58 1    
    25   12   13 ar   
    26   12   92 1    
    27   13   14 ar   
    28   13   15 1    
    29   14   93 1    
    30   15   16 1    
    31   15   94 1    
    32   15   95 1    
    33   16   17 1    
    34   17   18 1    
    35   17   96 1    
    36   17   97 1    
    37   18   19 1    
    38   18   22 1    
    39   18   98 1    
    40   19   20 am   BACKBONE|DICT|INTERRES
    41   19   21 2    
    42   20   99 1    
    43   20  100 1    
    44   22   23 am   BACKBONE|DICT|INTERRES
    45   22  101 1    
    46   23   24 2    
    47   23   25 1    
    48   25   26 1    
    49   25   27 1    
    50   25  102 1    
    51   26  103 1    
    52   26  104 1    
    53   26  105 1    
    54   27   28 am   BACKBONE|DICT|INTERRES
    55   27  106 1    
    56   28   29 2    
    57   28   30 1    
    58   30   31 1    
    59   30   32 1    
    60   30  107 1    
    61   31  108 1    
    62   31  109 1    
    63   31  110 1    
    64   32   33 am   BACKBONE|DICT|INTERRES
    65   32  111 1    
    66   33   34 2    
    67   33   35 1    
    68   35   36 1    
    69   35   37 1    
    70   35  112 1    
    71   36  113 1    
    72   36  114 1    
    73   36  115 1    
    74   37   38 am   BACKBONE|DICT|INTERRES
    75   37  116 1    
    76   38   39 2    
    77   38   40 1    
    78   40   41 1    
    79   40   42 1    
    80   40  117 1    
    81   41  118 1    
    82   41  119 1    
    83   41  120 1    
    84   42   43 am   BACKBONE|DICT|INTERRES
    85   42  121 1    
    86   43   44 2    
    87   43   45 1    
    88   45   46 1    
    89   45   47 1    
    90   45  122 1    
    91   46  123 1    
    92   46  124 1    
    93   46  125 1    
    94   47   48 am   BACKBONE|DICT|INTERRES
    95   47  126 1    
    96   48   49 2    
    97   48   50 1    
    98   50   51 1    
    99   50   52 1    
   100   50  127 1    
   101   51  128 1    
   102   51  129 1    
   103   51  130 1    
   104   52   53 am   BACKBONE|DICT|INTERRES
   105   52  131 1    
   106   53   54 2    
   107   53   55 1    
   108   55   56 1    
   109   55   59 1    
   110   55  132 1    
   111   56   57 1    
   112   56  133 1    
   113   56  134 1    
   114   57   58 1    
   115   58  135 1    
   116   58  136 1    
   117   59   60 am   BACKBONE|DICT|INTERRES
   118   59  137 1    
   119   60   61 2    
   120   60   62 1    
   121   62   63 1    
   122   62   64 1    
   123   62  138 1    
   124   63  139 1    
   125   63  140 1    
   126   63  141 1    
   127   64   65 am   BACKBONE|DICT|INTERRES
   128   64  142 1    
   129   65   66 2    
   130   65   67 1    
   131   67   68 1    
   132   67   69 1    
   133   67  143 1    
   134   68  144 1    
   135   68  145 1    
   136   68  146 1    
   137   69   70 am   BACKBONE|DICT|INTERRES
   138   69  147 1    
   139   70   71 2    
   140   70   72 1    
   141   72   73 1    
   142   72   74 1    
   143   72  148 1    
   144   73  149 1    
   145   73  150 1    
   146   73  151 1    
   147   74   75 am   BACKBONE|DICT|INTERRES
   148   74  152 1    
   149   75   76 2    
   150   75   77 1    
   151   77   78 1    
   152   77   79 1    
   153   77  153 1    
   154   78  154 1    
   155   78  155 1    
   156   78  156 1    
   157   79   80 am   BACKBONE|DICT|INTERRES
   158   79  157 1    
   159   80   81 2    
@<TRIPOS>SUBSTRUCTURE
     1 UNK         1 GROUP             0       ****    0 ROOT    
