@<TRIPOS>MOLECULE
3R207
157   159    1
SMALL
USER_CHARGES


@<TRIPOS>ATOM
      1 CA        -50.9770  -28.0358    1.1814 C.3       0 UNK        -0.1975 
      2 C         -49.8817  -27.9645    2.2354 C.2       0 UNK         0.4852 
      3 O         -48.7019  -28.0267    1.8891 O.2       0 UNK        -0.5216 
      4 N         -50.2705  -27.8364    3.5132 N.am      1 UNK        -0.4461 
      5 CA        -49.3904  -27.7296    4.6854 C.3       1 UNK         0.0864 
      6 C6        -48.5789  -29.0314    4.9457 C.3       14 UNK        -0.0898 
      7 S7        -48.2772  -29.2952    6.7228 S.3       14 UNK        -0.2598 
      8 C8        -49.7377  -30.2745    7.1920 C.3       14 UNK         0.0286 
      9 C9        -50.1548  -30.0008    8.6302 C.ar      14 UNK        -0.0844 
     10 C10       -49.4504  -30.5750    9.6928 C.ar      14 UNK        -0.0881 
     11 C11       -49.8505  -30.3513   11.0143 C.ar      14 UNK        -0.0643 
     12 C12       -50.9747  -29.5568   11.2668 C.ar      14 UNK        -0.0930 
     13 C13       -51.6661  -28.9496   10.2155 C.ar      14 UNK        -0.0827 
     14 C14       -51.2535  -29.1786    8.8994 C.ar      14 UNK        -0.1249 
     15 C15       -52.8443  -28.0275   10.4954 C.3       14 UNK         0.0141 
     16 S16       -54.4285  -28.9143   10.4316 S.3       14 UNK        -0.2313 
     17 C17       -54.5733  -29.5719   12.1281 C.3       14 UNK        -0.0915 
     18 CA        -55.8383  -29.0314   12.8509 C.3       13 UNK         0.0968 
     19 C         -56.1643  -29.8252   14.1510 C.2       13 UNK         0.5732 
     20 N         -56.6015  -29.1945   15.2352 N.am      13 UNK        -0.7310 
     21 O         -56.0442  -31.0478   14.1771 O.2       13 UNK        -0.5035 
     22 N         -55.7483  -27.5818   13.0844 N.am      13 UNK        -0.4233 
     23 C         -56.6324  -26.6657   12.6722 C.2       13 UNK         0.4989 
     24 O         -57.5952  -26.9233   11.9468 O.2       13 UNK        -0.4996 
     25 CA        -56.4103  -25.2137   13.1574 C.3       12 UNK         0.0216 
     26 CB        -57.6992  -24.3665   13.1017 C.3       12 UNK        -0.1964 
     27 N         -55.7950  -25.1087   14.4885 N.am      12 UNK        -0.4276 
     28 C         -56.2286  -25.6613   15.6307 C.2       12 UNK         0.5020 
     29 O         -57.2411  -26.3583   15.7284 O.2       12 UNK        -0.5489 
     30 CA        -55.3304  -25.4502   16.8621 C.3       11 UNK         0.0294 
     31 CB        -56.1721  -25.1996   18.1259 C.3       11 UNK        -0.2019 
     32 N         -54.3959  -26.5521   17.1297 N.am      11 UNK        -0.4493 
     33 C         -53.6798  -27.2752   16.2549 C.2       11 UNK         0.4932 
     34 O         -53.7614  -27.1976   15.0292 O.2       11 UNK        -0.5029 
     35 CA        -52.6103  -28.1816   16.8705 C.3       10 UNK         0.0280 
     36 CB        -52.2078  -29.3320   15.9284 C.3       10 UNK        -0.1976 
     37 N         -51.4477  -27.3388   17.1243 N.am      10 UNK        -0.4242 
     38 C         -51.2205  -26.6567   18.2536 C.2       10 UNK         0.5072 
     39 O         -51.8992  -26.7712   19.2752 O.2       10 UNK        -0.5224 
     40 CA        -50.0711  -25.6425   18.2130 C.3       9 UNK         0.0343 
     41 CB        -48.7107  -26.3519   18.0963 C.3       9 UNK        -0.2003 
     42 N         -50.2435  -24.7263   17.0841 N.am      9 UNK        -0.4272 
     43 C         -50.7846  -23.5026   17.1616 C.2       9 UNK         0.4988 
     44 O         -51.1898  -22.9982   18.2095 O.2       9 UNK        -0.5108 
     45 CA        -50.8710  -22.6819   15.8608 C.3       8 UNK         0.0248 
     46 CB        -49.6539  -21.7504   15.7377 C.3       8 UNK        -0.2001 
     47 N         -50.9602  -23.5148   14.6596 N.am      8 UNK        -0.4140 
     48 C         -52.0869  -24.0911   14.2221 C.2       8 UNK         0.5028 
     49 O         -53.1942  -23.9079   14.7299 O.2       8 UNK        -0.5428 
     50 CA        -51.9839  -25.0219   13.0009 C.3       7 UNK         0.0264 
     51 CB        -52.4373  -24.2803   11.7324 C.3       7 UNK        -0.1988 
     52 N         -50.6774  -25.6429   12.7443 N.am      7 UNK        -0.4454 
     53 C         -49.9339  -26.3715   13.5926 C.2       7 UNK         0.5027 
     54 O         -50.1681  -26.4540   14.7983 O.2       7 UNK        -0.5083 
     55 CA        -48.7591  -27.1923   13.0085 C.3       6 UNK         0.0844 
     56 C56       -48.7205  -28.6038   13.6689 C.3       14 UNK        -0.0967 
     57 S57       -47.7481  -29.8673   12.7740 S.3       14 UNK        -0.2604 
     58 C58       -49.0673  -30.9726   12.1638 C.3       14 UNK         0.0134 
     59 N         -48.7931  -27.2449   11.5416 N.am      6 UNK        -0.4116 
     60 C         -48.3122  -26.3098   10.7156 C.2       5 UNK         0.5034 
     61 O         -47.8260  -25.2412   11.0908 O.2       5 UNK        -0.5045 
     62 CA        -48.4724  -26.5953    9.2160 C.3       5 UNK         0.0224 
     63 CB        -49.7152  -25.8816    8.6610 C.3       5 UNK        -0.1978 
     64 N         -47.2956  -26.2040    8.4384 N.am      5 UNK        -0.4737 
     65 C         -46.0930  -26.7908    8.5414 C.2       4 UNK         0.5027 
     66 O         -45.8493  -27.7040    9.3312 O.2       4 UNK        -0.5211 
     67 CA        -44.9698  -26.3146    7.6018 C.3       4 UNK         0.0297 
     68 CB        -44.5611  -27.4382    6.6332 C.3       4 UNK        -0.1993 
     69 N         -45.3339  -25.1246    6.8290 N.am      4 UNK        -0.4486 
     70 C         -45.1753  -23.8667    7.2659 C.2       3 UNK         0.4961 
     71 O         -44.6751  -23.5843    8.3552 O.2       3 UNK        -0.5105 
     72 CA        -45.6374  -22.7187    6.3466 C.3       3 UNK         0.0299 
     73 CB        -44.4250  -22.0375    5.6903 C.3       3 UNK        -0.1972 
     74 N         -46.5811  -23.1198    5.2998 N.am      3 UNK        -0.4305 
     75 C         -47.8308  -23.5523    5.5123 C.2       2 UNK         0.5006 
     76 O         -48.3287  -23.6647    6.6331 O.2       2 UNK        -0.5106 
     77 CA        -48.6652  -23.9516    4.2778 C.3       2 UNK         0.0296 
     78 CB        -47.9196  -23.8115    2.9298 C.3       2 UNK        -0.2002 
     79 N         -49.2206  -25.3039    4.4068 N.am      2 UNK        -0.4032 
     80 C         -48.5391  -26.4370    4.6453 C.2       1 UNK         0.5000 
     81 O         -47.3159  -26.4770    4.8013 O.2       1 UNK        -0.5238 
     82 H82       -50.9034  -28.9711    0.6272 H         1 UNK         0.0889 
     83 H83       -50.8718  -27.2123    0.4756 H         1 UNK         0.0889 
     84 H84       -51.9727  -27.9803    1.6210 H         1 UNK         0.0889 
     85 H85       -51.2605  -27.7974    3.7147 H         1 UNK         0.3028 
     86 H86       -50.0754  -27.5962    5.5244 H         1 UNK         0.0864 
     87 H87       -47.6265  -29.0263    4.4125 H         1 UNK         0.0720 
     88 H88       -49.1165  -29.9010    4.5644 H         1 UNK         0.0720 
     89 H89       -49.5169  -31.3349    7.0622 H         1 UNK         0.0814 
     90 H90       -50.5669  -30.0511    6.5189 H         1 UNK         0.0814 
     91 H91       -48.5881  -31.1955    9.4889 H         1 UNK         0.1469 
     92 H92       -51.3050  -29.3939   12.2824 H         1 UNK         0.1381 
     93 H93       -51.7942  -28.7189    8.0832 H         1 UNK         0.1206 
     94 H94       -52.8676  -27.2296    9.7521 H         1 UNK         0.0813 
     95 H95       -52.7318  -27.5366   11.4622 H         1 UNK         0.0813 
     96 H96       -53.6789  -29.3420   12.7087 H         1 UNK         0.0638 
     97 H97       -54.6066  -30.6589   12.0389 H         1 UNK         0.0638 
     98 H98       -56.6888  -29.2387   12.1998 H         1 UNK         0.0568 
     99 H99       -56.7645  -28.1924   15.2382 H         1 UNK         0.3450 
    100 H100      -56.8190  -29.7355   16.0560 H         1 UNK         0.3450 
    101 H101      -55.0130  -27.3012   13.7318 H         1 UNK         0.2987 
    102 H102      -55.6961  -24.7745   12.4599 H         1 UNK         0.0766 
    103 H103      -57.5128  -23.3399   13.4169 H         1 UNK         0.0798 
    104 H104      -58.4785  -24.7784   13.7440 H         1 UNK         0.0798 
    105 H105      -58.1000  -24.3237   12.0882 H         1 UNK         0.0798 
    106 H106      -54.8975  -24.6236   14.5252 H         1 UNK         0.3198 
    107 H107      -54.7292  -24.5555   16.6949 H         1 UNK         0.0843 
    108 H108      -56.7425  -26.0843   18.4123 H         1 UNK         0.0831 
    109 H109      -56.8860  -24.3904   17.9655 H         1 UNK         0.0831 
    110 H110      -55.5467  -24.9141   18.9719 H         1 UNK         0.0831 
    111 H111      -54.1899  -26.7074   18.1071 H         1 UNK         0.3133 
    112 H112      -52.9896  -28.6116   17.7999 H         1 UNK         0.0566 
    113 H113      -51.4382  -29.9603   16.3767 H         1 UNK         0.0814 
    114 H114      -53.0648  -29.9703   15.7090 H         1 UNK         0.0814 
    115 H115      -51.8259  -28.9635   14.9762 H         1 UNK         0.0814 
    116 H116      -50.8903  -27.1055   16.3042 H         1 UNK         0.3091 
    117 H117      -50.0784  -25.0862   19.1528 H         1 UNK         0.0702 
    118 H118      -47.8900  -25.6355   18.1362 H         1 UNK         0.0785 
    119 H119      -48.6171  -26.9122   17.1651 H         1 UNK         0.0785 
    120 H120      -48.5662  -27.0554   18.9174 H         1 UNK         0.0785 
    121 H121      -50.0192  -25.1003   16.1679 H         1 UNK         0.2998 
    122 H122      -51.7668  -22.0599   15.9232 H         1 UNK         0.0697 
    123 H123      -48.7202  -22.3099   15.6672 H         1 UNK         0.0825 
    124 H124      -49.5755  -21.0948   16.6062 H         1 UNK         0.0825 
    125 H125      -49.7307  -21.1111   14.8580 H         1 UNK         0.0825 
    126 H126      -50.1018  -23.7061   14.1640 H         1 UNK         0.3029 
    127 H127      -52.6857  -25.8366   13.1780 H         1 UNK         0.0897 
    128 H128      -51.7405  -23.4861   11.4613 H         1 UNK         0.0792 
    129 H129      -53.4153  -23.8183   11.8746 H         1 UNK         0.0792 
    130 H130      -52.5241  -24.9551   10.8814 H         1 UNK         0.0792 
    131 H131      -50.3568  -25.6024   11.7888 H         1 UNK         0.3086 
    132 H132      -47.8431  -26.6741   13.2998 H         1 UNK         0.0583 
    133 H133      -48.2971  -28.5164   14.6714 H         1 UNK         0.1020 
    134 H134      -49.7238  -28.9962   13.8314 H         1 UNK         0.1020 
    135 H135      -48.6111  -31.9076   11.8348 H         1 UNK         0.0694 
    136 H136      -49.7377  -31.2395   12.9824 H         1 UNK         0.0694 
    137 H137      -49.1727  -28.0971   11.1492 H         1 UNK         0.2989 
    138 H138      -48.6037  -27.6703    9.0871 H         1 UNK         0.1055 
    139 H139      -50.6164  -26.1923    9.1895 H         1 UNK         0.0806 
    140 H140      -49.8654  -26.1101    7.6063 H         1 UNK         0.0806 
    141 H141      -49.6354  -24.7983    8.7610 H         1 UNK         0.0806 
    142 H142      -47.4097  -25.4331    7.7925 H         1 UNK         0.3061 
    143 H143      -44.1033  -26.0856    8.2259 H         1 UNK         0.0734 
    144 H144      -43.7623  -27.1187    5.9640 H         1 UNK         0.0832 
    145 H145      -44.1965  -28.3088    7.1799 H         1 UNK         0.0832 
    146 H146      -45.4004  -27.7723    6.0228 H         1 UNK         0.0832 
    147 H147      -45.8010  -25.2905    5.9442 H         1 UNK         0.3156 
    148 H148      -46.1386  -21.9830    6.9792 H         1 UNK         0.0589 
    149 H149      -43.8886  -22.7185    5.0282 H         1 UNK         0.0808 
    150 H150      -44.7246  -21.1661    5.1076 H         1 UNK         0.0808 
    151 H151      -43.7160  -21.6911    6.4437 H         1 UNK         0.0808 
    152 H152      -46.2473  -23.0782    4.3476 H         1 UNK         0.3098 
    153 H153      -49.5156  -23.2686    4.2576 H         1 UNK         0.0720 
    154 H154      -48.5729  -24.0726    2.0970 H         1 UNK         0.0791 
    155 H155      -47.0462  -24.4626    2.8719 H         1 UNK         0.0791 
    156 H156      -47.5897  -22.7858    2.7597 H         1 UNK         0.0791 
    157 H157      -50.2240  -25.3699    4.3120 H         1 UNK         0.3028 
@<TRIPOS>BOND
     1    1    2 1    
     2    1   82 1    
     3    1   83 1    
     4    1   84 1    
     5    2    3 2    
     6    2    4 am   BACKBONE|DICT|INTERRES
     7    4    5 1    
     8    4   85 1    
     9    5    6 1    
    10    5   80 1    
    11    5   86 1    
    12    6    7 1    
    13    6   87 1    
    14    6   88 1    
    15    7    8 1    
    16    8    9 1    
    17    8   89 1    
    18    8   90 1    
    19    9   10 ar   
    20    9   14 ar   
    21   10   11 ar   
    22   10   91 1    
    23   11   12 ar   
    24   11   58 1    
    25   12   13 ar   
    26   12   92 1    
    27   13   14 ar   
    28   13   15 1    
    29   14   93 1    
    30   15   16 1    
    31   15   94 1    
    32   15   95 1    
    33   16   17 1    
    34   17   18 1    
    35   17   96 1    
    36   17   97 1    
    37   18   19 1    
    38   18   22 1    
    39   18   98 1    
    40   19   20 am   BACKBONE|DICT|INTERRES
    41   19   21 2    
    42   20   99 1    
    43   20  100 1    
    44   22   23 am   BACKBONE|DICT|INTERRES
    45   22  101 1    
    46   23   24 2    
    47   23   25 1    
    48   25   26 1    
    49   25   27 1    
    50   25  102 1    
    51   26  103 1    
    52   26  104 1    
    53   26  105 1    
    54   27   28 am   BACKBONE|DICT|INTERRES
    55   27  106 1    
    56   28   29 2    
    57   28   30 1    
    58   30   31 1    
    59   30   32 1    
    60   30  107 1    
    61   31  108 1    
    62   31  109 1    
    63   31  110 1    
    64   32   33 am   BACKBONE|DICT|INTERRES
    65   32  111 1    
    66   33   34 2    
    67   33   35 1    
    68   35   36 1    
    69   35   37 1    
    70   35  112 1    
    71   36  113 1    
    72   36  114 1    
    73   36  115 1    
    74   37   38 am   BACKBONE|DICT|INTERRES
    75   37  116 1    
    76   38   39 2    
    77   38   40 1    
    78   40   41 1    
    79   40   42 1    
    80   40  117 1    
    81   41  118 1    
    82   41  119 1    
    83   41  120 1    
    84   42   43 am   BACKBONE|DICT|INTERRES
    85   42  121 1    
    86   43   44 2    
    87   43   45 1    
    88   45   46 1    
    89   45   47 1    
    90   45  122 1    
    91   46  123 1    
    92   46  124 1    
    93   46  125 1    
    94   47   48 am   BACKBONE|DICT|INTERRES
    95   47  126 1    
    96   48   49 2    
    97   48   50 1    
    98   50   51 1    
    99   50   52 1    
   100   50  127 1    
   101   51  128 1    
   102   51  129 1    
   103   51  130 1    
   104   52   53 am   BACKBONE|DICT|INTERRES
   105   52  131 1    
   106   53   54 2    
   107   53   55 1    
   108   55   56 1    
   109   55   59 1    
   110   55  132 1    
   111   56   57 1    
   112   56  133 1    
   113   56  134 1    
   114   57   58 1    
   115   58  135 1    
   116   58  136 1    
   117   59   60 am   BACKBONE|DICT|INTERRES
   118   59  137 1    
   119   60   61 2    
   120   60   62 1    
   121   62   63 1    
   122   62   64 1    
   123   62  138 1    
   124   63  139 1    
   125   63  140 1    
   126   63  141 1    
   127   64   65 am   BACKBONE|DICT|INTERRES
   128   64  142 1    
   129   65   66 2    
   130   65   67 1    
   131   67   68 1    
   132   67   69 1    
   133   67  143 1    
   134   68  144 1    
   135   68  145 1    
   136   68  146 1    
   137   69   70 am   BACKBONE|DICT|INTERRES
   138   69  147 1    
   139   70   71 2    
   140   70   72 1    
   141   72   73 1    
   142   72   74 1    
   143   72  148 1    
   144   73  149 1    
   145   73  150 1    
   146   73  151 1    
   147   74   75 am   BACKBONE|DICT|INTERRES
   148   74  152 1    
   149   75   76 2    
   150   75   77 1    
   151   77   78 1    
   152   77   79 1    
   153   77  153 1    
   154   78  154 1    
   155   78  155 1    
   156   78  156 1    
   157   79   80 am   BACKBONE|DICT|INTERRES
   158   79  157 1    
   159   80   81 2    
@<TRIPOS>SUBSTRUCTURE
     1 UNK         1 GROUP             0       ****    0 ROOT    
