@<TRIPOS>MOLECULE
3R207
157   159    1
SMALL
USER_CHARGES


@<TRIPOS>ATOM
      1 CA        -46.2344  -28.0311    7.9673 C.3       0 UNK        -0.1975 
      2 C         -46.5055  -28.5728    6.5712 C.2       0 UNK         0.4852 
      3 O         -45.5683  -28.9913    5.8905 O.2       0 UNK        -0.5216 
      4 N         -47.7728  -28.5581    6.1300 N.am      1 UNK        -0.4461 
      5 CA        -48.1973  -29.0166    4.7963 C.3       1 UNK         0.0864 
      6 C6        -49.7003  -29.3955    4.7587 C.3       14 UNK        -0.0898 
      7 S7        -50.8446  -28.0291    5.1733 S.3       14 UNK        -0.2598 
      8 C8        -52.2989  -28.9500    5.7792 C.3       14 UNK         0.0286 
      9 C9        -52.3848  -28.9390    7.2993 C.ar      14 UNK        -0.0844 
     10 C10       -51.4178  -29.5932    8.0673 C.ar      14 UNK        -0.0881 
     11 C11       -51.4700  -29.5515    9.4621 C.ar      14 UNK        -0.0643 
     12 C12       -52.5255  -28.8878   10.0934 C.ar      14 UNK        -0.0930 
     13 C13       -53.5089  -28.2420    9.3386 C.ar      14 UNK        -0.0827 
     14 C14       -53.4299  -28.2672    7.9424 C.ar      14 UNK        -0.1249 
     15 C15       -54.6319  -27.4759   10.0226 C.3       14 UNK         0.0141 
     16 S16       -56.1392  -28.4784   10.1933 S.3       14 UNK        -0.2313 
     17 C17       -55.8614  -29.3467   11.7759 C.3       14 UNK        -0.0915 
     18 CA        -56.6712  -28.6973   12.9336 C.3       13 UNK         0.0968 
     19 C         -56.8167  -29.6425   14.1608 C.2       13 UNK         0.5732 
     20 N         -56.5830  -29.1901   15.3856 N.am      13 UNK        -0.7310 
     21 O         -57.1722  -30.8082   14.0036 O.2       13 UNK        -0.5035 
     22 N         -56.1423  -27.3617   13.2636 N.am      13 UNK        -0.4233 
     23 C         -56.8865  -26.2668   13.4512 C.2       13 UNK         0.4989 
     24 O         -58.1189  -26.2601   13.4555 O.2       13 UNK        -0.4996 
     25 CA        -56.0986  -24.9577   13.6370 C.3       12 UNK         0.0216 
     26 CB        -56.9965  -23.7008   13.6463 C.3       12 UNK        -0.1964 
     27 N         -55.2157  -24.9905   14.8081 N.am      12 UNK        -0.4276 
     28 C         -55.5648  -25.0493   16.1016 C.2       12 UNK         0.5020 
     29 O         -56.7251  -25.1408   16.5071 O.2       12 UNK        -0.5489 
     30 CA        -54.3946  -24.9888   17.1010 C.3       11 UNK         0.0294 
     31 CB        -54.8442  -24.9505   18.5780 C.3       11 UNK        -0.2019 
     32 N         -53.4235  -26.0601   16.8611 N.am      11 UNK        -0.4493 
     33 C         -53.6118  -27.3818   16.9889 C.2       11 UNK         0.4932 
     34 O         -54.6496  -27.8911   17.4096 O.2       11 UNK        -0.5029 
     35 CA        -52.4597  -28.3073   16.5545 C.3       10 UNK         0.0280 
     36 CB        -52.8191  -29.0133   15.2356 C.3       10 UNK        -0.1976 
     37 N         -51.1753  -27.6186   16.3930 N.am      10 UNK        -0.4242 
     38 C         -50.4046  -27.1794   17.3987 C.2       10 UNK         0.5072 
     39 O         -50.6700  -27.3475   18.5897 O.2       10 UNK        -0.5224 
     40 CA        -49.1346  -26.3982   17.0125 C.3       9 UNK         0.0343 
     41 CB        -47.9991  -27.3600   16.6292 C.3       9 UNK        -0.2003 
     42 N         -49.3560  -25.4332   15.9296 N.am      9 UNK        -0.4272 
     43 C         -50.1591  -24.3614   16.0217 C.2       9 UNK         0.4988 
     44 O         -50.7830  -24.0555   17.0379 O.2       9 UNK        -0.5108 
     45 CA        -50.3334  -23.5075   14.7553 C.3       8 UNK         0.0248 
     46 CB        -49.1330  -22.5684   14.5529 C.3       8 UNK        -0.2001 
     47 N         -50.5284  -24.3251   13.5590 N.am      8 UNK        -0.4140 
     48 C         -51.5753  -25.1337   13.3484 C.2       8 UNK         0.5028 
     49 O         -52.5441  -25.2191   14.1033 O.2       8 UNK        -0.5428 
     50 CA        -51.5087  -26.0396   12.1120 C.3       7 UNK         0.0264 
     51 CB        -51.9242  -25.2753   10.8440 C.3       7 UNK        -0.1988 
     52 N         -50.1825  -26.6366   11.9329 N.am      7 UNK        -0.4454 
     53 C         -49.6308  -27.5274   12.7729 C.2       7 UNK         0.5027 
     54 O         -50.2069  -27.9668   13.7661 O.2       7 UNK        -0.5083 
     55 CA        -48.1805  -27.9764   12.4941 C.3       6 UNK         0.0844 
     56 C56       -48.1016  -29.3292   11.7442 C.3       14 UNK        -0.0967 
     57 S57       -48.7981  -29.2900   10.0581 S.3       14 UNK        -0.2604 
     58 C58       -50.3654  -30.1953   10.2816 C.3       14 UNK         0.0134 
     59 N         -47.3861  -26.9194   11.8612 N.am      6 UNK        -0.4116 
     60 C         -46.9708  -25.8233   12.5123 C.2       5 UNK         0.5034 
     61 O         -47.2071  -25.6023   13.7023 O.2       5 UNK        -0.5045 
     62 CA        -46.2032  -24.7782   11.6849 C.3       5 UNK         0.0224 
     63 CB        -44.7909  -25.2798   11.3361 C.3       5 UNK        -0.1978 
     64 N         -46.8929  -24.3610   10.4571 N.am      5 UNK        -0.4737 
     65 C         -48.1318  -23.8504   10.3966 C.2       4 UNK         0.5027 
     66 O         -48.8649  -23.7544   11.3790 O.2       4 UNK        -0.5211 
     67 CA        -48.6439  -23.3449    9.0332 C.3       4 UNK         0.0297 
     68 CB        -49.3916  -22.0079    9.1811 C.3       4 UNK        -0.1993 
     69 N         -47.5750  -23.1803    8.0436 N.am      4 UNK        -0.4486 
     70 C         -47.1803  -24.1269    7.1867 C.2       3 UNK         0.4961 
     71 O         -47.6568  -25.2635    7.1487 O.2       3 UNK        -0.5105 
     72 CA        -46.0222  -23.7538    6.2473 C.3       3 UNK         0.0299 
     73 CB        -44.6736  -23.9332    6.9637 C.3       3 UNK        -0.1972 
     74 N         -46.0490  -24.6089    5.0630 N.am      3 UNK        -0.4305 
     75 C         -46.9083  -24.4650    4.0442 C.2       2 UNK         0.5006 
     76 O         -47.6052  -23.4673    3.8552 O.2       2 UNK        -0.5106 
     77 CA        -47.0736  -25.6924    3.1470 C.3       2 UNK         0.0296 
     78 CB        -45.7838  -25.9899    2.3523 C.3       2 UNK        -0.2002 
     79 N         -47.4578  -26.8024    4.0182 N.am      2 UNK        -0.4032 
     80 C         -47.8188  -28.0391    3.6572 C.2       1 UNK         0.5000 
     81 O         -47.8636  -28.4271    2.4873 O.2       1 UNK        -0.5238 
     82 H82       -47.1108  -27.5335    8.3830 H         1 UNK         0.0889 
     83 H83       -45.4194  -27.3069    7.9399 H         1 UNK         0.0889 
     84 H84       -45.9497  -28.8435    8.6364 H         1 UNK         0.0889 
     85 H85       -48.5067  -28.1860    6.7185 H         1 UNK         0.3028 
     86 H86       -47.6425  -29.9342    4.5834 H         1 UNK         0.0864 
     87 H87       -49.9716  -29.7793    3.7728 H         1 UNK         0.0720 
     88 H88       -49.8694  -30.2263    5.4439 H         1 UNK         0.0720 
     89 H89       -52.2799  -29.9795    5.4186 H         1 UNK         0.0814 
     90 H90       -53.1929  -28.4983    5.3461 H         1 UNK         0.0814 
     91 H91       -50.5991  -30.1074    7.5853 H         1 UNK         0.1469 
     92 H92       -52.5689  -28.8602   11.1724 H         1 UNK         0.1381 
     93 H93       -54.1828  -27.7564    7.3574 H         1 UNK         0.1206 
     94 H94       -54.8714  -26.5864    9.4376 H         1 UNK         0.0813 
     95 H95       -54.3160  -27.1127   11.0004 H         1 UNK         0.0813 
     96 H96       -56.1688  -30.3820   11.6159 H         1 UNK         0.0638 
     97 H97       -54.7975  -29.3829   12.0140 H         1 UNK         0.0638 
     98 H98       -57.6954  -28.5855   12.5721 H         1 UNK         0.0568 
     99 H99       -56.3025  -28.2361   15.5505 H         1 UNK         0.3450 
    100 H100      -56.6865  -29.8174   16.1670 H         1 UNK         0.3450 
    101 H101      -55.1398  -27.2847   13.3296 H         1 UNK         0.2987 
    102 H102      -55.4420  -24.8720   12.7693 H         1 UNK         0.0766 
    103 H103      -57.7115  -23.7140   14.4695 H         1 UNK         0.0798 
    104 H104      -56.4034  -22.7902   13.7324 H         1 UNK         0.0798 
    105 H105      -57.5707  -23.6273   12.7219 H         1 UNK         0.0798 
    106 H106      -54.2150  -24.9867   14.5953 H         1 UNK         0.3198 
    107 H107      -53.8675  -24.0542   16.8999 H         1 UNK         0.0843 
    108 H108      -55.4223  -25.8327   18.8548 H         1 UNK         0.0831 
    109 H109      -55.4746  -24.0809   18.7674 H         1 UNK         0.0831 
    110 H110      -53.9889  -24.8843   19.2505 H         1 UNK         0.0831 
    111 H111      -52.5440  -25.7578   16.4616 H         1 UNK         0.3133 
    112 H112      -52.3430  -29.0695   17.3278 H         1 UNK         0.0566 
    113 H113      -52.0415  -29.7171   14.9379 H         1 UNK         0.0814 
    114 H114      -53.7445  -29.5817   15.3337 H         1 UNK         0.0814 
    115 H115      -52.9541  -28.3002   14.4215 H         1 UNK         0.0814 
    116 H116      -50.8399  -27.5142   15.4367 H         1 UNK         0.3091 
    117 H117      -48.8145  -25.8336   17.8910 H         1 UNK         0.0702 
    118 H118      -47.0868  -26.8193   16.3762 H         1 UNK         0.0785 
    119 H119      -48.2680  -27.9829   15.7765 H         1 UNK         0.0785 
    120 H120      -47.7612  -28.0293   17.4570 H         1 UNK         0.0785 
    121 H121      -48.8428  -25.5834   15.0676 H         1 UNK         0.2998 
    122 H122      -51.2275  -22.8939   14.8864 H         1 UNK         0.0697 
    123 H123      -48.2091  -23.1223   14.3809 H         1 UNK         0.0825 
    124 H124      -48.9783  -21.9359   15.4283 H         1 UNK         0.0825 
    125 H125      -49.2878  -21.9090   13.6981 H         1 UNK         0.0825 
    126 H126      -49.8119  -24.2601   12.8366 H         1 UNK         0.3029 
    127 H127      -52.2185  -26.8516   12.2724 H         1 UNK         0.0897 
    128 H128      -51.2899  -24.4091   10.6596 H         1 UNK         0.0792 
    129 H129      -52.9480  -24.9087   10.9302 H         1 UNK         0.0792 
    130 H130      -51.8796  -25.9125    9.9606 H         1 UNK         0.0792 
    131 H131      -49.6353  -26.3087   11.1512 H         1 UNK         0.3086 
    132 H132      -47.7312  -28.1563   13.4731 H         1 UNK         0.0583 
    133 H133      -47.0573  -29.6354   11.6637 H         1 UNK         0.1020 
    134 H134      -48.5798  -30.1160   12.3316 H         1 UNK         0.1020 
    135 H135      -50.2313  -31.2342    9.9740 H         1 UNK         0.0694 
    136 H136      -50.6475  -30.2161   11.3361 H         1 UNK         0.0694 
    137 H137      -47.1743  -27.0280   10.8801 H         1 UNK         0.2989 
    138 H138      -46.1012  -23.8904   12.3141 H         1 UNK         0.1055 
    139 H139      -44.2566  -25.5996   12.2328 H         1 UNK         0.0806 
    140 H140      -44.1946  -24.4932   10.8727 H         1 UNK         0.0806 
    141 H141      -44.8156  -26.1288   10.6507 H         1 UNK         0.0806 
    142 H142      -46.3645  -24.4056    9.5986 H         1 UNK         0.3061 
    143 H143      -49.3600  -24.0859    8.6724 H         1 UNK         0.0734 
    144 H144      -48.7483  -21.2286    9.5903 H         1 UNK         0.0832 
    145 H145      -49.7754  -21.6595    8.2218 H         1 UNK         0.0832 
    146 H146      -50.2471  -22.1062    9.8502 H         1 UNK         0.0832 
    147 H147      -47.1111  -22.2832    8.0279 H         1 UNK         0.3156 
    148 H148      -46.1291  -22.7112    5.9410 H         1 UNK         0.0589 
    149 H149      -44.5305  -24.9562    7.3132 H         1 UNK         0.0808 
    150 H150      -43.8413  -23.6868    6.3044 H         1 UNK         0.0808 
    151 H151      -44.5977  -23.2782    7.8326 H         1 UNK         0.0808 
    152 H152      -45.5240  -25.4691    5.1251 H         1 UNK         0.3098 
    153 H153      -47.8901  -25.5003    2.4480 H         1 UNK         0.0720 
    154 H154      -45.9422  -26.7745    1.6129 H         1 UNK         0.0791 
    155 H155      -44.9664  -26.3070    3.0008 H         1 UNK         0.0791 
    156 H156      -45.4483  -25.1055    1.8087 H         1 UNK         0.0791 
    157 H157      -47.5206  -26.5734    5.0037 H         1 UNK         0.3028 
@<TRIPOS>BOND
     1    1    2 1    
     2    1   82 1    
     3    1   83 1    
     4    1   84 1    
     5    2    3 2    
     6    2    4 am   BACKBONE|DICT|INTERRES
     7    4    5 1    
     8    4   85 1    
     9    5    6 1    
    10    5   80 1    
    11    5   86 1    
    12    6    7 1    
    13    6   87 1    
    14    6   88 1    
    15    7    8 1    
    16    8    9 1    
    17    8   89 1    
    18    8   90 1    
    19    9   10 ar   
    20    9   14 ar   
    21   10   11 ar   
    22   10   91 1    
    23   11   12 ar   
    24   11   58 1    
    25   12   13 ar   
    26   12   92 1    
    27   13   14 ar   
    28   13   15 1    
    29   14   93 1    
    30   15   16 1    
    31   15   94 1    
    32   15   95 1    
    33   16   17 1    
    34   17   18 1    
    35   17   96 1    
    36   17   97 1    
    37   18   19 1    
    38   18   22 1    
    39   18   98 1    
    40   19   20 am   BACKBONE|DICT|INTERRES
    41   19   21 2    
    42   20   99 1    
    43   20  100 1    
    44   22   23 am   BACKBONE|DICT|INTERRES
    45   22  101 1    
    46   23   24 2    
    47   23   25 1    
    48   25   26 1    
    49   25   27 1    
    50   25  102 1    
    51   26  103 1    
    52   26  104 1    
    53   26  105 1    
    54   27   28 am   BACKBONE|DICT|INTERRES
    55   27  106 1    
    56   28   29 2    
    57   28   30 1    
    58   30   31 1    
    59   30   32 1    
    60   30  107 1    
    61   31  108 1    
    62   31  109 1    
    63   31  110 1    
    64   32   33 am   BACKBONE|DICT|INTERRES
    65   32  111 1    
    66   33   34 2    
    67   33   35 1    
    68   35   36 1    
    69   35   37 1    
    70   35  112 1    
    71   36  113 1    
    72   36  114 1    
    73   36  115 1    
    74   37   38 am   BACKBONE|DICT|INTERRES
    75   37  116 1    
    76   38   39 2    
    77   38   40 1    
    78   40   41 1    
    79   40   42 1    
    80   40  117 1    
    81   41  118 1    
    82   41  119 1    
    83   41  120 1    
    84   42   43 am   BACKBONE|DICT|INTERRES
    85   42  121 1    
    86   43   44 2    
    87   43   45 1    
    88   45   46 1    
    89   45   47 1    
    90   45  122 1    
    91   46  123 1    
    92   46  124 1    
    93   46  125 1    
    94   47   48 am   BACKBONE|DICT|INTERRES
    95   47  126 1    
    96   48   49 2    
    97   48   50 1    
    98   50   51 1    
    99   50   52 1    
   100   50  127 1    
   101   51  128 1    
   102   51  129 1    
   103   51  130 1    
   104   52   53 am   BACKBONE|DICT|INTERRES
   105   52  131 1    
   106   53   54 2    
   107   53   55 1    
   108   55   56 1    
   109   55   59 1    
   110   55  132 1    
   111   56   57 1    
   112   56  133 1    
   113   56  134 1    
   114   57   58 1    
   115   58  135 1    
   116   58  136 1    
   117   59   60 am   BACKBONE|DICT|INTERRES
   118   59  137 1    
   119   60   61 2    
   120   60   62 1    
   121   62   63 1    
   122   62   64 1    
   123   62  138 1    
   124   63  139 1    
   125   63  140 1    
   126   63  141 1    
   127   64   65 am   BACKBONE|DICT|INTERRES
   128   64  142 1    
   129   65   66 2    
   130   65   67 1    
   131   67   68 1    
   132   67   69 1    
   133   67  143 1    
   134   68  144 1    
   135   68  145 1    
   136   68  146 1    
   137   69   70 am   BACKBONE|DICT|INTERRES
   138   69  147 1    
   139   70   71 2    
   140   70   72 1    
   141   72   73 1    
   142   72   74 1    
   143   72  148 1    
   144   73  149 1    
   145   73  150 1    
   146   73  151 1    
   147   74   75 am   BACKBONE|DICT|INTERRES
   148   74  152 1    
   149   75   76 2    
   150   75   77 1    
   151   77   78 1    
   152   77   79 1    
   153   77  153 1    
   154   78  154 1    
   155   78  155 1    
   156   78  156 1    
   157   79   80 am   BACKBONE|DICT|INTERRES
   158   79  157 1    
   159   80   81 2    
@<TRIPOS>SUBSTRUCTURE
     1 UNK         1 GROUP             0       ****    0 ROOT    
