@<TRIPOS>MOLECULE
3R207
157   159    1
SMALL
USER_CHARGES


@<TRIPOS>ATOM
      1 CA        -44.3936  -29.8389    8.4981 C.3       0 UNK        -0.1975 
      2 C         -45.5067  -30.0587    7.4845 C.2       0 UNK         0.4852 
      3 O         -45.2319  -30.4450    6.3480 O.2       0 UNK        -0.5216 
      4 N         -46.7602  -29.8145    7.8904 N.am      1 UNK        -0.4461 
      5 CA        -47.9683  -29.9677    7.0675 C.3       1 UNK         0.0864 
      6 C6        -49.2595  -29.8217    7.9085 C.3       14 UNK        -0.0898 
      7 S7        -49.3791  -30.9963    9.2995 S.3       14 UNK        -0.2598 
      8 C8        -50.2772  -30.0071   10.5421 C.3       14 UNK         0.0286 
      9 C9        -51.6849  -29.6482   10.0821 C.ar      14 UNK        -0.0844 
     10 C10       -51.9144  -28.4501    9.4012 C.ar      14 UNK        -0.0881 
     11 C11       -53.2016  -28.0898    8.9863 C.ar      14 UNK        -0.0643 
     12 C12       -54.2598  -28.9648    9.2410 C.ar      14 UNK        -0.0930 
     13 C13       -54.0527  -30.1608    9.9328 C.ar      14 UNK        -0.0827 
     14 C14       -52.7609  -30.4996   10.3490 C.ar      14 UNK        -0.1249 
     15 C15       -55.2231  -31.0849   10.2322 C.3       14 UNK         0.0141 
     16 S16       -56.0006  -30.6547   11.8211 S.3       14 UNK        -0.2313 
     17 C17       -57.5964  -29.9212   11.3164 C.3       14 UNK        -0.0915 
     18 CA        -57.5585  -28.3937   11.0340 C.3       13 UNK         0.0968 
     19 C         -58.9745  -27.8729   10.6511 C.2       13 UNK         0.5732 
     20 N         -59.6069  -27.0136   11.4417 N.am      13 UNK        -0.7310 
     21 O         -59.5066  -28.2538    9.6110 O.2       13 UNK        -0.5035 
     22 N         -56.8897  -27.6401   12.1058 N.am      13 UNK        -0.4233 
     23 C         -56.4098  -26.3960   11.9985 C.2       13 UNK         0.4989 
     24 O         -56.4623  -25.7287   10.9652 O.2       13 UNK        -0.4996 
     25 CA        -55.7479  -25.7854   13.2480 C.3       12 UNK         0.0216 
     26 CB        -56.8000  -25.3532   14.2881 C.3       12 UNK        -0.1964 
     27 N         -54.7022  -26.6239   13.8493 N.am      12 UNK        -0.4276 
     28 C         -54.8118  -27.8318   14.4229 C.2       12 UNK         0.5020 
     29 O         -55.8787  -28.4222   14.5989 O.2       12 UNK        -0.5489 
     30 CA        -53.5021  -28.4952   14.8670 C.3       11 UNK         0.0294 
     31 CB        -52.7767  -29.1262   13.6667 C.3       11 UNK        -0.2019 
     32 N         -52.6076  -27.5445   15.5222 N.am      11 UNK        -0.4493 
     33 C         -52.6940  -27.1747   16.8067 C.2       11 UNK         0.4932 
     34 O         -53.5665  -27.5791   17.5771 O.2       11 UNK        -0.5029 
     35 CA        -51.6072  -26.2023   17.3108 C.3       10 UNK         0.0280 
     36 CB        -51.4578  -26.2061   18.8467 C.3       10 UNK        -0.1976 
     37 N         -50.3077  -26.4091   16.6565 N.am      10 UNK        -0.4242 
     38 C         -49.5631  -27.5290   16.6504 C.2       10 UNK         0.5072 
     39 O         -49.8391  -28.5380   17.3008 O.2       10 UNK        -0.5224 
     40 CA        -48.3228  -27.5619   15.7355 C.3       9 UNK         0.0343 
     41 CB        -48.4961  -28.6337   14.6446 C.3       9 UNK        -0.2003 
     42 N         -48.0445  -26.2711   15.0982 N.am      9 UNK        -0.4272 
     43 C         -47.3623  -25.2772   15.6856 C.2       9 UNK         0.4988 
     44 O         -46.8281  -25.3758   16.7908 O.2       9 UNK        -0.5108 
     45 CA        -47.2898  -23.9331   14.9405 C.3       8 UNK         0.0248 
     46 CB        -46.0914  -23.9037   13.9801 C.3       8 UNK        -0.2001 
     47 N         -48.5181  -23.5807   14.2191 N.am      8 UNK        -0.4140 
     48 C         -49.7063  -23.3616   14.8031 C.2       8 UNK         0.5028 
     49 O         -49.9177  -23.5238   16.0040 O.2       8 UNK        -0.5428 
     50 CA        -50.8585  -22.8993   13.9027 C.3       7 UNK         0.0264 
     51 CB        -50.7203  -21.4051   13.5682 C.3       7 UNK        -0.1988 
     52 N         -50.9088  -23.6718   12.6658 N.am      7 UNK        -0.4454 
     53 C         -51.5532  -24.8380   12.5238 C.2       7 UNK         0.5027 
     54 O         -52.2058  -25.3826   13.4165 O.2       7 UNK        -0.5083 
     55 CA        -51.4220  -25.5246   11.1502 C.3       6 UNK         0.0844 
     56 C56       -52.4741  -24.9510   10.1622 C.3       14 UNK        -0.0967 
     57 S57       -52.2375  -25.4749    8.4267 S.3       14 UNK        -0.2604 
     58 C58       -53.4924  -26.7883    8.2377 C.3       14 UNK         0.0134 
     59 N         -50.0530  -25.4570   10.6273 N.am      6 UNK        -0.4116 
     60 C         -48.9603  -25.9311   11.2417 C.2       5 UNK         0.5034 
     61 O         -48.9731  -26.5042   12.3296 O.2       5 UNK        -0.5045 
     62 CA        -47.6115  -25.6857   10.5483 C.3       5 UNK         0.0224 
     63 CB        -47.2841  -26.8604    9.6176 C.3       5 UNK        -0.1978 
     64 N         -47.5115  -24.4170    9.8109 N.am      5 UNK        -0.4737 
     65 C         -47.7822  -23.1994   10.3117 C.2       4 UNK         0.5027 
     66 O         -48.2212  -23.0169   11.4487 O.2       4 UNK        -0.5211 
     67 CA        -47.5256  -21.9672    9.4257 C.3       4 UNK         0.0297 
     68 CB        -46.4220  -21.0916   10.0422 C.3       4 UNK        -0.1993 
     69 N         -47.1668  -22.2735    8.0389 N.am      4 UNK        -0.4486 
     70 C         -48.0118  -22.7047    7.0937 C.2       3 UNK         0.4961 
     71 O         -49.2041  -22.9356    7.2984 O.2       3 UNK        -0.5105 
     72 CA        -47.4389  -22.9103    5.6755 C.3       3 UNK         0.0299 
     73 CB        -45.9651  -22.4687    5.5127 C.3       3 UNK        -0.1972 
     74 N         -47.6092  -24.2879    5.2006 N.am      3 UNK        -0.4305 
     75 C         -47.1664  -25.4023    5.7985 C.2       2 UNK         0.5006 
     76 O         -46.5561  -25.4217    6.8715 O.2       2 UNK        -0.5106 
     77 CA        -47.4230  -26.7154    5.0511 C.3       2 UNK         0.0296 
     78 CB        -46.3577  -26.9477    3.9637 C.3       2 UNK        -0.2002 
     79 N         -47.3994  -27.8125    6.0120 N.am      2 UNK        -0.4032 
     80 C         -48.0302  -28.9857    5.8751 C.2       1 UNK         0.5000 
     81 O         -48.6675  -29.3029    4.8687 O.2       1 UNK        -0.5238 
     82 H82       -43.6912  -29.0929    8.1272 H         1 UNK         0.0889 
     83 H83       -43.8486  -30.7678    8.6638 H         1 UNK         0.0889 
     84 H84       -44.7771  -29.4947    9.4586 H         1 UNK         0.0889 
     85 H85       -46.9245  -29.5575    8.8522 H         1 UNK         0.3028 
     86 H86       -47.9486  -30.9755    6.6471 H         1 UNK         0.0864 
     87 H87       -49.3196  -28.8068    8.2992 H         1 UNK         0.0720 
     88 H88       -50.1452  -29.9642    7.2855 H         1 UNK         0.0720 
     89 H89       -49.7100  -29.1039   10.7736 H         1 UNK         0.0814 
     90 H90       -50.3287  -30.5740   11.4729 H         1 UNK         0.0814 
     91 H91       -51.0818  -27.7938    9.2015 H         1 UNK         0.1469 
     92 H92       -55.2502  -28.7110    8.8947 H         1 UNK         0.1381 
     93 H93       -52.5932  -31.4244   10.8840 H         1 UNK         0.1206 
     94 H94       -55.9516  -31.0498    9.4212 H         1 UNK         0.0813 
     95 H95       -54.8763  -32.1182   10.2809 H         1 UNK         0.0813 
     96 H96       -57.9731  -30.4638   10.4476 H         1 UNK         0.0638 
     97 H97       -58.3039  -30.1263   12.1219 H         1 UNK         0.0638 
     98 H98       -56.9595  -28.2471   10.1378 H         1 UNK         0.0568 
     99 H99       -60.5216  -26.6821   11.1792 H         1 UNK         0.3450 
    100 H100      -59.1804  -26.6990   12.2977 H         1 UNK         0.3450 
    101 H101      -56.7531  -28.1240   12.9905 H         1 UNK         0.2987 
    102 H102      -55.2334  -24.8822   12.9155 H         1 UNK         0.0766 
    103 H103      -56.3335  -24.8461   15.1327 H         1 UNK         0.0798 
    104 H104      -57.3655  -26.1995   14.6788 H         1 UNK         0.0798 
    105 H105      -57.5176  -24.6585   13.8495 H         1 UNK         0.0798 
    106 H106      -53.7612  -26.2408   13.7616 H         1 UNK         0.3198 
    107 H107      -53.7493  -29.2925   15.5716 H         1 UNK         0.0843 
    108 H108      -53.4093  -29.8692   13.1805 H         1 UNK         0.0831 
    109 H109      -51.8634  -29.6345   13.9756 H         1 UNK         0.0831 
    110 H110      -52.5098  -28.3856   12.9117 H         1 UNK         0.0831 
    111 H111      -51.9030  -27.1053   14.9449 H         1 UNK         0.3133 
    112 H112      -51.9378  -25.2056   17.0154 H         1 UNK         0.0566 
    113 H113      -50.6934  -25.5001   19.1713 H         1 UNK         0.0814 
    114 H114      -52.3910  -25.9166   19.3314 H         1 UNK         0.0814 
    115 H115      -51.1876  -27.1922   19.2256 H         1 UNK         0.0814 
    116 H116      -49.9633  -25.6050   16.1435 H         1 UNK         0.3091 
    117 H117      -47.4683  -27.8470   16.3528 H         1 UNK         0.0702 
    118 H118      -47.6433  -28.6543   13.9658 H         1 UNK         0.0785 
    119 H119      -49.3944  -28.4635   14.0498 H         1 UNK         0.0785 
    120 H120      -48.5844  -29.6280   15.0844 H         1 UNK         0.0785 
    121 H121      -48.4257  -26.1382   14.1648 H         1 UNK         0.2998 
    122 H122      -47.1311  -23.1566   15.6920 H         1 UNK         0.0697 
    123 H123      -46.1626  -24.6832   13.2242 H         1 UNK         0.0825 
    124 H124      -45.1569  -24.0612   14.5203 H         1 UNK         0.0825 
    125 H125      -46.0127  -22.9443   13.4680 H         1 UNK         0.0825 
    126 H126      -48.4274  -23.4105   13.2186 H         1 UNK         0.3029 
    127 H127      -51.7921  -23.0377   14.4534 H         1 UNK         0.0897 
    128 H128      -51.5677  -21.0522   12.9802 H         1 UNK         0.0792 
    129 H129      -50.6851  -20.8039   14.4779 H         1 UNK         0.0792 
    130 H130      -49.8109  -21.1960   13.0030 H         1 UNK         0.0792 
    131 H131      -50.3205  -23.3461   11.9081 H         1 UNK         0.3086 
    132 H132      -51.6460  -26.5791   11.3132 H         1 UNK         0.0583 
    133 H133      -53.4814  -25.2199   10.4876 H         1 UNK         0.1020 
    134 H134      -52.4453  -23.8593   10.1626 H         1 UNK         0.1020 
    135 H135      -54.4602  -26.3899    8.5477 H         1 UNK         0.0694 
    136 H136      -53.5813  -27.0216    7.1760 H         1 UNK         0.0694 
    137 H137      -49.9407  -24.9974    9.7346 H         1 UNK         0.2989 
    138 H138      -46.8522  -25.6631   11.3296 H         1 UNK         0.1055 
    139 H139      -47.3620  -27.8106   10.1477 H         1 UNK         0.0806 
    140 H140      -46.2670  -26.7876    9.2317 H         1 UNK         0.0806 
    141 H141      -47.9684  -26.8946    8.7703 H         1 UNK         0.0806 
    142 H142      -47.1619  -24.4754    8.8612 H         1 UNK         0.3061 
    143 H143      -48.4512  -21.3879    9.4161 H         1 UNK         0.0734 
    144 H144      -46.6763  -20.8008   11.0627 H         1 UNK         0.0832 
    145 H145      -45.4662  -21.6155   10.0833 H         1 UNK         0.0832 
    146 H146      -46.2790  -20.1721    9.4744 H         1 UNK         0.0832 
    147 H147      -46.1990  -22.1404    7.7825 H         1 UNK         0.3156 
    148 H148      -48.0412  -22.2828    5.0170 H         1 UNK         0.0589 
    149 H149      -45.2846  -23.0593    6.1275 H         1 UNK         0.0808 
    150 H150      -45.6409  -22.5751    4.4774 H         1 UNK         0.0808 
    151 H151      -45.8325  -21.4183    5.7759 H         1 UNK         0.0808 
    152 H152      -48.1265  -24.3856    4.3379 H         1 UNK         0.3098 
    153 H153      -48.4125  -26.6619    4.5917 H         1 UNK         0.0720 
    154 H154      -46.3490  -26.1330    3.2387 H         1 UNK         0.0791 
    155 H155      -46.5473  -27.8686    3.4119 H         1 UNK         0.0791 
    156 H156      -45.3568  -27.0160    4.3921 H         1 UNK         0.0791 
    157 H157      -46.9071  -27.6017    6.8705 H         1 UNK         0.3028 
@<TRIPOS>BOND
     1    1    2 1    
     2    1   82 1    
     3    1   83 1    
     4    1   84 1    
     5    2    3 2    
     6    2    4 am   BACKBONE|DICT|INTERRES
     7    4    5 1    
     8    4   85 1    
     9    5    6 1    
    10    5   80 1    
    11    5   86 1    
    12    6    7 1    
    13    6   87 1    
    14    6   88 1    
    15    7    8 1    
    16    8    9 1    
    17    8   89 1    
    18    8   90 1    
    19    9   10 ar   
    20    9   14 ar   
    21   10   11 ar   
    22   10   91 1    
    23   11   12 ar   
    24   11   58 1    
    25   12   13 ar   
    26   12   92 1    
    27   13   14 ar   
    28   13   15 1    
    29   14   93 1    
    30   15   16 1    
    31   15   94 1    
    32   15   95 1    
    33   16   17 1    
    34   17   18 1    
    35   17   96 1    
    36   17   97 1    
    37   18   19 1    
    38   18   22 1    
    39   18   98 1    
    40   19   20 am   BACKBONE|DICT|INTERRES
    41   19   21 2    
    42   20   99 1    
    43   20  100 1    
    44   22   23 am   BACKBONE|DICT|INTERRES
    45   22  101 1    
    46   23   24 2    
    47   23   25 1    
    48   25   26 1    
    49   25   27 1    
    50   25  102 1    
    51   26  103 1    
    52   26  104 1    
    53   26  105 1    
    54   27   28 am   BACKBONE|DICT|INTERRES
    55   27  106 1    
    56   28   29 2    
    57   28   30 1    
    58   30   31 1    
    59   30   32 1    
    60   30  107 1    
    61   31  108 1    
    62   31  109 1    
    63   31  110 1    
    64   32   33 am   BACKBONE|DICT|INTERRES
    65   32  111 1    
    66   33   34 2    
    67   33   35 1    
    68   35   36 1    
    69   35   37 1    
    70   35  112 1    
    71   36  113 1    
    72   36  114 1    
    73   36  115 1    
    74   37   38 am   BACKBONE|DICT|INTERRES
    75   37  116 1    
    76   38   39 2    
    77   38   40 1    
    78   40   41 1    
    79   40   42 1    
    80   40  117 1    
    81   41  118 1    
    82   41  119 1    
    83   41  120 1    
    84   42   43 am   BACKBONE|DICT|INTERRES
    85   42  121 1    
    86   43   44 2    
    87   43   45 1    
    88   45   46 1    
    89   45   47 1    
    90   45  122 1    
    91   46  123 1    
    92   46  124 1    
    93   46  125 1    
    94   47   48 am   BACKBONE|DICT|INTERRES
    95   47  126 1    
    96   48   49 2    
    97   48   50 1    
    98   50   51 1    
    99   50   52 1    
   100   50  127 1    
   101   51  128 1    
   102   51  129 1    
   103   51  130 1    
   104   52   53 am   BACKBONE|DICT|INTERRES
   105   52  131 1    
   106   53   54 2    
   107   53   55 1    
   108   55   56 1    
   109   55   59 1    
   110   55  132 1    
   111   56   57 1    
   112   56  133 1    
   113   56  134 1    
   114   57   58 1    
   115   58  135 1    
   116   58  136 1    
   117   59   60 am   BACKBONE|DICT|INTERRES
   118   59  137 1    
   119   60   61 2    
   120   60   62 1    
   121   62   63 1    
   122   62   64 1    
   123   62  138 1    
   124   63  139 1    
   125   63  140 1    
   126   63  141 1    
   127   64   65 am   BACKBONE|DICT|INTERRES
   128   64  142 1    
   129   65   66 2    
   130   65   67 1    
   131   67   68 1    
   132   67   69 1    
   133   67  143 1    
   134   68  144 1    
   135   68  145 1    
   136   68  146 1    
   137   69   70 am   BACKBONE|DICT|INTERRES
   138   69  147 1    
   139   70   71 2    
   140   70   72 1    
   141   72   73 1    
   142   72   74 1    
   143   72  148 1    
   144   73  149 1    
   145   73  150 1    
   146   73  151 1    
   147   74   75 am   BACKBONE|DICT|INTERRES
   148   74  152 1    
   149   75   76 2    
   150   75   77 1    
   151   77   78 1    
   152   77   79 1    
   153   77  153 1    
   154   78  154 1    
   155   78  155 1    
   156   78  156 1    
   157   79   80 am   BACKBONE|DICT|INTERRES
   158   79  157 1    
   159   80   81 2    
@<TRIPOS>SUBSTRUCTURE
     1 UNK         1 GROUP             0       ****    0 ROOT    
