@<TRIPOS>MOLECULE
3R207
157   159    1
SMALL
USER_CHARGES


@<TRIPOS>ATOM
      1 CA        -46.5977  -28.5398    2.2106 C.3       0 UNK        -0.1975 
      2 C         -47.3978  -28.3536    3.4911 C.2       0 UNK         0.4852 
      3 O         -47.0721  -27.4723    4.2875 O.2       0 UNK        -0.5216 
      4 N         -48.4464  -29.1679    3.6818 N.am      1 UNK        -0.4461 
      5 CA        -49.3650  -29.2283    4.8321 C.3       1 UNK         0.0864 
      6 C6        -48.6724  -29.5178    6.1913 C.3       14 UNK        -0.0898 
      7 S7        -47.8569  -31.1474    6.2497 S.3       14 UNK        -0.2598 
      8 C8        -49.1813  -32.2132    6.9162 C.3       14 UNK         0.0286 
      9 C9        -49.7008  -31.7468    8.2718 C.ar      14 UNK        -0.0844 
     10 C10       -48.8508  -31.7025    9.3804 C.ar      14 UNK        -0.0881 
     11 C11       -49.3177  -31.2622   10.6232 C.ar      14 UNK        -0.0643 
     12 C12       -50.6625  -30.8912   10.7556 C.ar      14 UNK        -0.0930 
     13 C13       -51.5206  -30.9230    9.6531 C.ar      14 UNK        -0.0827 
     14 C14       -51.0345  -31.3528    8.4151 C.ar      14 UNK        -0.1249 
     15 C15       -52.9722  -30.4895    9.7893 C.3       14 UNK         0.0141 
     16 S16       -53.1558  -28.7073    9.4658 S.3       14 UNK        -0.2313 
     17 C17       -53.3608  -28.0163   11.1427 C.3       14 UNK        -0.0915 
     18 CA        -54.8220  -27.5414   11.3831 C.3       13 UNK         0.0968 
     19 C         -55.6689  -28.6231   12.1026 C.2       13 UNK         0.5732 
     20 N         -56.3510  -29.4788   11.3534 N.am      13 UNK        -0.7310 
     21 O         -55.6766  -28.7218   13.3279 O.2       13 UNK        -0.5035 
     22 N         -54.8716  -26.2565   12.0932 N.am      13 UNK        -0.4233 
     23 C         -55.8652  -25.3674   11.9554 C.2       13 UNK         0.4989 
     24 O         -56.8146  -25.5168   11.1829 O.2       13 UNK        -0.4996 
     25 CA        -55.7694  -24.0893   12.8104 C.3       12 UNK         0.0216 
     26 CB        -57.0157  -23.1840   12.7053 C.3       12 UNK        -0.1964 
     27 N         -55.4439  -24.3768   14.2090 N.am      12 UNK        -0.4276 
     28 C         -56.1521  -25.0988   15.0919 C.2       12 UNK         0.5020 
     29 O         -57.2703  -25.5622   14.8644 O.2       12 UNK        -0.5489 
     30 CA        -55.5033  -25.3654   16.4647 C.3       11 UNK         0.0294 
     31 CB        -55.2176  -26.8672   16.6417 C.3       11 UNK        -0.2019 
     32 N         -54.2529  -24.6241   16.6506 N.am      11 UNK        -0.4493 
     33 C         -54.1620  -23.3762   17.1307 C.2       11 UNK         0.4932 
     34 O         -55.1230  -22.7325   17.5515 O.2       11 UNK        -0.5029 
     35 CA        -52.7650  -22.7266   17.1228 C.3       10 UNK         0.0280 
     36 CB        -52.0694  -22.9350   18.4774 C.3       10 UNK        -0.1976 
     37 N         -51.8941  -23.2237   16.0524 N.am      10 UNK        -0.4242 
     38 C         -52.0966  -23.0251   14.7403 C.2       10 UNK         0.5072 
     39 O         -53.0344  -22.3748   14.2807 O.2       10 UNK        -0.5224 
     40 CA        -51.1265  -23.7341   13.7791 C.3       9 UNK         0.0343 
     41 CB        -49.8420  -22.9054   13.6226 C.3       9 UNK        -0.2003 
     42 N         -50.7835  -25.0890   14.2222 N.am      9 UNK        -0.4272 
     43 C         -51.6657  -26.0720   14.4580 C.2       9 UNK         0.4988 
     44 O         -52.8613  -25.9721   14.1808 O.2       9 UNK        -0.5108 
     45 CA        -51.1725  -27.3570   15.1573 C.3       8 UNK         0.0248 
     46 CB        -51.7242  -28.6153   14.4679 C.3       8 UNK        -0.2001 
     47 N         -49.7165  -27.4724   15.2641 N.am      8 UNK        -0.4140 
     48 C         -48.9143  -26.7596   16.0697 C.2       8 UNK         0.5028 
     49 O         -49.3270  -25.9395   16.8901 O.2       8 UNK        -0.5428 
     50 CA        -47.3950  -26.9492   15.8777 C.3       7 UNK         0.0264 
     51 CB        -46.8374  -27.9271   16.9238 C.3       7 UNK        -0.1988 
     52 N         -47.0520  -27.4284   14.5322 N.am      7 UNK        -0.4454 
     53 C         -47.2466  -26.7266   13.4061 C.2       7 UNK         0.5027 
     54 O         -47.5631  -25.5354   13.4018 O.2       7 UNK        -0.5083 
     55 CA        -47.1569  -27.5189   12.0870 C.3       6 UNK         0.0844 
     56 C56       -48.4415  -28.3498   11.8337 C.3       14 UNK        -0.0967 
     57 S57       -48.6182  -29.7988   12.9360 S.3       14 UNK        -0.2604 
     58 C58       -48.3470  -31.2026   11.8015 C.3       14 UNK         0.0134 
     59 N         -46.9570  -26.5874   10.9808 N.am      6 UNK        -0.4116 
     60 C         -45.8511  -26.4812   10.2347 C.2       5 UNK         0.5034 
     61 O         -44.8392  -27.1609   10.4129 O.2       5 UNK        -0.5045 
     62 CA        -45.8654  -25.4651    9.0761 C.3       5 UNK         0.0224 
     63 CB        -45.8134  -26.1921    7.7208 C.3       5 UNK        -0.1978 
     64 N         -47.0360  -24.5823    9.1011 N.am      5 UNK        -0.4737 
     65 C         -47.1301  -23.4820    9.8625 C.2       4 UNK         0.5027 
     66 O         -46.2087  -23.0673   10.5657 O.2       4 UNK        -0.5211 
     67 CA        -48.4601  -22.7020    9.8477 C.3       4 UNK         0.0297 
     68 CB        -48.3245  -21.4361    8.9859 C.3       4 UNK        -0.1993 
     69 N         -49.6200  -23.4679    9.3832 N.am      4 UNK        -0.4486 
     70 C         -50.1170  -24.5722    9.9583 C.2       3 UNK         0.4961 
     71 O         -49.6515  -25.0956   10.9682 O.2       3 UNK        -0.5105 
     72 CA        -51.2953  -25.2467    9.2358 C.3       3 UNK         0.0299 
     73 CB        -52.6326  -24.6555    9.7112 C.3       3 UNK        -0.1972 
     74 N         -51.2161  -25.1872    7.7692 N.am      3 UNK        -0.4305 
     75 C         -50.1873  -25.6551    7.0485 C.2       2 UNK         0.5006 
     76 O         -49.1503  -26.1010    7.5453 O.2       2 UNK        -0.5106 
     77 CA        -50.3111  -25.5906    5.5186 C.3       2 UNK         0.0296 
     78 CB        -49.5808  -24.3540    4.9706 C.3       2 UNK        -0.2002 
     79 N         -49.7063  -26.7955    4.9562 N.am      2 UNK        -0.4032 
     80 C         -50.2866  -28.0003    4.9756 C.2       1 UNK         0.5000 
     81 O         -51.4950  -28.1708    5.1490 O.2       1 UNK        -0.5238 
     82 H82       -46.9918  -29.3486    1.5956 H         1 UNK         0.0889 
     83 H83       -45.5598  -28.7703    2.4490 H         1 UNK         0.0889 
     84 H84       -46.6166  -27.6240    1.6203 H         1 UNK         0.0889 
     85 H85       -48.6524  -29.8449    2.9601 H         1 UNK         0.3028 
     86 H86       -50.0288  -30.0690    4.6231 H         1 UNK         0.0864 
     87 H87       -47.9201  -28.7594    6.4116 H         1 UNK         0.0720 
     88 H88       -49.3871  -29.4477    7.0125 H         1 UNK         0.0720 
     89 H89       -48.7985  -33.2299    7.0144 H         1 UNK         0.0814 
     90 H90       -49.9915  -32.2630    6.1871 H         1 UNK         0.0814 
     91 H91       -47.8168  -31.9990    9.2667 H         1 UNK         0.1469 
     92 H92       -51.0407  -30.5598   11.7123 H         1 UNK         0.1381 
     93 H93       -51.6966  -31.3724    7.5600 H         1 UNK         0.1206 
     94 H94       -53.3616  -30.7492   10.7747 H         1 UNK         0.0813 
     95 H95       -53.5879  -31.0362    9.0736 H         1 UNK         0.0813 
     96 H96       -53.0369  -28.7395   11.8906 H         1 UNK         0.0638 
     97 H97       -52.6634  -27.1831   11.2314 H         1 UNK         0.0638 
     98 H98       -55.2813  -27.3688   10.4073 H         1 UNK         0.0568 
     99 H99       -56.8945  -30.1977   11.8041 H         1 UNK         0.3450 
    100 H100      -56.3372  -29.4154   10.3476 H         1 UNK         0.3450 
    101 H101      -54.1689  -26.1124   12.8143 H         1 UNK         0.2987 
    102 H102      -54.9233  -23.5259   12.4140 H         1 UNK         0.0766 
    103 H103      -57.9193  -23.6945   13.0399 H         1 UNK         0.0798 
    104 H104      -56.8996  -22.2802   13.3035 H         1 UNK         0.0798 
    105 H105      -57.1837  -22.8701   11.6744 H         1 UNK         0.0798 
    106 H106      -54.5363  -24.0432   14.5076 H         1 UNK         0.3198 
    107 H107      -56.2211  -25.0626   17.2303 H         1 UNK         0.0843 
    108 H108      -56.1383  -27.4485   16.5751 H         1 UNK         0.0831 
    109 H109      -54.7722  -27.0778   17.6140 H         1 UNK         0.0831 
    110 H110      -54.5448  -27.2458   15.8714 H         1 UNK         0.0831 
    111 H111      -53.4172  -25.0683   16.2978 H         1 UNK         0.3133 
    112 H112      -52.9023  -21.6539   16.9705 H         1 UNK         0.0566 
    113 H113      -51.1171  -22.4061   18.5206 H         1 UNK         0.0814 
    114 H114      -52.6850  -22.5566   19.2949 H         1 UNK         0.0814 
    115 H115      -51.8768  -23.9904   18.6757 H         1 UNK         0.0814 
    116 H116      -51.0977  -23.7799   16.3340 H         1 UNK         0.3091 
    117 H117      -51.6102  -23.8159   12.8044 H         1 UNK         0.0702 
    118 H118      -49.1402  -23.3873   12.9435 H         1 UNK         0.0785 
    119 H119      -49.3303  -22.7643   14.5754 H         1 UNK         0.0785 
    120 H120      -50.0615  -21.9171   13.2166 H         1 UNK         0.0785 
    121 H121      -49.8070  -25.2587   14.4203 H         1 UNK         0.2998 
    122 H122      -51.5777  -27.3292   16.1707 H         1 UNK         0.0697 
    123 H123      -51.3543  -28.7007   13.4470 H         1 UNK         0.0825 
    124 H124      -52.8143  -28.6003   14.4236 H         1 UNK         0.0825 
    125 H125      -51.4386  -29.5204   15.0040 H         1 UNK         0.0825 
    126 H126      -49.2793  -28.1240   14.6263 H         1 UNK         0.3029 
    127 H127      -46.9210  -25.9762   16.0246 H         1 UNK         0.0897 
    128 H128      -45.7540  -28.0185   16.8442 H         1 UNK         0.0792 
    129 H129      -47.0582  -27.5826   17.9353 H         1 UNK         0.0792 
    130 H130      -47.2685  -28.9235   16.8177 H         1 UNK         0.0792 
    131 H131      -46.7957  -28.4032   14.4514 H         1 UNK         0.3086 
    132 H132      -46.3071  -28.2009   12.1587 H         1 UNK         0.0583 
    133 H133      -49.3340  -27.7263   11.9253 H         1 UNK         0.1020 
    134 H134      -48.4459  -28.6975   10.7993 H         1 UNK         0.1020 
    135 H135      -47.3176  -31.1521   11.4429 H         1 UNK         0.0694 
    136 H136      -48.4328  -32.1301   12.3687 H         1 UNK         0.0694 
    137 H137      -47.7189  -25.9342   10.8292 H         1 UNK         0.2989 
    138 H138      -44.9616  -24.8583    9.1676 H         1 UNK         0.1055 
    139 H139      -45.8402  -25.4901    6.8873 H         1 UNK         0.0806 
    140 H140      -46.6461  -26.8855    7.6004 H         1 UNK         0.0806 
    141 H141      -44.8954  -26.7732    7.6248 H         1 UNK         0.0806 
    142 H142      -47.8444  -24.8926    8.5696 H         1 UNK         0.3061 
    143 H143      -48.6614  -22.3920   10.8740 H         1 UNK         0.0734 
    144 H144      -47.4893  -20.8210    9.3242 H         1 UNK         0.0832 
    145 H145      -48.1453  -21.6791    7.9377 H         1 UNK         0.0832 
    146 H146      -49.2206  -20.8177    9.0415 H         1 UNK         0.0832 
    147 H147      -50.0667  -23.1396    8.5397 H         1 UNK         0.3156 
    148 H148      -51.2698  -26.3024    9.5106 H         1 UNK         0.0589 
    149 H149      -53.4781  -25.2182    9.3146 H         1 UNK         0.0808 
    150 H150      -52.7087  -24.6893   10.7985 H         1 UNK         0.0808 
    151 H151      -52.7470  -23.6138    9.4093 H         1 UNK         0.0808 
    152 H152      -52.0271  -24.8288    7.2851 H         1 UNK         0.3098 
    153 H153      -51.3641  -25.5419    5.2334 H         1 UNK         0.0720 
    154 H154      -49.6440  -24.3073    3.8833 H         1 UNK         0.0791 
    155 H155      -48.5244  -24.3551    5.2441 H         1 UNK         0.0791 
    156 H156      -50.0193  -23.4348    5.3612 H         1 UNK         0.0791 
    157 H157      -48.6954  -26.7858    4.8345 H         1 UNK         0.3028 
@<TRIPOS>BOND
     1    1    2 1    
     2    1   82 1    
     3    1   83 1    
     4    1   84 1    
     5    2    3 2    
     6    2    4 am   BACKBONE|DICT|INTERRES
     7    4    5 1    
     8    4   85 1    
     9    5    6 1    
    10    5   80 1    
    11    5   86 1    
    12    6    7 1    
    13    6   87 1    
    14    6   88 1    
    15    7    8 1    
    16    8    9 1    
    17    8   89 1    
    18    8   90 1    
    19    9   10 ar   
    20    9   14 ar   
    21   10   11 ar   
    22   10   91 1    
    23   11   12 ar   
    24   11   58 1    
    25   12   13 ar   
    26   12   92 1    
    27   13   14 ar   
    28   13   15 1    
    29   14   93 1    
    30   15   16 1    
    31   15   94 1    
    32   15   95 1    
    33   16   17 1    
    34   17   18 1    
    35   17   96 1    
    36   17   97 1    
    37   18   19 1    
    38   18   22 1    
    39   18   98 1    
    40   19   20 am   BACKBONE|DICT|INTERRES
    41   19   21 2    
    42   20   99 1    
    43   20  100 1    
    44   22   23 am   BACKBONE|DICT|INTERRES
    45   22  101 1    
    46   23   24 2    
    47   23   25 1    
    48   25   26 1    
    49   25   27 1    
    50   25  102 1    
    51   26  103 1    
    52   26  104 1    
    53   26  105 1    
    54   27   28 am   BACKBONE|DICT|INTERRES
    55   27  106 1    
    56   28   29 2    
    57   28   30 1    
    58   30   31 1    
    59   30   32 1    
    60   30  107 1    
    61   31  108 1    
    62   31  109 1    
    63   31  110 1    
    64   32   33 am   BACKBONE|DICT|INTERRES
    65   32  111 1    
    66   33   34 2    
    67   33   35 1    
    68   35   36 1    
    69   35   37 1    
    70   35  112 1    
    71   36  113 1    
    72   36  114 1    
    73   36  115 1    
    74   37   38 am   BACKBONE|DICT|INTERRES
    75   37  116 1    
    76   38   39 2    
    77   38   40 1    
    78   40   41 1    
    79   40   42 1    
    80   40  117 1    
    81   41  118 1    
    82   41  119 1    
    83   41  120 1    
    84   42   43 am   BACKBONE|DICT|INTERRES
    85   42  121 1    
    86   43   44 2    
    87   43   45 1    
    88   45   46 1    
    89   45   47 1    
    90   45  122 1    
    91   46  123 1    
    92   46  124 1    
    93   46  125 1    
    94   47   48 am   BACKBONE|DICT|INTERRES
    95   47  126 1    
    96   48   49 2    
    97   48   50 1    
    98   50   51 1    
    99   50   52 1    
   100   50  127 1    
   101   51  128 1    
   102   51  129 1    
   103   51  130 1    
   104   52   53 am   BACKBONE|DICT|INTERRES
   105   52  131 1    
   106   53   54 2    
   107   53   55 1    
   108   55   56 1    
   109   55   59 1    
   110   55  132 1    
   111   56   57 1    
   112   56  133 1    
   113   56  134 1    
   114   57   58 1    
   115   58  135 1    
   116   58  136 1    
   117   59   60 am   BACKBONE|DICT|INTERRES
   118   59  137 1    
   119   60   61 2    
   120   60   62 1    
   121   62   63 1    
   122   62   64 1    
   123   62  138 1    
   124   63  139 1    
   125   63  140 1    
   126   63  141 1    
   127   64   65 am   BACKBONE|DICT|INTERRES
   128   64  142 1    
   129   65   66 2    
   130   65   67 1    
   131   67   68 1    
   132   67   69 1    
   133   67  143 1    
   134   68  144 1    
   135   68  145 1    
   136   68  146 1    
   137   69   70 am   BACKBONE|DICT|INTERRES
   138   69  147 1    
   139   70   71 2    
   140   70   72 1    
   141   72   73 1    
   142   72   74 1    
   143   72  148 1    
   144   73  149 1    
   145   73  150 1    
   146   73  151 1    
   147   74   75 am   BACKBONE|DICT|INTERRES
   148   74  152 1    
   149   75   76 2    
   150   75   77 1    
   151   77   78 1    
   152   77   79 1    
   153   77  153 1    
   154   78  154 1    
   155   78  155 1    
   156   78  156 1    
   157   79   80 am   BACKBONE|DICT|INTERRES
   158   79  157 1    
   159   80   81 2    
@<TRIPOS>SUBSTRUCTURE
     1 UNK         1 GROUP             0       ****    0 ROOT    
