@<TRIPOS>MOLECULE
3R207
157   159    1
SMALL
USER_CHARGES


@<TRIPOS>ATOM
      1 CA        -47.0459  -32.7560    4.3703 C.3       0 UNK        -0.1975 
      2 C         -47.1472  -31.3127    3.9000 C.2       0 UNK         0.4852 
      3 O         -46.1577  -30.7510    3.4294 O.2       0 UNK        -0.5216 
      4 N         -48.3348  -30.7055    4.0287 N.am      1 UNK        -0.4461 
      5 CA        -48.6233  -29.3199    3.6332 C.3       1 UNK         0.0864 
      6 C6        -50.1338  -29.1077    3.3514 C.3       14 UNK        -0.0898 
      7 S7        -51.2276  -29.5514    4.7454 S.3       14 UNK        -0.2598 
      8 C8        -51.5960  -27.8932    5.3999 C.3       14 UNK         0.0286 
      9 C9        -52.2684  -27.9201    6.7657 C.ar      14 UNK        -0.0844 
     10 C10       -51.7452  -28.6990    7.8014 C.ar      14 UNK        -0.0881 
     11 C11       -52.3286  -28.6783    9.0691 C.ar      14 UNK        -0.0643 
     12 C12       -53.4337  -27.8570    9.3061 C.ar      14 UNK        -0.0930 
     13 C13       -53.9785  -27.0735    8.2790 C.ar      14 UNK        -0.0827 
     14 C14       -53.3847  -27.1150    7.0128 C.ar      14 UNK        -0.1249 
     15 C15       -55.1826  -26.1477    8.4806 C.3       14 UNK         0.0141 
     16 S16       -56.0771  -26.3138   10.0660 S.3       14 UNK        -0.2313 
     17 C17       -56.8113  -27.9769    9.8964 C.3       14 UNK        -0.0915 
     18 CA        -58.0830  -28.1740   10.7732 C.3       13 UNK         0.0968 
     19 C         -58.7781  -29.5461   10.5124 C.2       13 UNK         0.5732 
     20 N         -59.3735  -30.1889   11.5103 N.am      13 UNK        -0.7310 
     21 O         -58.8139  -30.0233    9.3803 O.2       13 UNK        -0.5035 
     22 N         -57.8722  -27.8508   12.1987 N.am      13 UNK        -0.4233 
     23 C         -57.0127  -28.4512   13.0322 C.2       13 UNK         0.4989 
     24 O         -56.2699  -29.3846   12.7183 O.2       13 UNK        -0.4996 
     25 CA        -57.0355  -27.9529   14.4864 C.3       12 UNK         0.0216 
     26 CB        -58.1002  -28.7118   15.2967 C.3       12 UNK        -0.1964 
     27 N         -55.7333  -28.1279   15.1316 N.am      12 UNK        -0.4276 
     28 C         -54.6905  -27.3068   14.9642 C.2       12 UNK         0.5020 
     29 O         -54.7230  -26.2837   14.2750 O.2       12 UNK        -0.5489 
     30 CA        -53.3879  -27.7131   15.6737 C.3       11 UNK         0.0294 
     31 CB        -52.5150  -28.5813   14.7535 C.3       11 UNK        -0.2019 
     32 N         -52.6231  -26.5367   16.0862 N.am      11 UNK        -0.4493 
     33 C         -52.9173  -25.7690   17.1438 C.2       11 UNK         0.4932 
     34 O         -53.8411  -26.0086   17.9246 O.2       11 UNK        -0.5029 
     35 CA        -52.0167  -24.5365   17.3639 C.3       10 UNK         0.0280 
     36 CB        -52.2201  -23.8670   18.7397 C.3       10 UNK        -0.1976 
     37 N         -50.5994  -24.8273   17.1217 N.am      10 UNK        -0.4242 
     38 C         -49.8185  -25.7083   17.7667 C.2       10 UNK         0.5072 
     39 O         -50.1772  -26.3541   18.7526 O.2       10 UNK        -0.5224 
     40 CA        -48.3988  -25.9390   17.2110 C.3       9 UNK         0.0343 
     41 CB        -48.3144  -27.3187   16.5365 C.3       9 UNK        -0.2003 
     42 N         -47.9623  -24.9188   16.2535 N.am      9 UNK        -0.4272 
     43 C         -47.6053  -23.6672   16.5733 C.2       9 UNK         0.4988 
     44 O         -47.5339  -23.2490   17.7293 O.2       9 UNK        -0.5108 
     45 CA        -47.3115  -22.7096   15.4041 C.3       8 UNK         0.0248 
     46 CB        -45.8615  -22.8708   14.9206 C.3       8 UNK        -0.2001 
     47 N         -48.2349  -22.8744   14.2751 N.am      8 UNK        -0.4140 
     48 C         -49.5581  -22.6576   14.3387 C.2       8 UNK         0.5028 
     49 O         -50.1389  -22.2618   15.3490 O.2       8 UNK        -0.5428 
     50 CA        -50.3867  -22.9815   13.0852 C.3       7 UNK         0.0264 
     51 CB        -50.2593  -21.8638   12.0381 C.3       7 UNK        -0.1988 
     52 N         -50.0300  -24.2708   12.4897 N.am      7 UNK        -0.4454 
     53 C         -50.1832  -25.4567   13.0978 C.2       7 UNK         0.5027 
     54 O         -50.7021  -25.5926   14.2060 O.2       7 UNK        -0.5083 
     55 CA        -49.6254  -26.7005   12.3789 C.3       6 UNK         0.0844 
     56 C56       -50.6280  -27.2389   11.3376 C.3       14 UNK        -0.0967 
     57 S57       -50.1513  -28.8999   10.7592 S.3       14 UNK        -0.2604 
     58 C58       -51.7544  -29.5357   10.1863 C.3       14 UNK         0.0134 
     59 N         -48.3049  -26.4529   11.7949 N.am      6 UNK        -0.4116 
     60 C         -47.2106  -26.1256   12.4951 C.2       5 UNK         0.5034 
     61 O         -47.1748  -26.0448   13.7221 O.2       5 UNK        -0.5045 
     62 CA        -45.9588  -25.7687   11.6832 C.3       5 UNK         0.0224 
     63 CB        -45.2308  -27.0367   11.2105 C.3       5 UNK        -0.1978 
     64 N         -46.2869  -24.9157   10.5384 N.am      5 UNK        -0.4737 
     65 C         -46.6965  -23.6436   10.6485 C.2       4 UNK         0.5027 
     66 O         -46.7977  -23.0496   11.7215 O.2       4 UNK        -0.5211 
     67 CA        -47.0958  -22.9253    9.3492 C.3       4 UNK         0.0297 
     68 CB        -45.8572  -22.3389    8.6541 C.3       4 UNK        -0.1993 
     69 N         -47.8222  -23.7900    8.4156 N.am      4 UNK        -0.4486 
     70 C         -49.0309  -24.3189    8.6544 C.2       3 UNK         0.4961 
     71 O         -49.6726  -24.1253    9.6853 O.2       3 UNK        -0.5105 
     72 CA        -49.6059  -25.2502    7.5745 C.3       3 UNK         0.0299 
     73 CB        -50.3085  -24.4206    6.4867 C.3       3 UNK        -0.1972 
     74 N         -48.6076  -26.1366    6.9628 N.am      3 UNK        -0.4305 
     75 C         -47.8279  -27.0027    7.6256 C.2       2 UNK         0.5006 
     76 O         -47.8329  -27.1205    8.8527 O.2       2 UNK        -0.5106 
     77 CA        -46.8687  -27.8570    6.7729 C.3       2 UNK         0.0296 
     78 CB        -45.9715  -28.7704    7.6289 C.3       2 UNK        -0.2002 
     79 N         -47.5659  -28.6829    5.7828 N.am      2 UNK        -0.4032 
     80 C         -48.0448  -28.2603    4.6033 C.2       1 UNK         0.5000 
     81 O         -48.0394  -27.0740    4.2659 O.2       1 UNK        -0.5238 
     82 H82       -46.7497  -33.3998    3.5424 H         1 UNK         0.0889 
     83 H83       -47.9933  -33.1245    4.7637 H         1 UNK         0.0889 
     84 H84       -46.2954  -32.8432    5.1555 H         1 UNK         0.0889 
     85 H85       -49.1188  -31.2122    4.4174 H         1 UNK         0.3028 
     86 H86       -48.1074  -29.1451    2.6862 H         1 UNK         0.0864 
     87 H87       -50.3298  -28.0816    3.0336 H         1 UNK         0.0720 
     88 H88       -50.4267  -29.7279    2.5028 H         1 UNK         0.0720 
     89 H89       -52.2109  -27.3585    4.6741 H         1 UNK         0.0814 
     90 H90       -50.6667  -27.3355    5.4925 H         1 UNK         0.0814 
     91 H91       -50.8724  -29.3135    7.6281 H         1 UNK         0.1469 
     92 H92       -53.8573  -27.8342   10.2994 H         1 UNK         0.1381 
     93 H93       -53.7860  -26.5005    6.2181 H         1 UNK         0.1206 
     94 H94       -54.8343  -25.1172    8.4002 H         1 UNK         0.0813 
     95 H95       -55.8927  -26.2944    7.6654 H         1 UNK         0.0813 
     96 H96       -56.0572  -28.7253   10.1418 H         1 UNK         0.0638 
     97 H97       -57.0544  -28.1289    8.8434 H         1 UNK         0.0638 
     98 H98       -58.8139  -27.4419   10.4289 H         1 UNK         0.0568 
     99 H99       -59.8301  -31.0682   11.3260 H         1 UNK         0.3450 
    100 H100      -59.3658  -29.8087   12.4422 H         1 UNK         0.3450 
    101 H101      -58.4559  -27.1098   12.5587 H         1 UNK         0.2987 
    102 H102      -57.2877  -26.8899   14.4910 H         1 UNK         0.0766 
    103 H103      -58.1374  -28.3617   16.3286 H         1 UNK         0.0798 
    104 H104      -57.9074  -29.7855   15.3135 H         1 UNK         0.0798 
    105 H105      -59.0948  -28.5659   14.8731 H         1 UNK         0.0798 
    106 H106      -55.6069  -28.9755   15.6659 H         1 UNK         0.3198 
    107 H107      -53.6354  -28.2934   16.5655 H         1 UNK         0.0843 
    108 H108      -52.2397  -28.0470   13.8456 H         1 UNK         0.0831 
    109 H109      -53.0427  -29.4867   14.4505 H         1 UNK         0.0831 
    110 H110      -51.5958  -28.8905   15.2516 H         1 UNK         0.0831 
    111 H111      -51.8906  -26.2228   15.4512 H         1 UNK         0.3133 
    112 H112      -52.3065  -23.8123   16.6011 H         1 UNK         0.0566 
    113 H113      -51.5800  -22.9919   18.8518 H         1 UNK         0.0814 
    114 H114      -53.2508  -23.5317   18.8614 H         1 UNK         0.0814 
    115 H115      -52.0026  -24.5505   19.5608 H         1 UNK         0.0814 
    116 H116      -50.2044  -24.3637   16.3128 H         1 UNK         0.3091 
    117 H117      -47.7106  -25.9295   18.0587 H         1 UNK         0.0702 
    118 H118      -47.3029  -27.5294   16.1886 H         1 UNK         0.0785 
    119 H119      -48.9844  -27.3871   15.6786 H         1 UNK         0.0785 
    120 H120      -48.5905  -28.1134   17.2308 H         1 UNK         0.0785 
    121 H121      -47.9106  -25.2056   15.2790 H         1 UNK         0.2998 
    122 H122      -47.4314  -21.6904   15.7772 H         1 UNK         0.0697 
    123 H123      -45.6810  -23.8636   14.5078 H         1 UNK         0.0825 
    124 H124      -45.1574  -22.7248   15.7407 H         1 UNK         0.0825 
    125 H125      -45.6174  -22.1398   14.1496 H         1 UNK         0.0825 
    126 H126      -47.8243  -23.1493   13.3862 H         1 UNK         0.3029 
    127 H127      -51.4340  -23.0405   13.3899 H         1 UNK         0.0897 
    128 H128      -50.9089  -22.0479   11.1821 H         1 UNK         0.0792 
    129 H129      -50.5443  -20.8992   12.4601 H         1 UNK         0.0792 
    130 H130      -49.2385  -21.7698   11.6676 H         1 UNK         0.0792 
    131 H131      -49.6699  -24.2485   11.5372 H         1 UNK         0.3086 
    132 H132      -49.4955  -27.4670   13.1461 H         1 UNK         0.0583 
    133 H133      -51.6338  -27.2918   11.7572 H         1 UNK         0.1020 
    134 H134      -50.6946  -26.5711   10.4767 H         1 UNK         0.1020 
    135 H135      -51.6228  -30.5573    9.8270 H         1 UNK         0.0694 
    136 H136      -52.4435  -29.5934   11.0306 H         1 UNK         0.0694 
    137 H137      -48.2303  -26.5425   10.7862 H         1 UNK         0.2989 
    138 H138      -45.2840  -25.2125   12.3378 H         1 UNK         0.1055 
    139 H139      -44.9029  -27.6331   12.0629 H         1 UNK         0.0806 
    140 H140      -44.3441  -26.7938   10.6250 H         1 UNK         0.0806 
    141 H141      -45.8747  -27.6723   10.6026 H         1 UNK         0.0806 
    142 H142      -46.2970  -25.3530    9.6279 H         1 UNK         0.3061 
    143 H143      -47.7567  -22.0991    9.6197 H         1 UNK         0.0734 
    144 H144      -46.1336  -21.7513    7.7784 H         1 UNK         0.0832 
    145 H145      -45.3118  -21.6757    9.3272 H         1 UNK         0.0832 
    146 H146      -45.1642  -23.1175    8.3328 H         1 UNK         0.0832 
    147 H147      -47.3702  -24.0057    7.5390 H         1 UNK         0.3156 
    148 H148      -50.3526  -25.8863    8.0543 H         1 UNK         0.0589 
    149 H149      -51.0540  -23.7565    6.9267 H         1 UNK         0.0808 
    150 H150      -49.6041  -23.7982    5.9337 H         1 UNK         0.0808 
    151 H151      -50.8317  -25.0502    5.7690 H         1 UNK         0.0808 
    152 H152      -48.5274  -26.1240    5.9502 H         1 UNK         0.3098 
    153 H153      -46.2139  -27.1634    6.2410 H         1 UNK         0.0720 
    154 H154      -46.5582  -29.4658    8.2310 H         1 UNK         0.0791 
    155 H155      -45.3568  -28.1828    8.3111 H         1 UNK         0.0791 
    156 H156      -45.2904  -29.3538    7.0088 H         1 UNK         0.0791 
    157 H157      -47.6494  -29.6657    5.9964 H         1 UNK         0.3028 
@<TRIPOS>BOND
     1    1    2 1    
     2    1   82 1    
     3    1   83 1    
     4    1   84 1    
     5    2    3 2    
     6    2    4 am   BACKBONE|DICT|INTERRES
     7    4    5 1    
     8    4   85 1    
     9    5    6 1    
    10    5   80 1    
    11    5   86 1    
    12    6    7 1    
    13    6   87 1    
    14    6   88 1    
    15    7    8 1    
    16    8    9 1    
    17    8   89 1    
    18    8   90 1    
    19    9   10 ar   
    20    9   14 ar   
    21   10   11 ar   
    22   10   91 1    
    23   11   12 ar   
    24   11   58 1    
    25   12   13 ar   
    26   12   92 1    
    27   13   14 ar   
    28   13   15 1    
    29   14   93 1    
    30   15   16 1    
    31   15   94 1    
    32   15   95 1    
    33   16   17 1    
    34   17   18 1    
    35   17   96 1    
    36   17   97 1    
    37   18   19 1    
    38   18   22 1    
    39   18   98 1    
    40   19   20 am   BACKBONE|DICT|INTERRES
    41   19   21 2    
    42   20   99 1    
    43   20  100 1    
    44   22   23 am   BACKBONE|DICT|INTERRES
    45   22  101 1    
    46   23   24 2    
    47   23   25 1    
    48   25   26 1    
    49   25   27 1    
    50   25  102 1    
    51   26  103 1    
    52   26  104 1    
    53   26  105 1    
    54   27   28 am   BACKBONE|DICT|INTERRES
    55   27  106 1    
    56   28   29 2    
    57   28   30 1    
    58   30   31 1    
    59   30   32 1    
    60   30  107 1    
    61   31  108 1    
    62   31  109 1    
    63   31  110 1    
    64   32   33 am   BACKBONE|DICT|INTERRES
    65   32  111 1    
    66   33   34 2    
    67   33   35 1    
    68   35   36 1    
    69   35   37 1    
    70   35  112 1    
    71   36  113 1    
    72   36  114 1    
    73   36  115 1    
    74   37   38 am   BACKBONE|DICT|INTERRES
    75   37  116 1    
    76   38   39 2    
    77   38   40 1    
    78   40   41 1    
    79   40   42 1    
    80   40  117 1    
    81   41  118 1    
    82   41  119 1    
    83   41  120 1    
    84   42   43 am   BACKBONE|DICT|INTERRES
    85   42  121 1    
    86   43   44 2    
    87   43   45 1    
    88   45   46 1    
    89   45   47 1    
    90   45  122 1    
    91   46  123 1    
    92   46  124 1    
    93   46  125 1    
    94   47   48 am   BACKBONE|DICT|INTERRES
    95   47  126 1    
    96   48   49 2    
    97   48   50 1    
    98   50   51 1    
    99   50   52 1    
   100   50  127 1    
   101   51  128 1    
   102   51  129 1    
   103   51  130 1    
   104   52   53 am   BACKBONE|DICT|INTERRES
   105   52  131 1    
   106   53   54 2    
   107   53   55 1    
   108   55   56 1    
   109   55   59 1    
   110   55  132 1    
   111   56   57 1    
   112   56  133 1    
   113   56  134 1    
   114   57   58 1    
   115   58  135 1    
   116   58  136 1    
   117   59   60 am   BACKBONE|DICT|INTERRES
   118   59  137 1    
   119   60   61 2    
   120   60   62 1    
   121   62   63 1    
   122   62   64 1    
   123   62  138 1    
   124   63  139 1    
   125   63  140 1    
   126   63  141 1    
   127   64   65 am   BACKBONE|DICT|INTERRES
   128   64  142 1    
   129   65   66 2    
   130   65   67 1    
   131   67   68 1    
   132   67   69 1    
   133   67  143 1    
   134   68  144 1    
   135   68  145 1    
   136   68  146 1    
   137   69   70 am   BACKBONE|DICT|INTERRES
   138   69  147 1    
   139   70   71 2    
   140   70   72 1    
   141   72   73 1    
   142   72   74 1    
   143   72  148 1    
   144   73  149 1    
   145   73  150 1    
   146   73  151 1    
   147   74   75 am   BACKBONE|DICT|INTERRES
   148   74  152 1    
   149   75   76 2    
   150   75   77 1    
   151   77   78 1    
   152   77   79 1    
   153   77  153 1    
   154   78  154 1    
   155   78  155 1    
   156   78  156 1    
   157   79   80 am   BACKBONE|DICT|INTERRES
   158   79  157 1    
   159   80   81 2    
@<TRIPOS>SUBSTRUCTURE
     1 UNK         1 GROUP             0       ****    0 ROOT    
