@<TRIPOS>MOLECULE
3R207
157   159    1
SMALL
USER_CHARGES


@<TRIPOS>ATOM
      1 CA        -45.6186  -29.2318    3.9342 C.3       0 UNK        -0.1975 
      2 C         -46.8045  -28.5402    4.5897 C.2       0 UNK         0.4852 
      3 O         -46.6158  -27.7804    5.5382 O.2       0 UNK        -0.5216 
      4 N         -48.0189  -28.7841    4.0733 N.am      1 UNK        -0.4461 
      5 CA        -49.3168  -28.2915    4.5733 C.3       1 UNK         0.0864 
      6 C6        -49.6637  -28.7864    6.0054 C.3       14 UNK        -0.0898 
      7 S7        -49.4982  -30.5923    6.2306 S.3       14 UNK        -0.2598 
      8 C8        -51.1800  -31.0785    6.7371 C.3       14 UNK         0.0286 
      9 C9        -51.6086  -30.4126    8.0388 C.ar      14 UNK        -0.0844 
     10 C10       -50.9808  -30.7425    9.2449 C.ar      14 UNK        -0.0881 
     11 C11       -51.3659  -30.1230   10.4385 C.ar      14 UNK        -0.0643 
     12 C12       -52.3979  -29.1807   10.4221 C.ar      14 UNK        -0.0930 
     13 C13       -53.0398  -28.8523    9.2250 C.ar      14 UNK        -0.0827 
     14 C14       -52.6405  -29.4688    8.0367 C.ar      14 UNK        -0.1249 
     15 C15       -54.1704  -27.8384    9.2225 C.3       14 UNK         0.0141 
     16 S16       -55.7496  -28.6475    9.6145 S.3       14 UNK        -0.2313 
     17 C17       -56.8360  -27.2011    9.8415 C.3       14 UNK        -0.0915 
     18 CA        -56.7092  -26.5604   11.2493 C.3       13 UNK         0.0968 
     19 C         -57.6813  -25.3585   11.3977 C.2       13 UNK         0.5732 
     20 N         -57.2775  -24.1756   10.9548 N.am      13 UNK        -0.7310 
     21 O         -58.8090  -25.4965   11.8695 O.2       13 UNK        -0.5035 
     22 N         -56.8661  -27.5557   12.3192 N.am      13 UNK        -0.4233 
     23 C         -56.5289  -27.3574   13.5976 C.2       13 UNK         0.4989 
     24 O         -56.0457  -26.3035   14.0185 O.2       13 UNK        -0.4996 
     25 CA        -56.7681  -28.5165   14.5873 C.3       12 UNK         0.0216 
     26 CB        -57.1336  -29.8690   13.9301 C.3       12 UNK        -0.1964 
     27 N         -55.6307  -28.6479   15.5044 N.am      12 UNK        -0.4276 
     28 C         -54.3743  -28.9989   15.1946 C.2       12 UNK         0.5020 
     29 O         -54.0184  -29.4257   14.0943 O.2       12 UNK        -0.5489 
     30 CA        -53.3280  -28.7458   16.2948 C.3       11 UNK         0.0294 
     31 CB        -52.0725  -29.6203   16.1266 C.3       11 UNK        -0.2019 
     32 N         -52.9499  -27.3311   16.2652 N.am      11 UNK        -0.4493 
     33 C         -53.7102  -26.3413   16.7571 C.2       11 UNK         0.4932 
     34 O         -54.7120  -26.5442   17.4480 O.2       11 UNK        -0.5029 
     35 CA        -53.3210  -24.9008   16.3764 C.3       10 UNK         0.0280 
     36 CB        -54.0456  -23.8296   17.2200 C.3       10 UNK        -0.1976 
     37 N         -51.8742  -24.6705   16.3532 N.am      10 UNK        -0.4242 
     38 C         -51.0221  -24.7105   17.3892 C.2       10 UNK         0.5072 
     39 O         -51.3652  -24.9601   18.5459 O.2       10 UNK        -0.5224 
     40 CA        -49.5302  -24.4289   17.1092 C.3       9 UNK         0.0343 
     41 CB        -48.6722  -25.6500   17.4822 C.3       9 UNK        -0.2003 
     42 N         -49.2412  -24.0512   15.7222 N.am      9 UNK        -0.4272 
     43 C         -49.5010  -22.8574   15.1698 C.2       9 UNK         0.4988 
     44 O         -49.9424  -21.8947   15.7974 O.2       9 UNK        -0.5108 
     45 CA        -49.2793  -22.7316   13.6498 C.3       8 UNK         0.0248 
     46 CB        -47.8211  -22.3614   13.3375 C.3       8 UNK        -0.2001 
     47 N         -49.6500  -23.9439   12.9107 N.am      8 UNK        -0.4140 
     48 C         -50.8846  -24.4680   12.8692 C.2       8 UNK         0.5028 
     49 O         -51.8637  -23.9576   13.4117 O.2       8 UNK        -0.5428 
     50 CA        -51.0404  -25.8242   12.1651 C.3       7 UNK         0.0264 
     51 CB        -51.1112  -25.6533   10.6377 C.3       7 UNK        -0.1988 
     52 N         -49.9537  -26.7382   12.5209 N.am      7 UNK        -0.4454 
     53 C         -49.7876  -27.2824   13.7363 C.2       7 UNK         0.5027 
     54 O         -50.5649  -27.0965   14.6731 O.2       7 UNK        -0.5083 
     55 CA        -48.5166  -28.1343   13.9605 C.3       6 UNK         0.0844 
     56 C56       -48.7116  -29.6222   13.5751 C.3       14 UNK        -0.0967 
     57 S57       -48.9576  -29.8952   11.7837 S.3       14 UNK        -0.2604 
     58 C58       -50.6828  -30.4766   11.7502 C.3       14 UNK         0.0134 
     59 N         -47.3395  -27.5550   13.3096 N.am      6 UNK        -0.4116 
     60 C         -46.7642  -26.3969   13.6588 C.2       5 UNK         0.5034 
     61 O         -47.1332  -25.7080   14.6076 O.2       5 UNK        -0.5045 
     62 CA        -45.6148  -25.8956   12.7671 C.3       5 UNK         0.0224 
     63 CB        -44.2723  -26.4731   13.2421 C.3       5 UNK        -0.1978 
     64 N         -45.8028  -26.1922   11.3416 N.am      5 UNK        -0.4737 
     65 C         -46.8432  -25.7722   10.6096 C.2       4 UNK         0.5027 
     66 O         -47.7725  -25.1046   11.0692 O.2       4 UNK        -0.5211 
     67 CA        -46.8798  -26.2441    9.1464 C.3       4 UNK         0.0297 
     68 CB        -47.3739  -27.6998    9.0830 C.3       4 UNK        -0.1993 
     69 N         -47.7412  -25.4037    8.3088 N.am      4 UNK        -0.4486 
     70 C         -47.5074  -24.1155    8.0229 C.2       3 UNK         0.4961 
     71 O         -46.4718  -23.5195    8.3280 O.2       3 UNK        -0.5105 
     72 CA        -48.6345  -23.3848    7.2687 C.3       3 UNK         0.0299 
     73 CB        -48.4320  -21.8550    7.2135 C.3       3 UNK        -0.1972 
     74 N         -48.8594  -23.9354    5.9270 N.am      3 UNK        -0.4305 
     75 C         -48.0056  -23.9658    4.8929 C.2       2 UNK         0.5006 
     76 O         -46.8570  -23.5208    4.9243 O.2       2 UNK        -0.5106 
     77 CA        -48.5403  -24.6176    3.6007 C.3       2 UNK         0.0296 
     78 CB        -47.6909  -24.2636    2.3653 C.3       2 UNK        -0.2002 
     79 N         -48.6045  -26.0740    3.7265 N.am      2 UNK        -0.4032 
     80 C         -49.4945  -26.7562    4.4611 C.2       1 UNK         0.5000 
     81 O         -50.4347  -26.2080    5.0427 O.2       1 UNK        -0.5238 
     82 H82       -45.1055  -29.8607    4.6612 H         1 UNK         0.0889 
     83 H83       -44.9100  -28.4917    3.5634 H         1 UNK         0.0889 
     84 H84       -45.9228  -29.8605    3.0975 H         1 UNK         0.0889 
     85 H85       -48.0873  -29.4128    3.2845 H         1 UNK         0.3028 
     86 H86       -50.0648  -28.7120    3.8995 H         1 UNK         0.0864 
     87 H87       -50.6828  -28.4928    6.2589 H         1 UNK         0.0720 
     88 H88       -49.0286  -28.2975    6.7420 H         1 UNK         0.0720 
     89 H89       -51.2121  -32.1616    6.8624 H         1 UNK         0.0814 
     90 H90       -51.8764  -30.8440    5.9303 H         1 UNK         0.0814 
     91 H91       -50.1807  -31.4702    9.2528 H         1 UNK         0.1469 
     92 H92       -52.7103  -28.7077   11.3439 H         1 UNK         0.1381 
     93 H93       -53.1371  -29.2144    7.1101 H         1 UNK         0.1206 
     94 H94       -54.2428  -27.3454    8.2518 H         1 UNK         0.0813 
     95 H95       -53.9615  -27.0567    9.9537 H         1 UNK         0.0813 
     96 H96       -57.8622  -27.5292    9.6655 H         1 UNK         0.0638 
     97 H97       -56.6129  -26.4698    9.0623 H         1 UNK         0.0638 
     98 H98       -55.6964  -26.1637   11.3420 H         1 UNK         0.0568 
     99 H99       -56.3608  -24.0507   10.5552 H         1 UNK         0.3450 
    100 H100      -57.9019  -23.3878   11.0290 H         1 UNK         0.3450 
    101 H101      -57.2590  -28.4432   12.0455 H         1 UNK         0.2987 
    102 H102      -57.6161  -28.2129   15.2027 H         1 UNK         0.0766 
    103 H103      -56.3785  -30.1996   13.2157 H         1 UNK         0.0798 
    104 H104      -58.0854  -29.8072   13.4013 H         1 UNK         0.0798 
    105 H105      -57.2405  -30.6520   14.6808 H         1 UNK         0.0798 
    106 H106      -55.7570  -28.2011   16.4058 H         1 UNK         0.3198 
    107 H107      -53.7717  -28.9840   17.2642 H         1 UNK         0.0843 
    108 H108      -51.6090  -29.4777   15.1514 H         1 UNK         0.0831 
    109 H109      -52.3240  -30.6779   16.2125 H         1 UNK         0.0831 
    110 H110      -51.3261  -29.3974   16.8890 H         1 UNK         0.0831 
    111 H111      -52.1388  -27.0982   15.6944 H         1 UNK         0.3133 
    112 H112      -53.6550  -24.7745   15.3457 H         1 UNK         0.0566 
    113 H113      -55.1273  -23.9112   17.1062 H         1 UNK         0.0814 
    114 H114      -53.8237  -23.9296   18.2828 H         1 UNK         0.0814 
    115 H115      -53.7638  -22.8234   16.9099 H         1 UNK         0.0814 
    116 H116      -51.4969  -24.4666   15.4345 H         1 UNK         0.3091 
    117 H117      -49.2356  -23.5996   17.7555 H         1 UNK         0.0702 
    118 H118      -47.6101  -25.4460   17.3451 H         1 UNK         0.0785 
    119 H119      -48.9281  -26.5196   16.8766 H         1 UNK         0.0785 
    120 H120      -48.8143  -25.9275   18.5275 H         1 UNK         0.0785 
    121 H121      -48.7901  -24.7593   15.1510 H         1 UNK         0.2998 
    122 H122      -49.9193  -21.9237   13.2892 H         1 UNK         0.0697 
    123 H123      -47.1264  -23.1187   13.6999 H         1 UNK         0.0825 
    124 H124      -47.5494  -21.4176   13.8121 H         1 UNK         0.0825 
    125 H125      -47.6604  -22.2451   12.2653 H         1 UNK         0.0825 
    126 H126      -48.9126  -24.4103   12.3849 H         1 UNK         0.3029 
    127 H127      -51.9783  -26.2727   12.5011 H         1 UNK         0.0897 
    128 H128      -50.2412  -25.1298   10.2420 H         1 UNK         0.0792 
    129 H129      -51.9911  -25.0740   10.3555 H         1 UNK         0.0792 
    130 H130      -51.1785  -26.6145   10.1293 H         1 UNK         0.0792 
    131 H131      -49.2476  -26.9008   11.8177 H         1 UNK         0.3086 
    132 H132      -48.3208  -28.1125   15.0347 H         1 UNK         0.0583 
    133 H133      -47.8290  -30.1890   13.8757 H         1 UNK         0.1020 
    134 H134      -49.5315  -30.0607   14.1454 H         1 UNK         0.1020 
    135 H135      -50.7027  -31.5572   11.8974 H         1 UNK         0.0694 
    136 H136      -51.2376  -30.0410   12.5831 H         1 UNK         0.0694 
    137 H137      -46.9791  -28.0532   12.5093 H         1 UNK         0.2989 
    138 H138      -45.5749  -24.8094   12.8720 H         1 UNK         0.1055 
    139 H139      -44.1026  -26.2483   14.2963 H         1 UNK         0.0806 
    140 H140      -43.4373  -26.0474   12.6852 H         1 UNK         0.0806 
    141 H141      -44.2340  -27.5574   13.1301 H         1 UNK         0.0806 
    142 H142      -45.0844  -26.7445   10.8942 H         1 UNK         0.3061 
    143 H143      -45.8650  -26.1969    8.7457 H         1 UNK         0.0734 
    144 H144      -47.2287  -28.1191    8.0892 H         1 UNK         0.0832 
    145 H145      -46.8212  -28.3420    9.7698 H         1 UNK         0.0832 
    146 H146      -48.4309  -27.7868    9.3391 H         1 UNK         0.0832 
    147 H147      -48.6170  -25.8086    8.0153 H         1 UNK         0.3156 
    148 H148      -49.5514  -23.5665    7.8320 H         1 UNK         0.0589 
    149 H149      -47.5241  -21.5811    6.6753 H         1 UNK         0.0808 
    150 H150      -49.2724  -21.3609    6.7263 H         1 UNK         0.0808 
    151 H151      -48.3494  -21.4390    8.2184 H         1 UNK         0.0808 
    152 H152      -49.7413  -24.4207    5.7914 H         1 UNK         0.3098 
    153 H153      -49.5490  -24.2357    3.4286 H         1 UNK         0.0720 
    154 H154      -48.1279  -24.6714    1.4535 H         1 UNK         0.0791 
    155 H155      -46.6725  -24.6457    2.4491 H         1 UNK         0.0791 
    156 H156      -47.6241  -23.1826    2.2354 H         1 UNK         0.0791 
    157 H157      -47.8444  -26.5956    3.3157 H         1 UNK         0.3028 
@<TRIPOS>BOND
     1    1    2 1    
     2    1   82 1    
     3    1   83 1    
     4    1   84 1    
     5    2    3 2    
     6    2    4 am   BACKBONE|DICT|INTERRES
     7    4    5 1    
     8    4   85 1    
     9    5    6 1    
    10    5   80 1    
    11    5   86 1    
    12    6    7 1    
    13    6   87 1    
    14    6   88 1    
    15    7    8 1    
    16    8    9 1    
    17    8   89 1    
    18    8   90 1    
    19    9   10 ar   
    20    9   14 ar   
    21   10   11 ar   
    22   10   91 1    
    23   11   12 ar   
    24   11   58 1    
    25   12   13 ar   
    26   12   92 1    
    27   13   14 ar   
    28   13   15 1    
    29   14   93 1    
    30   15   16 1    
    31   15   94 1    
    32   15   95 1    
    33   16   17 1    
    34   17   18 1    
    35   17   96 1    
    36   17   97 1    
    37   18   19 1    
    38   18   22 1    
    39   18   98 1    
    40   19   20 am   BACKBONE|DICT|INTERRES
    41   19   21 2    
    42   20   99 1    
    43   20  100 1    
    44   22   23 am   BACKBONE|DICT|INTERRES
    45   22  101 1    
    46   23   24 2    
    47   23   25 1    
    48   25   26 1    
    49   25   27 1    
    50   25  102 1    
    51   26  103 1    
    52   26  104 1    
    53   26  105 1    
    54   27   28 am   BACKBONE|DICT|INTERRES
    55   27  106 1    
    56   28   29 2    
    57   28   30 1    
    58   30   31 1    
    59   30   32 1    
    60   30  107 1    
    61   31  108 1    
    62   31  109 1    
    63   31  110 1    
    64   32   33 am   BACKBONE|DICT|INTERRES
    65   32  111 1    
    66   33   34 2    
    67   33   35 1    
    68   35   36 1    
    69   35   37 1    
    70   35  112 1    
    71   36  113 1    
    72   36  114 1    
    73   36  115 1    
    74   37   38 am   BACKBONE|DICT|INTERRES
    75   37  116 1    
    76   38   39 2    
    77   38   40 1    
    78   40   41 1    
    79   40   42 1    
    80   40  117 1    
    81   41  118 1    
    82   41  119 1    
    83   41  120 1    
    84   42   43 am   BACKBONE|DICT|INTERRES
    85   42  121 1    
    86   43   44 2    
    87   43   45 1    
    88   45   46 1    
    89   45   47 1    
    90   45  122 1    
    91   46  123 1    
    92   46  124 1    
    93   46  125 1    
    94   47   48 am   BACKBONE|DICT|INTERRES
    95   47  126 1    
    96   48   49 2    
    97   48   50 1    
    98   50   51 1    
    99   50   52 1    
   100   50  127 1    
   101   51  128 1    
   102   51  129 1    
   103   51  130 1    
   104   52   53 am   BACKBONE|DICT|INTERRES
   105   52  131 1    
   106   53   54 2    
   107   53   55 1    
   108   55   56 1    
   109   55   59 1    
   110   55  132 1    
   111   56   57 1    
   112   56  133 1    
   113   56  134 1    
   114   57   58 1    
   115   58  135 1    
   116   58  136 1    
   117   59   60 am   BACKBONE|DICT|INTERRES
   118   59  137 1    
   119   60   61 2    
   120   60   62 1    
   121   62   63 1    
   122   62   64 1    
   123   62  138 1    
   124   63  139 1    
   125   63  140 1    
   126   63  141 1    
   127   64   65 am   BACKBONE|DICT|INTERRES
   128   64  142 1    
   129   65   66 2    
   130   65   67 1    
   131   67   68 1    
   132   67   69 1    
   133   67  143 1    
   134   68  144 1    
   135   68  145 1    
   136   68  146 1    
   137   69   70 am   BACKBONE|DICT|INTERRES
   138   69  147 1    
   139   70   71 2    
   140   70   72 1    
   141   72   73 1    
   142   72   74 1    
   143   72  148 1    
   144   73  149 1    
   145   73  150 1    
   146   73  151 1    
   147   74   75 am   BACKBONE|DICT|INTERRES
   148   74  152 1    
   149   75   76 2    
   150   75   77 1    
   151   77   78 1    
   152   77   79 1    
   153   77  153 1    
   154   78  154 1    
   155   78  155 1    
   156   78  156 1    
   157   79   80 am   BACKBONE|DICT|INTERRES
   158   79  157 1    
   159   80   81 2    
@<TRIPOS>SUBSTRUCTURE
     1 UNK         1 GROUP             0       ****    0 ROOT    
