@<TRIPOS>MOLECULE
3R207
157   159    1
SMALL
USER_CHARGES


@<TRIPOS>ATOM
      1 CA        -50.6881  -31.6809    2.9088 C.3       0 UNK        -0.1975 
      2 C         -49.9206  -30.4604    3.3950 C.2       0 UNK         0.4852 
      3 O         -48.8844  -30.1219    2.8222 O.2       0 UNK        -0.5216 
      4 N         -50.4197  -29.7989    4.4493 N.am      1 UNK        -0.4461 
      5 CA        -49.8150  -28.6036    5.0541 C.3       1 UNK         0.0864 
      6 C6        -50.8494  -27.8395    5.9201 C.3       14 UNK        -0.0898 
      7 S7        -50.4602  -26.0633    6.0736 S.3       14 UNK        -0.2598 
      8 C8        -50.3176  -25.8684    7.8752 C.3       14 UNK         0.0286 
      9 C9        -51.6797  -25.7106    8.5326 C.ar      14 UNK        -0.0844 
     10 C10       -52.2710  -24.4475    8.5994 C.ar      14 UNK        -0.0881 
     11 C11       -53.5065  -24.2685    9.2292 C.ar      14 UNK        -0.0643 
     12 C12       -54.1560  -25.3792    9.7761 C.ar      14 UNK        -0.0930 
     13 C13       -53.5939  -26.6588    9.6964 C.ar      14 UNK        -0.0827 
     14 C14       -52.3455  -26.8123    9.0775 C.ar      14 UNK        -0.1249 
     15 C15       -54.3791  -27.8243   10.3043 C.3       14 UNK         0.0141 
     16 S16       -53.8892  -29.5096    9.7874 S.3       14 UNK        -0.2313 
     17 C17       -52.4404  -29.8620   10.8417 C.3       14 UNK        -0.0915 
     18 CA        -52.7876  -30.5674   12.1843 C.3       13 UNK         0.0968 
     19 C         -51.5013  -31.0368   12.9229 C.2       13 UNK         0.5732 
     20 N         -51.2479  -30.6343   14.1635 N.am      13 UNK        -0.7310 
     21 O         -50.7223  -31.8052   12.3648 O.2       13 UNK        -0.5035 
     22 N         -53.6765  -29.7613   13.0420 N.am      13 UNK        -0.4233 
     23 C         -54.9522  -30.0595   13.3199 C.2       13 UNK         0.4989 
     24 O         -55.5575  -31.0177   12.8378 O.2       13 UNK        -0.4996 
     25 CA        -55.6922  -29.1503   14.3120 C.3       12 UNK         0.0216 
     26 CB        -55.5457  -29.7047   15.7392 C.3       12 UNK        -0.1964 
     27 N         -55.2065  -27.7682   14.2967 N.am      12 UNK        -0.4276 
     28 C         -55.8783  -26.7173   13.8039 C.2       12 UNK         0.5020 
     29 O         -56.9362  -26.8282   13.1824 O.2       12 UNK        -0.5489 
     30 CA        -55.2905  -25.3009   14.0229 C.3       11 UNK         0.0294 
     31 CB        -56.3734  -24.2888   14.4486 C.3       11 UNK        -0.2019 
     32 N         -54.1420  -25.2346   14.9371 N.am      11 UNK        -0.4493 
     33 C         -54.0677  -25.6201   16.2223 C.2       11 UNK         0.4932 
     34 O         -55.0398  -25.9668   16.8939 O.2       11 UNK        -0.5029 
     35 CA        -52.6460  -25.7068   16.8219 C.3       10 UNK         0.0280 
     36 CB        -52.5585  -26.6993   17.9998 C.3       10 UNK        -0.1976 
     37 N         -51.6263  -26.0197   15.8097 N.am      10 UNK        -0.4242 
     38 C         -51.6035  -27.0757   14.9791 C.2       10 UNK         0.5072 
     39 O         -52.3981  -28.0189   15.0326 O.2       10 UNK        -0.5224 
     40 CA        -50.6269  -27.0223   13.7942 C.3       9 UNK         0.0343 
     41 CB        -51.4305  -26.6503   12.5396 C.3       9 UNK        -0.2003 
     42 N         -49.5389  -26.0581   13.9452 N.am      9 UNK        -0.4272 
     43 C         -48.5370  -26.1422   14.8302 C.2       9 UNK         0.4988 
     44 O         -48.3580  -27.1011   15.5809 O.2       9 UNK        -0.5108 
     45 CA        -47.6106  -24.9180   14.9251 C.3       8 UNK         0.0248 
     46 CB        -46.4770  -25.0054   13.8915 C.3       8 UNK        -0.2001 
     47 N         -48.3367  -23.6555   14.7515 N.am      8 UNK        -0.4140 
     48 C         -49.2439  -23.1718   15.6133 C.2       8 UNK         0.5028 
     49 O         -49.5406  -23.7157   16.6766 O.2       8 UNK        -0.5428 
     50 CA        -49.9821  -21.8917   15.1905 C.3       7 UNK         0.0264 
     51 CB        -49.1097  -20.6497   15.4352 C.3       7 UNK        -0.1988 
     52 N         -50.4043  -21.9315   13.7885 N.am      7 UNK        -0.4454 
     53 C         -51.3502  -22.7512   13.3044 C.2       7 UNK         0.5027 
     54 O         -52.0072  -23.5246   14.0024 O.2       7 UNK        -0.5083 
     55 CA        -51.5873  -22.7207   11.7805 C.3       6 UNK         0.0844 
     56 C56       -52.7267  -21.7285   11.4378 C.3       14 UNK        -0.0967 
     57 S57       -53.0175  -21.5271    9.6473 S.3       14 UNK        -0.2604 
     58 C58       -54.1717  -22.8946    9.2844 C.3       14 UNK         0.0134 
     59 N         -50.3563  -22.4783   11.0163 N.am      6 UNK        -0.4116 
     60 C         -49.3029  -23.3059   10.9817 C.2       5 UNK         0.5034 
     61 O         -49.2090  -24.3332   11.6565 O.2       5 UNK        -0.5045 
     62 CA        -48.1369  -22.8873   10.0839 C.3       5 UNK         0.0224 
     63 CB        -47.1413  -22.0103   10.8630 C.3       5 UNK        -0.1978 
     64 N         -47.4491  -24.0761    9.5818 N.am      5 UNK        -0.4737 
     65 C         -46.8843  -24.1822    8.3749 C.2       4 UNK         0.5027 
     66 O         -46.8797  -23.2642    7.5541 O.2       4 UNK        -0.5211 
     67 CA        -46.2169  -25.5152    7.9833 C.3       4 UNK         0.0297 
     68 CB        -44.6994  -25.4647    8.2487 C.3       4 UNK        -0.1993 
     69 N         -46.8149  -26.7380    8.5413 N.am      4 UNK        -0.4486 
     70 C         -46.8327  -27.1632    9.8148 C.2       3 UNK         0.4961 
     71 O         -46.4016  -26.5006   10.7568 O.2       3 UNK        -0.5105 
     72 CA        -47.4345  -28.5533   10.1085 C.3       3 UNK         0.0299 
     73 CB        -48.7511  -28.4268   10.8869 C.3       3 UNK        -0.1972 
     74 N         -47.6647  -29.3712    8.9157 N.am      3 UNK        -0.4305 
     75 C         -46.7039  -29.9819    8.2089 C.2       2 UNK         0.5006 
     76 O         -45.5136  -29.9785    8.5245 O.2       2 UNK        -0.5106 
     77 CA        -47.1365  -30.7046    6.9191 C.3       2 UNK         0.0296 
     78 CB        -47.3275  -32.2068    7.1853 C.3       2 UNK        -0.2002 
     79 N         -48.3475  -30.1718    6.2793 N.am      2 UNK        -0.4032 
     80 C         -48.5150  -28.9150    5.8349 C.2       1 UNK         0.5000 
     81 O         -47.6892  -28.0193    6.0202 O.2       1 UNK        -0.5238 
     82 H82       -50.9929  -31.5432    1.8718 H         1 UNK         0.0889 
     83 H83       -51.5829  -31.8647    3.5032 H         1 UNK         0.0889 
     84 H84       -50.0567  -32.5674    2.9635 H         1 UNK         0.0889 
     85 H85       -51.2825  -30.1175    4.8682 H         1 UNK         0.3028 
     86 H86       -49.5257  -27.9520    4.2261 H         1 UNK         0.0864 
     87 H87       -51.8362  -27.8905    5.4567 H         1 UNK         0.0720 
     88 H88       -50.9631  -28.3040    6.9004 H         1 UNK         0.0720 
     89 H89       -49.7171  -24.9824    8.0795 H         1 UNK         0.0814 
     90 H90       -49.7703  -26.7087    8.3011 H         1 UNK         0.0814 
     91 H91       -51.7640  -23.6003    8.1592 H         1 UNK         0.1469 
     92 H92       -55.1180  -25.2503   10.2534 H         1 UNK         0.1381 
     93 H93       -51.8838  -27.7849    9.0102 H         1 UNK         0.1206 
     94 H94       -55.4306  -27.7077   10.0373 H         1 UNK         0.0813 
     95 H95       -54.3406  -27.7461   11.3884 H         1 UNK         0.0813 
     96 H96       -51.8695  -28.9529   11.0090 H         1 UNK         0.0638 
     97 H97       -51.7863  -30.5023   10.2471 H         1 UNK         0.0638 
     98 H98       -53.2950  -31.4989   11.9283 H         1 UNK         0.0568 
     99 H99       -50.4159  -30.9724   14.6193 H         1 UNK         0.3450 
    100 H100      -51.8494  -29.9789   14.6434 H         1 UNK         0.3450 
    101 H101      -53.2366  -29.0029   13.5491 H         1 UNK         0.2987 
    102 H102      -56.7520  -29.1785   14.0500 H         1 UNK         0.0766 
    103 H103      -55.9141  -30.7296   15.8021 H         1 UNK         0.0798 
    104 H104      -56.1168  -29.1106   16.4531 H         1 UNK         0.0798 
    105 H105      -54.5053  -29.7093   16.0678 H         1 UNK         0.0798 
    106 H106      -54.3258  -27.6003   14.7726 H         1 UNK         0.3198 
    107 H107      -54.9102  -24.9863   13.0498 H         1 UNK         0.0843 
    108 H108      -56.8375  -24.5685   15.3947 H         1 UNK         0.0831 
    109 H109      -57.1678  -24.2255   13.7039 H         1 UNK         0.0831 
    110 H110      -55.9577  -23.2876   14.5610 H         1 UNK         0.0831 
    111 H111      -53.2864  -24.8667   14.5262 H         1 UNK         0.3133 
    112 H112      -52.4081  -24.7114   17.1996 H         1 UNK         0.0566 
    113 H113      -51.5472  -26.7451   18.4040 H         1 UNK         0.0814 
    114 H114      -52.8465  -27.7080   17.7012 H         1 UNK         0.0814 
    115 H115      -53.2189  -26.4002   18.8145 H         1 UNK         0.0814 
    116 H116      -50.9416  -25.2901   15.6554 H         1 UNK         0.3091 
    117 H117      -50.1948  -28.0160   13.6664 H         1 UNK         0.0702 
    118 H118      -50.8189  -26.6495   11.6402 H         1 UNK         0.0785 
    119 H119      -51.8769  -25.6643   12.6256 H         1 UNK         0.0785 
    120 H120      -52.2583  -27.3364   12.3859 H         1 UNK         0.0785 
    121 H121      -49.5376  -25.2773   13.2941 H         1 UNK         0.2998 
    122 H122      -47.1648  -24.9169   15.9220 H         1 UNK         0.0697 
    123 H123      -46.8572  -24.9574   12.8711 H         1 UNK         0.0825 
    124 H124      -45.9296  -25.9440   13.9882 H         1 UNK         0.0825 
    125 H125      -45.7581  -24.1962   14.0194 H         1 UNK         0.0825 
    126 H126      -48.1844  -23.1617   13.8851 H         1 UNK         0.3029 
    127 H127      -50.8775  -21.8065   15.8109 H         1 UNK         0.0897 
    128 H128      -48.2071  -20.6568   14.8228 H         1 UNK         0.0792 
    129 H129      -48.7949  -20.5952   16.4784 H         1 UNK         0.0792 
    130 H130      -49.6566  -19.7323   15.2165 H         1 UNK         0.0792 
    131 H131      -49.9278  -21.3148   13.1469 H         1 UNK         0.3086 
    132 H132      -51.9314  -23.7154   11.4967 H         1 UNK         0.0583 
    133 H133      -53.6583  -22.0396   11.9153 H         1 UNK         0.1020 
    134 H134      -52.5031  -20.7383   11.8403 H         1 UNK         0.1020 
    135 H135      -54.9797  -22.8817   10.0176 H         1 UNK         0.0694 
    136 H136      -54.6346  -22.7043    8.3154 H         1 UNK         0.0694 
    137 H137      -50.3581  -21.6536   10.4335 H         1 UNK         0.2989 
    138 H138      -48.5433  -22.3172    9.2451 H         1 UNK         0.1055 
    139 H139      -46.3261  -21.6752   10.2213 H         1 UNK         0.0806 
    140 H140      -46.7018  -22.5490   11.7034 H         1 UNK         0.0806 
    141 H141      -47.6256  -21.1174   11.2602 H         1 UNK         0.0806 
    142 H142      -47.4067  -24.8704   10.2160 H         1 UNK         0.3061 
    143 H143      -46.3509  -25.6098    6.9043 H         1 UNK         0.0734 
    144 H144      -44.4747  -25.3474    9.3092 H         1 UNK         0.0832 
    145 H145      -44.2051  -26.3707    7.8979 H         1 UNK         0.0832 
    146 H146      -44.2418  -24.6228    7.7276 H         1 UNK         0.0832 
    147 H147      -47.2060  -27.3534    7.8332 H         1 UNK         0.3156 
    148 H148      -46.7198  -29.0761   10.7478 H         1 UNK         0.0589 
    149 H149      -49.5361  -27.9791   10.2796 H         1 UNK         0.0808 
    150 H150      -48.6173  -27.8005   11.7694 H         1 UNK         0.0808 
    151 H151      -49.1047  -29.3986   11.2322 H         1 UNK         0.0808 
    152 H152      -48.6164  -29.4506    8.5906 H         1 UNK         0.3098 
    153 H153      -46.3205  -30.5882    6.2029 H         1 UNK         0.0720 
    154 H154      -46.4333  -32.6412    7.6348 H         1 UNK         0.0791 
    155 H155      -47.5196  -32.7535    6.2617 H         1 UNK         0.0791 
    156 H156      -48.1582  -32.3938    7.8671 H         1 UNK         0.0791 
    157 H157      -49.0795  -30.8381    6.0806 H         1 UNK         0.3028 
@<TRIPOS>BOND
     1    1    2 1    
     2    1   82 1    
     3    1   83 1    
     4    1   84 1    
     5    2    3 2    
     6    2    4 am   BACKBONE|DICT|INTERRES
     7    4    5 1    
     8    4   85 1    
     9    5    6 1    
    10    5   80 1    
    11    5   86 1    
    12    6    7 1    
    13    6   87 1    
    14    6   88 1    
    15    7    8 1    
    16    8    9 1    
    17    8   89 1    
    18    8   90 1    
    19    9   10 ar   
    20    9   14 ar   
    21   10   11 ar   
    22   10   91 1    
    23   11   12 ar   
    24   11   58 1    
    25   12   13 ar   
    26   12   92 1    
    27   13   14 ar   
    28   13   15 1    
    29   14   93 1    
    30   15   16 1    
    31   15   94 1    
    32   15   95 1    
    33   16   17 1    
    34   17   18 1    
    35   17   96 1    
    36   17   97 1    
    37   18   19 1    
    38   18   22 1    
    39   18   98 1    
    40   19   20 am   BACKBONE|DICT|INTERRES
    41   19   21 2    
    42   20   99 1    
    43   20  100 1    
    44   22   23 am   BACKBONE|DICT|INTERRES
    45   22  101 1    
    46   23   24 2    
    47   23   25 1    
    48   25   26 1    
    49   25   27 1    
    50   25  102 1    
    51   26  103 1    
    52   26  104 1    
    53   26  105 1    
    54   27   28 am   BACKBONE|DICT|INTERRES
    55   27  106 1    
    56   28   29 2    
    57   28   30 1    
    58   30   31 1    
    59   30   32 1    
    60   30  107 1    
    61   31  108 1    
    62   31  109 1    
    63   31  110 1    
    64   32   33 am   BACKBONE|DICT|INTERRES
    65   32  111 1    
    66   33   34 2    
    67   33   35 1    
    68   35   36 1    
    69   35   37 1    
    70   35  112 1    
    71   36  113 1    
    72   36  114 1    
    73   36  115 1    
    74   37   38 am   BACKBONE|DICT|INTERRES
    75   37  116 1    
    76   38   39 2    
    77   38   40 1    
    78   40   41 1    
    79   40   42 1    
    80   40  117 1    
    81   41  118 1    
    82   41  119 1    
    83   41  120 1    
    84   42   43 am   BACKBONE|DICT|INTERRES
    85   42  121 1    
    86   43   44 2    
    87   43   45 1    
    88   45   46 1    
    89   45   47 1    
    90   45  122 1    
    91   46  123 1    
    92   46  124 1    
    93   46  125 1    
    94   47   48 am   BACKBONE|DICT|INTERRES
    95   47  126 1    
    96   48   49 2    
    97   48   50 1    
    98   50   51 1    
    99   50   52 1    
   100   50  127 1    
   101   51  128 1    
   102   51  129 1    
   103   51  130 1    
   104   52   53 am   BACKBONE|DICT|INTERRES
   105   52  131 1    
   106   53   54 2    
   107   53   55 1    
   108   55   56 1    
   109   55   59 1    
   110   55  132 1    
   111   56   57 1    
   112   56  133 1    
   113   56  134 1    
   114   57   58 1    
   115   58  135 1    
   116   58  136 1    
   117   59   60 am   BACKBONE|DICT|INTERRES
   118   59  137 1    
   119   60   61 2    
   120   60   62 1    
   121   62   63 1    
   122   62   64 1    
   123   62  138 1    
   124   63  139 1    
   125   63  140 1    
   126   63  141 1    
   127   64   65 am   BACKBONE|DICT|INTERRES
   128   64  142 1    
   129   65   66 2    
   130   65   67 1    
   131   67   68 1    
   132   67   69 1    
   133   67  143 1    
   134   68  144 1    
   135   68  145 1    
   136   68  146 1    
   137   69   70 am   BACKBONE|DICT|INTERRES
   138   69  147 1    
   139   70   71 2    
   140   70   72 1    
   141   72   73 1    
   142   72   74 1    
   143   72  148 1    
   144   73  149 1    
   145   73  150 1    
   146   73  151 1    
   147   74   75 am   BACKBONE|DICT|INTERRES
   148   74  152 1    
   149   75   76 2    
   150   75   77 1    
   151   77   78 1    
   152   77   79 1    
   153   77  153 1    
   154   78  154 1    
   155   78  155 1    
   156   78  156 1    
   157   79   80 am   BACKBONE|DICT|INTERRES
   158   79  157 1    
   159   80   81 2    
@<TRIPOS>SUBSTRUCTURE
     1 UNK         1 GROUP             0       ****    0 ROOT    
