@<TRIPOS>MOLECULE
3R207
157   159    1
SMALL
USER_CHARGES


@<TRIPOS>ATOM
      1 CA        -49.4769  -30.5071    7.5744 C.3       0 UNK        -0.1975 
      2 C         -49.2765  -29.2364    6.7630 C.2       0 UNK         0.4852 
      3 O         -48.8671  -28.2175    7.3247 O.2       0 UNK        -0.5216 
      4 N         -49.5440  -29.3012    5.4500 N.am      1 UNK        -0.4461 
      5 CA        -49.4043  -28.2206    4.4622 C.3       1 UNK         0.0864 
      6 C6        -50.4738  -27.1046    4.6158 C.3       14 UNK        -0.0898 
      7 S7        -52.1530  -27.7644    4.3493 S.3       14 UNK        -0.2598 
      8 C8        -53.1868  -26.3807    4.9425 C.3       14 UNK         0.0286 
      9 C9        -53.1232  -26.0891    6.4441 C.ar      14 UNK        -0.0844 
     10 C10       -53.5975  -24.8544    6.8979 C.ar      14 UNK        -0.0881 
     11 C11       -53.5742  -24.5271    8.2565 C.ar      14 UNK        -0.0643 
     12 C12       -53.0738  -25.4577    9.1730 C.ar      14 UNK        -0.0930 
     13 C13       -52.5841  -26.6934    8.7396 C.ar      14 UNK        -0.0827 
     14 C14       -52.6247  -27.0071    7.3786 C.ar      14 UNK        -0.1249 
     15 C15       -51.9559  -27.6699    9.7261 C.3       14 UNK         0.0141 
     16 S16       -53.0672  -28.1207   11.0939 S.3       14 UNK        -0.2313 
     17 C17       -51.9294  -29.1463   12.0829 C.3       14 UNK        -0.0915 
     18 CA        -52.6637  -30.1888   12.9595 C.3       13 UNK         0.0968 
     19 C         -51.6504  -31.1373   13.6511 C.2       13 UNK         0.5732 
     20 N         -51.4233  -32.3185   13.0925 N.am      13 UNK        -0.7310 
     21 O         -51.0356  -30.7950   14.6591 O.2       13 UNK        -0.5035 
     22 N         -53.5405  -29.5466   13.9461 N.am      13 UNK        -0.4233 
     23 C         -54.6133  -30.1374   14.4876 C.2       13 UNK         0.4989 
     24 O         -54.9992  -31.2668   14.1779 O.2       13 UNK        -0.4996 
     25 CA        -55.3967  -29.3193   15.5320 C.3       12 UNK         0.0216 
     26 CB        -56.4730  -30.1418   16.2739 C.3       12 UNK        -0.1964 
     27 N         -54.5213  -28.6187   16.4765 N.am      12 UNK        -0.4276 
     28 C         -53.6580  -29.1589   17.3531 C.2       12 UNK         0.5020 
     29 O         -53.5318  -30.3712   17.5310 O.2       12 UNK        -0.5489 
     30 CA        -52.7776  -28.1943   18.1733 C.3       11 UNK         0.0294 
     31 CB        -51.2859  -28.5369   18.0060 C.3       11 UNK        -0.2019 
     32 N         -52.9844  -26.7956   17.7904 N.am      11 UNK        -0.4493 
     33 C         -53.8225  -25.9436   18.3985 C.2       11 UNK         0.4932 
     34 O         -54.4586  -26.2201   19.4153 O.2       11 UNK        -0.5029 
     35 CA        -54.0064  -24.5533   17.7564 C.3       10 UNK         0.0280 
     36 CB        -53.1286  -23.5137   18.4714 C.3       10 UNK        -0.1976 
     37 N         -53.7138  -24.5201   16.3199 N.am      10 UNK        -0.4242 
     38 C         -54.3916  -25.1893   15.3750 C.2       10 UNK         0.5072 
     39 O         -55.3900  -25.8710   15.6042 O.2       10 UNK        -0.5224 
     40 CA        -53.8057  -25.1653   13.9515 C.3       9 UNK         0.0343 
     41 CB        -54.4187  -24.0180   13.1359 C.3       9 UNK        -0.2003 
     42 N         -52.3385  -25.0767   13.9385 N.am      9 UNK        -0.4272 
     43 C         -51.5306  -26.0180   14.4551 C.2       9 UNK         0.4988 
     44 O         -51.9627  -27.0584   14.9544 O.2       9 UNK        -0.5108 
     45 CA        -50.0113  -25.7681   14.4645 C.3       8 UNK         0.0248 
     46 CB        -49.2619  -26.9050   13.7547 C.3       8 UNK        -0.2001 
     47 N         -49.6378  -24.5003   13.8374 N.am      8 UNK        -0.4140 
     48 C         -49.4273  -23.3472   14.4896 C.2       8 UNK         0.5028 
     49 O         -49.5155  -23.2278   15.7119 O.2       8 UNK        -0.5428 
     50 CA        -49.0870  -22.1069   13.6367 C.3       7 UNK         0.0264 
     51 CB        -47.5637  -21.9470   13.5077 C.3       7 UNK        -0.1988 
     52 N         -49.6813  -22.1504   12.2975 N.am      7 UNK        -0.4454 
     53 C         -51.0003  -22.1575   12.0571 C.2       7 UNK         0.5027 
     54 O         -51.8422  -21.9622   12.9330 O.2       7 UNK        -0.5083 
     55 CA        -51.4780  -22.5352   10.6391 C.3       6 UNK         0.0844 
     56 C56       -52.2434  -21.3803    9.9539 C.3       14 UNK        -0.0967 
     57 S57       -52.9306  -21.8258    8.3192 S.3       14 UNK        -0.2604 
     58 C58       -54.1013  -23.1710    8.7127 C.3       14 UNK         0.0134 
     59 N         -50.4401  -23.1247    9.7823 N.am      6 UNK        -0.4116 
     60 C         -49.8686  -24.3166    9.9999 C.2       5 UNK         0.5034 
     61 O         -50.1058  -24.9920   11.0032 O.2       5 UNK        -0.5045 
     62 CA        -48.8952  -24.8189    8.9145 C.3       5 UNK         0.0224 
     63 CB        -47.7884  -23.7850    8.6120 C.3       5 UNK        -0.1978 
     64 N         -48.3006  -26.1300    9.2101 N.am      5 UNK        -0.4737 
     65 C         -47.5000  -26.4600   10.2381 C.2       4 UNK         0.5027 
     66 O         -47.1143  -25.6759   11.1059 O.2       4 UNK        -0.5211 
     67 CA        -47.0029  -27.9112   10.2694 C.3       4 UNK         0.0297 
     68 CB        -48.1321  -28.8909   10.6366 C.3       4 UNK        -0.1993 
     69 N         -46.4524  -28.2597    8.9598 N.am      4 UNK        -0.4486 
     70 C         -45.1508  -28.4419    8.7037 C.2       3 UNK         0.4961 
     71 O         -44.2691  -28.4407    9.5637 O.2       3 UNK        -0.5105 
     72 CA        -44.7565  -28.6585    7.2330 C.3       3 UNK         0.0299 
     73 CB        -44.9154  -30.1380    6.8467 C.3       3 UNK        -0.1972 
     74 N         -45.5182  -27.8320    6.2953 N.am      3 UNK        -0.4305 
     75 C         -45.5020  -26.4947    6.2225 C.2       2 UNK         0.5006 
     76 O         -44.8064  -25.7817    6.9458 O.2       2 UNK        -0.5106 
     77 CA        -46.4132  -25.8244    5.1720 C.3       2 UNK         0.0296 
     78 CB        -45.6583  -25.6038    3.8464 C.3       2 UNK        -0.2002 
     79 N         -47.7066  -26.4938    4.9536 N.am      2 UNK        -0.4032 
     80 C         -47.9494  -27.7093    4.4379 C.2       1 UNK         0.5000 
     81 O         -47.0689  -28.4599    4.0118 O.2       1 UNK        -0.5238 
     82 H82       -50.2413  -30.3532    8.3344 H         1 UNK         0.0889 
     83 H83       -48.5487  -30.7814    8.0748 H         1 UNK         0.0889 
     84 H84       -49.7848  -31.3454    6.9499 H         1 UNK         0.0889 
     85 H85       -49.8548  -30.1811    5.0633 H         1 UNK         0.3028 
     86 H86       -49.5580  -28.6832    3.4857 H         1 UNK         0.0864 
     87 H87       -50.3138  -26.3093    3.8852 H         1 UNK         0.0720 
     88 H88       -50.4208  -26.6444    5.6036 H         1 UNK         0.0720 
     89 H89       -52.9102  -25.4853    4.3834 H         1 UNK         0.0814 
     90 H90       -54.2237  -26.5969    4.6822 H         1 UNK         0.0814 
     91 H91       -53.9864  -24.1361    6.1886 H         1 UNK         0.1469 
     92 H92       -53.0514  -25.2310   10.2282 H         1 UNK         0.1381 
     93 H93       -52.2492  -27.9663    7.0528 H         1 UNK         0.1206 
     94 H94       -51.0480  -27.2274   10.1342 H         1 UNK         0.0813 
     95 H95       -51.6477  -28.5820    9.2146 H         1 UNK         0.0813 
     96 H96       -51.2402  -29.6509   11.4030 H         1 UNK         0.0638 
     97 H97       -51.3222  -28.4877   12.7005 H         1 UNK         0.0638 
     98 H98       -53.2858  -30.7895   12.2924 H         1 UNK         0.0568 
     99 H99       -51.9145  -32.6072   12.2609 H         1 UNK         0.3450 
    100 H100      -50.7551  -32.9397   13.5204 H         1 UNK         0.3450 
    101 H101      -53.2225  -28.6527   14.3017 H         1 UNK         0.2987 
    102 H102      -55.9156  -28.5414   14.9700 H         1 UNK         0.0766 
    103 H103      -57.0196  -29.5262   16.9882 H         1 UNK         0.0798 
    104 H104      -57.2034  -30.5496   15.5740 H         1 UNK         0.0798 
    105 H105      -56.0406  -30.9827   16.8168 H         1 UNK         0.0798 
    106 H106      -54.5655  -27.6073   16.4175 H         1 UNK         0.3198 
    107 H107      -53.0398  -28.3330   19.2244 H         1 UNK         0.0843 
    108 H108      -51.0748  -29.5449   18.3651 H         1 UNK         0.0831 
    109 H109      -50.6535  -27.8537   18.5728 H         1 UNK         0.0831 
    110 H110      -50.9751  -28.4971   16.9613 H         1 UNK         0.0831 
    111 H111      -52.5288  -26.5104   16.9315 H         1 UNK         0.3133 
    112 H112      -55.0522  -24.2681   17.8884 H         1 UNK         0.0566 
    113 H113      -52.0660  -23.7300   18.3511 H         1 UNK         0.0814 
    114 H114      -53.3381  -23.4954   19.5420 H         1 UNK         0.0814 
    115 H115      -53.3124  -22.5087   18.0910 H         1 UNK         0.0814 
    116 H116      -52.9049  -23.9866   16.0347 H         1 UNK         0.3091 
    117 H117      -54.0808  -26.1058   13.4687 H         1 UNK         0.0702 
    118 H118      -55.5057  -24.1045   13.1015 H         1 UNK         0.0785 
    119 H119      -54.0648  -24.0291   12.1068 H         1 UNK         0.0785 
    120 H120      -54.1852  -23.0437   13.5661 H         1 UNK         0.0785 
    121 H121      -51.9305  -24.2315   13.5636 H         1 UNK         0.2998 
    122 H122      -49.6983  -25.7678   15.5105 H         1 UNK         0.0697 
    123 H123      -49.5392  -26.9602   12.7024 H         1 UNK         0.0825 
    124 H124      -49.4823  -27.8718   14.2100 H         1 UNK         0.0825 
    125 H125      -48.1825  -26.7611   13.8054 H         1 UNK         0.0825 
    126 H126      -49.5783  -24.5194   12.8221 H         1 UNK         0.3029 
    127 H127      -49.4846  -21.2314   14.1550 H         1 UNK         0.0897 
    128 H128      -47.3034  -21.0339   12.9719 H         1 UNK         0.0792 
    129 H129      -47.0936  -21.8892   14.4906 H         1 UNK         0.0792 
    130 H130      -47.1125  -22.7886   12.9797 H         1 UNK         0.0792 
    131 H131      -49.0536  -22.3224   11.5258 H         1 UNK         0.3086 
    132 H132      -52.2045  -23.3232   10.8195 H         1 UNK         0.0583 
    133 H133      -53.0666  -21.0381   10.5849 H         1 UNK         0.1020 
    134 H134      -51.5878  -20.5175    9.8219 H         1 UNK         0.1020 
    135 H135      -54.3356  -23.1779    9.7776 H         1 UNK         0.0694 
    136 H136      -55.0444  -22.9677    8.2032 H         1 UNK         0.0694 
    137 H137      -50.2301  -22.6208    8.9331 H         1 UNK         0.2989 
    138 H138      -49.4909  -24.9616    8.0112 H         1 UNK         0.1055 
    139 H139      -47.0599  -24.1806    7.9052 H         1 UNK         0.0806 
    140 H140      -47.2459  -23.4966    9.5131 H         1 UNK         0.0806 
    141 H141      -48.1961  -22.8750    8.1711 H         1 UNK         0.0806 
    142 H142      -48.5730  -26.8744    8.5711 H         1 UNK         0.3061 
    143 H143      -46.2332  -27.9858   11.0406 H         1 UNK         0.0734 
    144 H144      -48.4619  -28.7364   11.6628 H         1 UNK         0.0832 
    145 H145      -49.0041  -28.7763    9.9937 H         1 UNK         0.0832 
    146 H146      -47.7968  -29.9253   10.5634 H         1 UNK         0.0832 
    147 H147      -47.1073  -28.2495    8.1840 H         1 UNK         0.3156 
    148 H148      -43.7035  -28.3889    7.1287 H         1 UNK         0.0589 
    149 H149      -45.9567  -30.4594    6.8957 H         1 UNK         0.0808 
    150 H150      -44.5547  -30.3246    5.8350 H         1 UNK         0.0808 
    151 H151      -44.3431  -30.7805    7.5174 H         1 UNK         0.0808 
    152 H152      -46.0807  -28.3168    5.6009 H         1 UNK         0.3098 
    153 H153      -46.6623  -24.8388    5.5678 H         1 UNK         0.0720 
    154 H154      -46.2754  -25.0720    3.1223 H         1 UNK         0.0791 
    155 H155      -44.7599  -25.0062    4.0071 H         1 UNK         0.0791 
    156 H156      -45.3421  -26.5434    3.3926 H         1 UNK         0.0791 
    157 H157      -48.5026  -25.9972    5.3271 H         1 UNK         0.3028 
@<TRIPOS>BOND
     1    1    2 1    
     2    1   82 1    
     3    1   83 1    
     4    1   84 1    
     5    2    3 2    
     6    2    4 am   BACKBONE|DICT|INTERRES
     7    4    5 1    
     8    4   85 1    
     9    5    6 1    
    10    5   80 1    
    11    5   86 1    
    12    6    7 1    
    13    6   87 1    
    14    6   88 1    
    15    7    8 1    
    16    8    9 1    
    17    8   89 1    
    18    8   90 1    
    19    9   10 ar   
    20    9   14 ar   
    21   10   11 ar   
    22   10   91 1    
    23   11   12 ar   
    24   11   58 1    
    25   12   13 ar   
    26   12   92 1    
    27   13   14 ar   
    28   13   15 1    
    29   14   93 1    
    30   15   16 1    
    31   15   94 1    
    32   15   95 1    
    33   16   17 1    
    34   17   18 1    
    35   17   96 1    
    36   17   97 1    
    37   18   19 1    
    38   18   22 1    
    39   18   98 1    
    40   19   20 am   BACKBONE|DICT|INTERRES
    41   19   21 2    
    42   20   99 1    
    43   20  100 1    
    44   22   23 am   BACKBONE|DICT|INTERRES
    45   22  101 1    
    46   23   24 2    
    47   23   25 1    
    48   25   26 1    
    49   25   27 1    
    50   25  102 1    
    51   26  103 1    
    52   26  104 1    
    53   26  105 1    
    54   27   28 am   BACKBONE|DICT|INTERRES
    55   27  106 1    
    56   28   29 2    
    57   28   30 1    
    58   30   31 1    
    59   30   32 1    
    60   30  107 1    
    61   31  108 1    
    62   31  109 1    
    63   31  110 1    
    64   32   33 am   BACKBONE|DICT|INTERRES
    65   32  111 1    
    66   33   34 2    
    67   33   35 1    
    68   35   36 1    
    69   35   37 1    
    70   35  112 1    
    71   36  113 1    
    72   36  114 1    
    73   36  115 1    
    74   37   38 am   BACKBONE|DICT|INTERRES
    75   37  116 1    
    76   38   39 2    
    77   38   40 1    
    78   40   41 1    
    79   40   42 1    
    80   40  117 1    
    81   41  118 1    
    82   41  119 1    
    83   41  120 1    
    84   42   43 am   BACKBONE|DICT|INTERRES
    85   42  121 1    
    86   43   44 2    
    87   43   45 1    
    88   45   46 1    
    89   45   47 1    
    90   45  122 1    
    91   46  123 1    
    92   46  124 1    
    93   46  125 1    
    94   47   48 am   BACKBONE|DICT|INTERRES
    95   47  126 1    
    96   48   49 2    
    97   48   50 1    
    98   50   51 1    
    99   50   52 1    
   100   50  127 1    
   101   51  128 1    
   102   51  129 1    
   103   51  130 1    
   104   52   53 am   BACKBONE|DICT|INTERRES
   105   52  131 1    
   106   53   54 2    
   107   53   55 1    
   108   55   56 1    
   109   55   59 1    
   110   55  132 1    
   111   56   57 1    
   112   56  133 1    
   113   56  134 1    
   114   57   58 1    
   115   58  135 1    
   116   58  136 1    
   117   59   60 am   BACKBONE|DICT|INTERRES
   118   59  137 1    
   119   60   61 2    
   120   60   62 1    
   121   62   63 1    
   122   62   64 1    
   123   62  138 1    
   124   63  139 1    
   125   63  140 1    
   126   63  141 1    
   127   64   65 am   BACKBONE|DICT|INTERRES
   128   64  142 1    
   129   65   66 2    
   130   65   67 1    
   131   67   68 1    
   132   67   69 1    
   133   67  143 1    
   134   68  144 1    
   135   68  145 1    
   136   68  146 1    
   137   69   70 am   BACKBONE|DICT|INTERRES
   138   69  147 1    
   139   70   71 2    
   140   70   72 1    
   141   72   73 1    
   142   72   74 1    
   143   72  148 1    
   144   73  149 1    
   145   73  150 1    
   146   73  151 1    
   147   74   75 am   BACKBONE|DICT|INTERRES
   148   74  152 1    
   149   75   76 2    
   150   75   77 1    
   151   77   78 1    
   152   77   79 1    
   153   77  153 1    
   154   78  154 1    
   155   78  155 1    
   156   78  156 1    
   157   79   80 am   BACKBONE|DICT|INTERRES
   158   79  157 1    
   159   80   81 2    
@<TRIPOS>SUBSTRUCTURE
     1 UNK         1 GROUP             0       ****    0 ROOT    
