@<TRIPOS>MOLECULE
3R207
157   159    1
SMALL
USER_CHARGES


@<TRIPOS>ATOM
      1 CA        -46.9462  -28.1801    4.0173 C.3       0 UNK        -0.1975 
      2 C         -48.0588  -27.2354    4.4445 C.2       0 UNK         0.4852 
      3 O         -48.1785  -26.1423    3.8888 O.2       0 UNK        -0.5216 
      4 N         -48.8634  -27.6411    5.4371 N.am      1 UNK        -0.4461 
      5 CA        -49.9781  -26.8768    6.0105 C.3       1 UNK         0.0864 
      6 C6        -50.7074  -27.6672    7.1218 C.3       14 UNK        -0.0898 
      7 S7        -51.5228  -29.1776    6.5065 S.3       14 UNK        -0.2598 
      8 C8        -50.4832  -30.5085    7.1982 C.3       14 UNK         0.0286 
      9 C9        -50.4729  -30.5402    8.7231 C.ar      14 UNK        -0.0844 
     10 C10       -49.2609  -30.4714    9.4170 C.ar      14 UNK        -0.0881 
     11 C11       -49.2323  -30.5327   10.8143 C.ar      14 UNK        -0.0643 
     12 C12       -50.4341  -30.6470   11.5207 C.ar      14 UNK        -0.0930 
     13 C13       -51.6526  -30.7351   10.8392 C.ar      14 UNK        -0.0827 
     14 C14       -51.6639  -30.6861    9.4414 C.ar      14 UNK        -0.1249 
     15 C15       -52.9530  -30.9254   11.6075 C.3       14 UNK         0.0141 
     16 S16       -54.0242  -29.4646   11.4820 S.3       14 UNK        -0.2313 
     17 C17       -55.3567  -29.9193   12.6384 C.3       14 UNK        -0.0915 
     18 CA        -56.5330  -28.9094   12.6042 C.3       13 UNK         0.0968 
     19 C         -57.7170  -29.3814   13.5002 C.2       13 UNK         0.5732 
     20 N         -58.1740  -28.6146   14.4844 N.am      13 UNK        -0.7310 
     21 O         -58.2483  -30.4685   13.2847 O.2       13 UNK        -0.5035 
     22 N         -56.0732  -27.5418   12.8792 N.am      13 UNK        -0.4233 
     23 C         -56.7092  -26.4257   12.5086 C.2       13 UNK         0.4989 
     24 O         -57.7261  -26.4121   11.8122 O.2       13 UNK        -0.4996 
     25 CA        -56.1027  -25.1071   13.0242 C.3       12 UNK         0.0216 
     26 CB        -57.0783  -23.9141   12.9355 C.3       12 UNK        -0.1964 
     27 N         -55.5505  -25.2362   14.3801 N.am      12 UNK        -0.4276 
     28 C         -56.2145  -25.5686   15.4969 C.2       12 UNK         0.5020 
     29 O         -57.4194  -25.8282   15.5279 O.2       12 UNK        -0.5489 
     30 CA        -55.3769  -25.6380   16.7856 C.3       11 UNK         0.0294 
     31 CB        -56.1793  -26.1442   18.0039 C.3       11 UNK        -0.2019 
     32 N         -54.1342  -26.4012   16.6235 N.am      11 UNK        -0.4493 
     33 C         -53.9991  -27.7074   16.3414 C.2       11 UNK         0.4932 
     34 O         -54.9516  -28.4514   16.1073 O.2       11 UNK        -0.5029 
     35 CA        -52.5706  -28.3009   16.3211 C.3       10 UNK         0.0280 
     36 CB        -52.3794  -29.2684   15.1400 C.3       10 UNK        -0.1976 
     37 N         -51.5097  -27.2912   16.2799 N.am      10 UNK        -0.4242 
     38 C         -51.0604  -26.5729   17.3184 C.2       10 UNK         0.5072 
     39 O         -51.4272  -26.7433   18.4809 O.2       10 UNK        -0.5224 
     40 CA        -50.0958  -25.4176   16.9906 C.3       9 UNK         0.0343 
     41 CB        -48.6333  -25.8892   17.0309 C.3       9 UNK        -0.2003 
     42 N         -50.3844  -24.7943   15.6933 N.am      9 UNK        -0.4272 
     43 C         -51.5091  -24.1192   15.4072 C.2       9 UNK         0.4988 
     44 O         -52.3997  -23.8931   16.2264 O.2       9 UNK        -0.5108 
     45 CA        -51.7021  -23.6784   13.9478 C.3       8 UNK         0.0248 
     46 CB        -50.9435  -22.3724   13.6639 C.3       8 UNK        -0.2001 
     47 N         -51.2868  -24.7213   13.0057 N.am      8 UNK        -0.4140 
     48 C         -51.9578  -25.8704   12.8236 C.2       8 UNK         0.5028 
     49 O         -53.0206  -26.1293   13.3871 O.2       8 UNK        -0.5428 
     50 CA        -51.3276  -26.9287   11.9005 C.3       7 UNK         0.0264 
     51 CB        -51.8238  -26.7617   10.4590 C.3       7 UNK        -0.1988 
     52 N         -49.8650  -26.9305   11.9191 N.am      7 UNK        -0.4454 
     53 C         -49.1217  -27.1693   13.0087 C.2       7 UNK         0.5027 
     54 O         -49.6016  -27.5068   14.0907 O.2       7 UNK        -0.5083 
     55 CA        -47.6003  -26.9266   12.9086 C.3       6 UNK         0.0844 
     56 C56       -46.8102  -28.2547   12.8460 C.3       14 UNK        -0.0967 
     57 S57       -46.8836  -29.0817   11.2166 S.3       14 UNK        -0.2604 
     58 C58       -47.8990  -30.5576   11.5510 C.3       14 UNK         0.0134 
     59 N         -47.2030  -26.0022   11.8398 N.am      6 UNK        -0.4116 
     60 C         -47.6075  -24.7360   11.6847 C.2       5 UNK         0.5034 
     61 O         -48.3956  -24.1819   12.4515 O.2       5 UNK        -0.5045 
     62 CA        -47.1107  -23.9662   10.4477 C.3       5 UNK         0.0224 
     63 CB        -46.0561  -22.9116   10.8339 C.3       5 UNK        -0.1978 
     64 N         -46.6509  -24.8031    9.3276 N.am      5 UNK        -0.4737 
     65 C         -45.5567  -25.5736    9.2296 C.2       4 UNK         0.5027 
     66 O         -44.7640  -25.7606   10.1513 O.2       4 UNK        -0.5211 
     67 CA        -45.3183  -26.2676    7.8788 C.3       4 UNK         0.0297 
     68 CB        -46.0096  -27.6405    7.8424 C.3       4 UNK        -0.1993 
     69 N         -45.7945  -25.4479    6.7623 N.am      4 UNK        -0.4486 
     70 C         -45.0772  -24.4792    6.1744 C.2       3 UNK         0.4961 
     71 O         -43.9068  -24.2260    6.4615 O.2       3 UNK        -0.5105 
     72 CA        -45.7693  -23.6494    5.0773 C.3       3 UNK         0.0299 
     73 CB        -45.3834  -24.1700    3.6833 C.3       3 UNK        -0.1972 
     74 N         -47.2288  -23.6382    5.2110 N.am      3 UNK        -0.4305 
     75 C         -47.8938  -22.8641    6.0836 C.2       2 UNK         0.5006 
     76 O         -47.3498  -22.0298    6.8074 O.2       2 UNK        -0.5106 
     77 CA        -49.4184  -23.0630    6.1978 C.3       2 UNK         0.0296 
     78 CB        -50.1594  -22.0638    5.2949 C.3       2 UNK        -0.2002 
     79 N         -49.8701  -24.4239    5.8898 N.am      2 UNK        -0.4032 
     80 C         -49.4884  -25.5218    6.5563 C.2       1 UNK         0.5000 
     81 O         -48.7296  -25.5002    7.5277 O.2       1 UNK        -0.5238 
     82 H82       -47.0170  -28.3823    2.9489 H         1 UNK         0.0889 
     83 H83       -46.9930  -29.1320    4.5460 H         1 UNK         0.0889 
     84 H84       -45.9746  -27.7283    4.2153 H         1 UNK         0.0889 
     85 H85       -48.7120  -28.5480    5.8509 H         1 UNK         0.3028 
     86 H86       -50.6907  -26.6871    5.2049 H         1 UNK         0.0864 
     87 H87       -50.0222  -27.9147    7.9349 H         1 UNK         0.0720 
     88 H88       -51.4920  -27.0493    7.5615 H         1 UNK         0.0720 
     89 H89       -49.4714  -30.4102    6.8032 H         1 UNK         0.0814 
     90 H90       -50.8582  -31.4659    6.8342 H         1 UNK         0.0814 
     91 H91       -48.3301  -30.3896    8.8724 H         1 UNK         0.1469 
     92 H92       -50.4184  -30.6991   12.6008 H         1 UNK         0.1381 
     93 H93       -52.6039  -30.7586    8.9113 H         1 UNK         0.1206 
     94 H94       -52.7515  -31.1322   12.6596 H         1 UNK         0.0813 
     95 H95       -53.4818  -31.7954   11.2157 H         1 UNK         0.0813 
     96 H96       -54.9416  -29.9861   13.6450 H         1 UNK         0.0638 
     97 H97       -55.7035  -30.9207   12.3767 H         1 UNK         0.0638 
     98 H98       -56.9266  -28.9165   11.5860 H         1 UNK         0.0568 
     99 H99       -58.9434  -28.9449   15.0436 H         1 UNK         0.3450 
    100 H100      -57.7603  -27.7115   14.6853 H         1 UNK         0.3450 
    101 H101      -55.2392  -27.4580   13.4437 H         1 UNK         0.2987 
    102 H102      -55.2575  -24.8893   12.3696 H         1 UNK         0.0766 
    103 H103      -56.6150  -22.9956   13.2953 H         1 UNK         0.0798 
    104 H104      -57.9828  -24.0856   13.5200 H         1 UNK         0.0798 
    105 H105      -57.3872  -23.7375   11.9045 H         1 UNK         0.0798 
    106 H106      -54.5370  -25.1928   14.4267 H         1 UNK         0.3198 
    107 H107      -55.0745  -24.6118   17.0007 H         1 UNK         0.0843 
    108 H108      -56.5592  -27.1545   17.8489 H         1 UNK         0.0831 
    109 H109      -57.0394  -25.5021   18.1975 H         1 UNK         0.0831 
    110 H110      -55.5693  -26.1491   18.9071 H         1 UNK         0.0831 
    111 H111      -53.2880  -25.8589   16.7472 H         1 UNK         0.3133 
    112 H112      -52.4547  -28.8756   17.2420 H         1 UNK         0.0566 
    113 H113      -52.5992  -28.7836   14.1897 H         1 UNK         0.0814 
    114 H114      -51.3596  -29.6509   15.0946 H         1 UNK         0.0814 
    115 H115      -53.0429  -30.1292   15.2277 H         1 UNK         0.0814 
    116 H116      -51.0816  -27.1296   15.3734 H         1 UNK         0.3091 
    117 H117      -50.2254  -24.6533   17.7599 H         1 UNK         0.0702 
    118 H118      -47.9445  -25.0661   16.8399 H         1 UNK         0.0785 
    119 H119      -48.4351  -26.6711   16.2979 H         1 UNK         0.0785 
    120 H120      -48.3856  -26.2966   18.0120 H         1 UNK         0.0785 
    121 H121      -49.7147  -24.9480   14.9533 H         1 UNK         0.2998 
    122 H122      -52.7663  -23.4875   13.7931 H         1 UNK         0.0697 
    123 H123      -49.8723  -22.4749   13.8402 H         1 UNK         0.0825 
    124 H124      -51.3016  -21.5689   14.3088 H         1 UNK         0.0825 
    125 H125      -51.0839  -22.0472   12.6331 H         1 UNK         0.0825 
    126 H126      -50.3888  -24.5919   12.5513 H         1 UNK         0.3029 
    127 H127      -51.6555  -27.9047   12.2591 H         1 UNK         0.0897 
    128 H128      -51.4122  -25.8714    9.9823 H         1 UNK         0.0792 
    129 H129      -52.9115  -26.6831   10.4248 H         1 UNK         0.0792 
    130 H130      -51.5508  -27.6319    9.8631 H         1 UNK         0.0792 
    131 H131      -49.3923  -26.6868   11.0614 H         1 UNK         0.3086 
    132 H132      -47.3232  -26.4354   13.8436 H         1 UNK         0.0583 
    133 H133      -45.7585  -28.0483   13.0512 H         1 UNK         0.1020 
    134 H134      -47.1221  -28.9304   13.6443 H         1 UNK         0.1020 
    135 H135      -47.3418  -31.4362   11.2231 H         1 UNK         0.0694 
    136 H136      -48.0529  -30.6867   12.6226 H         1 UNK         0.0694 
    137 H137      -46.5214  -26.3548   11.1791 H         1 UNK         0.2989 
    138 H138      -47.9808  -23.4296   10.0651 H         1 UNK         0.1055 
    139 H139      -46.4517  -22.2219   11.5808 H         1 UNK         0.0806 
    140 H140      -45.7579  -22.3171    9.9700 H         1 UNK         0.0806 
    141 H141      -45.1592  -23.3649   11.2568 H         1 UNK         0.0806 
    142 H142      -47.3026  -24.8470    8.5468 H         1 UNK         0.3061 
    143 H143      -44.2436  -26.4308    7.7712 H         1 UNK         0.0734 
    144 H144      -45.6044  -28.2940    8.6155 H         1 UNK         0.0832 
    145 H145      -45.8508  -28.1408    6.8877 H         1 UNK         0.0832 
    146 H146      -47.0842  -27.5655    8.0119 H         1 UNK         0.0832 
    147 H147      -46.7705  -25.5439    6.5167 H         1 UNK         0.3156 
    148 H148      -45.4038  -22.6235    5.1609 H         1 UNK         0.0589 
    149 H149      -45.6826  -25.2079    3.5382 H         1 UNK         0.0808 
    150 H150      -45.8443  -23.5745    2.8950 H         1 UNK         0.0808 
    151 H151      -44.3036  -24.1212    3.5360 H         1 UNK         0.0808 
    152 H152      -47.7412  -24.3184    4.6562 H         1 UNK         0.3098 
    153 H153      -49.6934  -22.8552    7.2342 H         1 UNK         0.0720 
    154 H154      -51.2387  -22.1241    5.4366 H         1 UNK         0.0791 
    155 H155      -49.9473  -22.2388    4.2393 H         1 UNK         0.0791 
    156 H156      -49.8623  -21.0386    5.5212 H         1 UNK         0.0791 
    157 H157      -50.4619  -24.5292    5.0779 H         1 UNK         0.3028 
@<TRIPOS>BOND
     1    1    2 1    
     2    1   82 1    
     3    1   83 1    
     4    1   84 1    
     5    2    3 2    
     6    2    4 am   BACKBONE|DICT|INTERRES
     7    4    5 1    
     8    4   85 1    
     9    5    6 1    
    10    5   80 1    
    11    5   86 1    
    12    6    7 1    
    13    6   87 1    
    14    6   88 1    
    15    7    8 1    
    16    8    9 1    
    17    8   89 1    
    18    8   90 1    
    19    9   10 ar   
    20    9   14 ar   
    21   10   11 ar   
    22   10   91 1    
    23   11   12 ar   
    24   11   58 1    
    25   12   13 ar   
    26   12   92 1    
    27   13   14 ar   
    28   13   15 1    
    29   14   93 1    
    30   15   16 1    
    31   15   94 1    
    32   15   95 1    
    33   16   17 1    
    34   17   18 1    
    35   17   96 1    
    36   17   97 1    
    37   18   19 1    
    38   18   22 1    
    39   18   98 1    
    40   19   20 am   BACKBONE|DICT|INTERRES
    41   19   21 2    
    42   20   99 1    
    43   20  100 1    
    44   22   23 am   BACKBONE|DICT|INTERRES
    45   22  101 1    
    46   23   24 2    
    47   23   25 1    
    48   25   26 1    
    49   25   27 1    
    50   25  102 1    
    51   26  103 1    
    52   26  104 1    
    53   26  105 1    
    54   27   28 am   BACKBONE|DICT|INTERRES
    55   27  106 1    
    56   28   29 2    
    57   28   30 1    
    58   30   31 1    
    59   30   32 1    
    60   30  107 1    
    61   31  108 1    
    62   31  109 1    
    63   31  110 1    
    64   32   33 am   BACKBONE|DICT|INTERRES
    65   32  111 1    
    66   33   34 2    
    67   33   35 1    
    68   35   36 1    
    69   35   37 1    
    70   35  112 1    
    71   36  113 1    
    72   36  114 1    
    73   36  115 1    
    74   37   38 am   BACKBONE|DICT|INTERRES
    75   37  116 1    
    76   38   39 2    
    77   38   40 1    
    78   40   41 1    
    79   40   42 1    
    80   40  117 1    
    81   41  118 1    
    82   41  119 1    
    83   41  120 1    
    84   42   43 am   BACKBONE|DICT|INTERRES
    85   42  121 1    
    86   43   44 2    
    87   43   45 1    
    88   45   46 1    
    89   45   47 1    
    90   45  122 1    
    91   46  123 1    
    92   46  124 1    
    93   46  125 1    
    94   47   48 am   BACKBONE|DICT|INTERRES
    95   47  126 1    
    96   48   49 2    
    97   48   50 1    
    98   50   51 1    
    99   50   52 1    
   100   50  127 1    
   101   51  128 1    
   102   51  129 1    
   103   51  130 1    
   104   52   53 am   BACKBONE|DICT|INTERRES
   105   52  131 1    
   106   53   54 2    
   107   53   55 1    
   108   55   56 1    
   109   55   59 1    
   110   55  132 1    
   111   56   57 1    
   112   56  133 1    
   113   56  134 1    
   114   57   58 1    
   115   58  135 1    
   116   58  136 1    
   117   59   60 am   BACKBONE|DICT|INTERRES
   118   59  137 1    
   119   60   61 2    
   120   60   62 1    
   121   62   63 1    
   122   62   64 1    
   123   62  138 1    
   124   63  139 1    
   125   63  140 1    
   126   63  141 1    
   127   64   65 am   BACKBONE|DICT|INTERRES
   128   64  142 1    
   129   65   66 2    
   130   65   67 1    
   131   67   68 1    
   132   67   69 1    
   133   67  143 1    
   134   68  144 1    
   135   68  145 1    
   136   68  146 1    
   137   69   70 am   BACKBONE|DICT|INTERRES
   138   69  147 1    
   139   70   71 2    
   140   70   72 1    
   141   72   73 1    
   142   72   74 1    
   143   72  148 1    
   144   73  149 1    
   145   73  150 1    
   146   73  151 1    
   147   74   75 am   BACKBONE|DICT|INTERRES
   148   74  152 1    
   149   75   76 2    
   150   75   77 1    
   151   77   78 1    
   152   77   79 1    
   153   77  153 1    
   154   78  154 1    
   155   78  155 1    
   156   78  156 1    
   157   79   80 am   BACKBONE|DICT|INTERRES
   158   79  157 1    
   159   80   81 2    
@<TRIPOS>SUBSTRUCTURE
     1 UNK         1 GROUP             0       ****    0 ROOT    
