@<TRIPOS>MOLECULE
3R207
157   159    1
SMALL
USER_CHARGES


@<TRIPOS>ATOM
      1 CA        -49.1690  -29.8829    9.4987 C.3       0 UNK        -0.1975 
      2 C         -49.1425  -29.2555    8.1128 C.2       0 UNK         0.4852 
      3 O         -49.5853  -28.1228    7.9511 O.2       0 UNK        -0.5216 
      4 N         -48.5944  -29.9870    7.1329 N.am      1 UNK        -0.4461 
      5 CA        -48.5250  -29.7420    5.6798 C.3       1 UNK         0.0864 
      6 C6        -49.8557  -30.0464    4.9350 C.3       14 UNK        -0.0898 
      7 S7        -51.1781  -28.7930    5.0866 S.3       14 UNK        -0.2598 
      8 C8        -52.4582  -29.6404    6.0816 C.3       14 UNK         0.0286 
      9 C9        -52.7247  -28.9392    7.4093 C.ar      14 UNK        -0.0844 
     10 C10       -53.0533  -27.5802    7.4319 C.ar      14 UNK        -0.0881 
     11 C11       -53.2969  -26.9221    8.6397 C.ar      14 UNK        -0.0643 
     12 C12       -53.2429  -27.6462    9.8341 C.ar      14 UNK        -0.0930 
     13 C13       -52.9155  -29.0042    9.8323 C.ar      14 UNK        -0.0827 
     14 C14       -52.6578  -29.6461    8.6152 C.ar      14 UNK        -0.1249 
     15 C15       -52.8173  -29.7563   11.1543 C.3       14 UNK         0.0141 
     16 S16       -53.8841  -31.2312   11.2220 S.3       14 UNK        -0.2313 
     17 C17       -55.5595  -30.5350   10.9878 C.3       14 UNK        -0.0915 
     18 CA        -56.4582  -30.5858   12.2512 C.3       13 UNK         0.0968 
     19 C         -56.7597  -32.0445   12.7119 C.2       13 UNK         0.5732 
     20 N         -56.3372  -32.4707   13.8966 N.am      13 UNK        -0.7310 
     21 O         -57.4016  -32.7975   11.9830 O.2       13 UNK        -0.5035 
     22 N         -55.9767  -29.6670   13.2959 N.am      13 UNK        -0.4233 
     23 C         -56.7163  -29.2339   14.3255 C.2       13 UNK         0.4989 
     24 O         -57.8839  -29.5720   14.5252 O.2       13 UNK        -0.4996 
     25 CA        -56.0481  -28.2468   15.2971 C.3       12 UNK         0.0216 
     26 CB        -55.2622  -29.0067   16.3774 C.3       12 UNK        -0.1964 
     27 N         -55.1767  -27.2559   14.6525 N.am      12 UNK        -0.4276 
     28 C         -55.6000  -26.3173   13.7875 C.2       12 UNK         0.5020 
     29 O         -56.7602  -26.2518   13.3768 O.2       12 UNK        -0.5489 
     30 CA        -54.5708  -25.2669   13.3095 C.3       11 UNK         0.0294 
     31 CB        -55.2302  -23.9542   12.8382 C.3       11 UNK        -0.2019 
     32 N         -53.5097  -24.9841   14.2814 N.am      11 UNK        -0.4493 
     33 C         -53.6479  -24.5776   15.5534 C.2       11 UNK         0.4932 
     34 O         -54.7278  -24.2757   16.0641 O.2       11 UNK        -0.5029 
     35 CA        -52.3625  -24.5329   16.4065 C.3       10 UNK         0.0280 
     36 CB        -52.6475  -24.7194   17.9116 C.3       10 UNK        -0.1976 
     37 N         -51.3240  -25.4756   15.9662 N.am      10 UNK        -0.4242 
     38 C         -51.4286  -26.8095   15.8364 C.2       10 UNK         0.5072 
     39 O         -52.4651  -27.4311   16.0751 O.2       10 UNK        -0.5224 
     40 CA        -50.2101  -27.5923   15.3039 C.3       9 UNK         0.0343 
     41 CB        -50.5944  -28.4013   14.0509 C.3       9 UNK        -0.2003 
     42 N         -49.0582  -26.7464   14.9821 N.am      9 UNK        -0.4272 
     43 C         -48.1987  -26.2291   15.8701 C.2       9 UNK         0.4988 
     44 O         -48.2278  -26.4761   17.0759 O.2       9 UNK        -0.5108 
     45 CA        -47.1628  -25.2263   15.3277 C.3       8 UNK         0.0248 
     46 CB        -45.9190  -25.9608   14.8034 C.3       8 UNK        -0.2001 
     47 N         -47.7010  -24.3455   14.2824 N.am      8 UNK        -0.4140 
     48 C         -48.7110  -23.4808   14.4649 C.2       8 UNK         0.5028 
     49 O         -49.2656  -23.3020   15.5492 O.2       8 UNK        -0.5428 
     50 CA        -49.2356  -22.7297   13.2292 C.3       7 UNK         0.0264 
     51 CB        -48.3248  -21.5449   12.8717 C.3       7 UNK        -0.1988 
     52 N         -49.4120  -23.5981   12.0627 N.am      7 UNK        -0.4454 
     53 C         -50.2559  -24.6421   12.0141 C.2       7 UNK         0.5027 
     54 O         -51.0018  -24.9649   12.9400 O.2       7 UNK        -0.5083 
     55 CA        -50.2274  -25.5057   10.7353 C.3       6 UNK         0.0844 
     56 C56       -50.9777  -24.8341    9.5542 C.3       14 UNK        -0.0967 
     57 S57       -52.7378  -24.4746    9.9083 S.3       14 UNK        -0.2604 
     58 C58       -53.6217  -25.4322    8.6321 C.3       14 UNK         0.0134 
     59 N         -48.8513  -25.8521   10.3716 N.am      6 UNK        -0.4116 
     60 C         -47.9718  -26.5063   11.1432 C.2       5 UNK         0.5034 
     61 O         -48.2509  -27.0023   12.2328 O.2       5 UNK        -0.5045 
     62 CA        -46.5142  -26.5546   10.6553 C.3       5 UNK         0.0224 
     63 CB        -46.2765  -27.6982    9.6599 C.3       5 UNK        -0.1978 
     64 N         -46.0920  -25.2863   10.0598 N.am      5 UNK        -0.4737 
     65 C         -45.8670  -24.1670   10.7598 C.2       4 UNK         0.5027 
     66 O         -45.9624  -24.0991   11.9843 O.2       4 UNK        -0.5211 
     67 CA        -45.4998  -22.9081    9.9567 C.3       4 UNK         0.0297 
     68 CB        -43.9865  -22.8594    9.6947 C.3       4 UNK        -0.1993 
     69 N         -46.2228  -22.8166    8.6853 N.am      4 UNK        -0.4486 
     70 C         -47.5423  -22.6041    8.5842 C.2       3 UNK         0.4961 
     71 O         -48.2849  -22.4332    9.5519 O.2       3 UNK        -0.5105 
     72 CA        -48.1388  -22.6438    7.1640 C.3       3 UNK         0.0299 
     73 CB        -47.9068  -21.3079    6.4402 C.3       3 UNK        -0.1972 
     74 N         -47.6376  -23.7526    6.3372 N.am      3 UNK        -0.4305 
     75 C         -47.7433  -25.0461    6.6710 C.2       2 UNK         0.5006 
     76 O         -48.2227  -25.4280    7.7365 O.2       2 UNK        -0.5106 
     77 CA        -47.1805  -26.0832    5.6944 C.3       2 UNK         0.0296 
     78 CB        -45.6483  -26.1796    5.8325 C.3       2 UNK        -0.2002 
     79 N         -47.7974  -27.3778    5.9865 N.am      2 UNK        -0.4032 
     80 C         -47.8299  -28.4455    5.1839 C.2       1 UNK         0.5000 
     81 O         -47.3052  -28.4548    4.0676 O.2       1 UNK        -0.5238 
     82 H82       -49.9956  -30.5880    9.5743 H         1 UNK         0.0889 
     83 H83       -49.3066  -29.1185   10.2633 H         1 UNK         0.0889 
     84 H84       -48.2427  -30.4154    9.7119 H         1 UNK         0.0889 
     85 H85       -48.2099  -30.8830    7.3988 H         1 UNK         0.3028 
     86 H86       -47.8372  -30.5238    5.3530 H         1 UNK         0.0864 
     87 H87       -49.6504  -30.1562    3.8685 H         1 UNK         0.0720 
     88 H88       -50.2305  -31.0221    5.2452 H         1 UNK         0.0720 
     89 H89       -52.1877  -30.6830    6.2496 H         1 UNK         0.0814 
     90 H90       -53.3857  -29.6596    5.5081 H         1 UNK         0.0814 
     91 H91       -53.1016  -27.0309    6.5018 H         1 UNK         0.1469 
     92 H92       -53.4365  -27.1432   10.7693 H         1 UNK         0.1381 
     93 H93       -52.4031  -30.6968    8.6110 H         1 UNK         0.1206 
     94 H94       -53.0651  -29.1052   11.9936 H         1 UNK         0.0813 
     95 H95       -51.7826  -30.0652   11.3067 H         1 UNK         0.0813 
     96 H96       -56.0328  -31.0839   10.1719 H         1 UNK         0.0638 
     97 H97       -55.4874  -29.5060   10.6340 H         1 UNK         0.0638 
     98 H98       -57.4287  -30.1932   11.9413 H         1 UNK         0.0568 
     99 H99       -56.5441  -33.4140   14.1840 H         1 UNK         0.3450 
    100 H100      -55.8085  -31.8622   14.4993 H         1 UNK         0.3450 
    101 H101      -55.0203  -29.3598   13.2178 H         1 UNK         0.2987 
    102 H102      -56.8486  -27.6943   15.7937 H         1 UNK         0.0766 
    103 H103      -54.8901  -28.3279   17.1453 H         1 UNK         0.0798 
    104 H104      -54.4059  -29.5368   15.9586 H         1 UNK         0.0798 
    105 H105      -55.8925  -29.7435   16.8775 H         1 UNK         0.0798 
    106 H106      -54.2164  -27.2190   14.9827 H         1 UNK         0.3198 
    107 H107      -54.0715  -25.7079   12.4476 H         1 UNK         0.0843 
    108 H108      -55.7973  -23.4773   13.6381 H         1 UNK         0.0831 
    109 H109      -55.9187  -24.1358   12.0120 H         1 UNK         0.0831 
    110 H110      -54.4844  -23.2433   12.4826 H         1 UNK         0.0831 
    111 H111      -52.5607  -25.1344   13.9392 H         1 UNK         0.3133 
    112 H112      -51.9441  -23.5354   16.2682 H         1 UNK         0.0566 
    113 H113      -51.7297  -24.6703   18.4974 H         1 UNK         0.0814 
    114 H114      -53.3107  -23.9388   18.2863 H         1 UNK         0.0814 
    115 H115      -53.1253  -25.6784   18.1152 H         1 UNK         0.0814 
    116 H116      -50.4470  -25.0400   15.7025 H         1 UNK         0.3091 
    117 H117      -49.9157  -28.2959   16.0850 H         1 UNK         0.0702 
    118 H118      -51.4060  -29.0984   14.2631 H         1 UNK         0.0785 
    119 H119      -49.7524  -28.9895   13.6854 H         1 UNK         0.0785 
    120 H120      -50.9236  -27.7518   13.2390 H         1 UNK         0.0785 
    121 H121      -48.9122  -26.5481   13.9956 H         1 UNK         0.2998 
    122 H122      -46.8539  -24.5908   16.1602 H         1 UNK         0.0697 
    123 H123      -46.1606  -26.6177   13.9680 H         1 UNK         0.0825 
    124 H124      -45.4729  -26.5780   15.5843 H         1 UNK         0.0825 
    125 H125      -45.1549  -25.2593   14.4680 H         1 UNK         0.0825 
    126 H126      -47.2507  -24.3869   13.3709 H         1 UNK         0.3029 
    127 H127      -50.2197  -22.3310   13.4851 H         1 UNK         0.0897 
    128 H128      -48.7332  -20.9678   12.0418 H         1 UNK         0.0792 
    129 H129      -48.2194  -20.8655   13.7186 H         1 UNK         0.0792 
    130 H130      -47.3241  -21.8712   12.5897 H         1 UNK         0.0792 
    131 H131      -48.8678  -23.3692   11.2356 H         1 UNK         0.3086 
    132 H132      -50.7341  -26.4456   10.9625 H         1 UNK         0.0583 
    133 H133      -50.4917  -23.8996    9.2720 H         1 UNK         0.1020 
    134 H134      -50.9095  -25.4758    8.6734 H         1 UNK         0.1020 
    135 H135      -54.6947  -25.3083    8.7832 H         1 UNK         0.0694 
    136 H136      -53.3930  -24.9939    7.6593 H         1 UNK         0.0694 
    137 H137      -48.5515  -25.5657    9.4398 H         1 UNK         0.2989 
    138 H138      -45.8862  -26.7414   11.5292 H         1 UNK         0.1055 
    139 H139      -46.5564  -28.6566   10.0971 H         1 UNK         0.0806 
    140 H140      -45.2250  -27.7678    9.3815 H         1 UNK         0.0806 
    141 H141      -46.8543  -27.5656    8.7465 H         1 UNK         0.0806 
    142 H142      -46.0518  -25.2423    9.0526 H         1 UNK         0.3061 
    143 H143      -45.7685  -22.0397   10.5621 H         1 UNK         0.0734 
    144 H144      -43.6992  -21.9338    9.1955 H         1 UNK         0.0832 
    145 H145      -43.4287  -22.9065   10.6312 H         1 UNK         0.0832 
    146 H146      -43.6536  -23.6937    9.0758 H         1 UNK         0.0832 
    147 H147      -45.6894  -22.9475    7.8382 H         1 UNK         0.3156 
    148 H148      -49.2166  -22.7841    7.2709 H         1 UNK         0.0589 
    149 H149      -46.8478  -21.1232    6.2560 H         1 UNK         0.0808 
    150 H150      -48.4245  -21.2808    5.4812 H         1 UNK         0.0808 
    151 H151      -48.2848  -20.4732    7.0326 H         1 UNK         0.0808 
    152 H152      -47.2187  -23.5085    5.4508 H         1 UNK         0.3098 
    153 H153      -47.4465  -25.7841    4.6787 H         1 UNK         0.0720 
    154 H154      -45.2277  -26.8886    5.1194 H         1 UNK         0.0791 
    155 H155      -45.3538  -26.5006    6.8323 H         1 UNK         0.0791 
    156 H156      -45.1721  -25.2170    5.6431 H         1 UNK         0.0791 
    157 H157      -48.3486  -27.4119    6.8472 H         1 UNK         0.3028 
@<TRIPOS>BOND
     1    1    2 1    
     2    1   82 1    
     3    1   83 1    
     4    1   84 1    
     5    2    3 2    
     6    2    4 am   BACKBONE|DICT|INTERRES
     7    4    5 1    
     8    4   85 1    
     9    5    6 1    
    10    5   80 1    
    11    5   86 1    
    12    6    7 1    
    13    6   87 1    
    14    6   88 1    
    15    7    8 1    
    16    8    9 1    
    17    8   89 1    
    18    8   90 1    
    19    9   10 ar   
    20    9   14 ar   
    21   10   11 ar   
    22   10   91 1    
    23   11   12 ar   
    24   11   58 1    
    25   12   13 ar   
    26   12   92 1    
    27   13   14 ar   
    28   13   15 1    
    29   14   93 1    
    30   15   16 1    
    31   15   94 1    
    32   15   95 1    
    33   16   17 1    
    34   17   18 1    
    35   17   96 1    
    36   17   97 1    
    37   18   19 1    
    38   18   22 1    
    39   18   98 1    
    40   19   20 am   BACKBONE|DICT|INTERRES
    41   19   21 2    
    42   20   99 1    
    43   20  100 1    
    44   22   23 am   BACKBONE|DICT|INTERRES
    45   22  101 1    
    46   23   24 2    
    47   23   25 1    
    48   25   26 1    
    49   25   27 1    
    50   25  102 1    
    51   26  103 1    
    52   26  104 1    
    53   26  105 1    
    54   27   28 am   BACKBONE|DICT|INTERRES
    55   27  106 1    
    56   28   29 2    
    57   28   30 1    
    58   30   31 1    
    59   30   32 1    
    60   30  107 1    
    61   31  108 1    
    62   31  109 1    
    63   31  110 1    
    64   32   33 am   BACKBONE|DICT|INTERRES
    65   32  111 1    
    66   33   34 2    
    67   33   35 1    
    68   35   36 1    
    69   35   37 1    
    70   35  112 1    
    71   36  113 1    
    72   36  114 1    
    73   36  115 1    
    74   37   38 am   BACKBONE|DICT|INTERRES
    75   37  116 1    
    76   38   39 2    
    77   38   40 1    
    78   40   41 1    
    79   40   42 1    
    80   40  117 1    
    81   41  118 1    
    82   41  119 1    
    83   41  120 1    
    84   42   43 am   BACKBONE|DICT|INTERRES
    85   42  121 1    
    86   43   44 2    
    87   43   45 1    
    88   45   46 1    
    89   45   47 1    
    90   45  122 1    
    91   46  123 1    
    92   46  124 1    
    93   46  125 1    
    94   47   48 am   BACKBONE|DICT|INTERRES
    95   47  126 1    
    96   48   49 2    
    97   48   50 1    
    98   50   51 1    
    99   50   52 1    
   100   50  127 1    
   101   51  128 1    
   102   51  129 1    
   103   51  130 1    
   104   52   53 am   BACKBONE|DICT|INTERRES
   105   52  131 1    
   106   53   54 2    
   107   53   55 1    
   108   55   56 1    
   109   55   59 1    
   110   55  132 1    
   111   56   57 1    
   112   56  133 1    
   113   56  134 1    
   114   57   58 1    
   115   58  135 1    
   116   58  136 1    
   117   59   60 am   BACKBONE|DICT|INTERRES
   118   59  137 1    
   119   60   61 2    
   120   60   62 1    
   121   62   63 1    
   122   62   64 1    
   123   62  138 1    
   124   63  139 1    
   125   63  140 1    
   126   63  141 1    
   127   64   65 am   BACKBONE|DICT|INTERRES
   128   64  142 1    
   129   65   66 2    
   130   65   67 1    
   131   67   68 1    
   132   67   69 1    
   133   67  143 1    
   134   68  144 1    
   135   68  145 1    
   136   68  146 1    
   137   69   70 am   BACKBONE|DICT|INTERRES
   138   69  147 1    
   139   70   71 2    
   140   70   72 1    
   141   72   73 1    
   142   72   74 1    
   143   72  148 1    
   144   73  149 1    
   145   73  150 1    
   146   73  151 1    
   147   74   75 am   BACKBONE|DICT|INTERRES
   148   74  152 1    
   149   75   76 2    
   150   75   77 1    
   151   77   78 1    
   152   77   79 1    
   153   77  153 1    
   154   78  154 1    
   155   78  155 1    
   156   78  156 1    
   157   79   80 am   BACKBONE|DICT|INTERRES
   158   79  157 1    
   159   80   81 2    
@<TRIPOS>SUBSTRUCTURE
     1 UNK         1 GROUP             0       ****    0 ROOT    
