@<TRIPOS>MOLECULE
3R207
157   159    1
SMALL
USER_CHARGES


@<TRIPOS>ATOM
      1 CA        -49.1590  -31.0565    0.9814 C.3       0 UNK        -0.1975 
      2 C         -49.5890  -30.5948    2.3666 C.2       0 UNK         0.4852 
      3 O         -49.6996  -31.4211    3.2737 O.2       0 UNK        -0.5216 
      4 N         -49.8377  -29.2857    2.5239 N.am      1 UNK        -0.4461 
      5 CA        -50.2101  -28.6030    3.7722 C.3       1 UNK         0.0864 
      6 C6        -51.5018  -29.1911    4.4174 C.3       14 UNK        -0.0898 
      7 S7        -52.5507  -27.9239    5.2042 S.3       14 UNK        -0.2598 
      8 C8        -52.6645  -28.5490    6.9118 C.3       14 UNK         0.0286 
      9 C9        -53.5713  -27.6739    7.7670 C.ar      14 UNK        -0.0844 
     10 C10       -53.2546  -26.3270    7.9770 C.ar      14 UNK        -0.0881 
     11 C11       -54.0914  -25.5119    8.7440 C.ar      14 UNK        -0.0643 
     12 C12       -55.2421  -26.0575    9.3186 C.ar      14 UNK        -0.0930 
     13 C13       -55.5622  -27.4053    9.1320 C.ar      14 UNK        -0.0827 
     14 C14       -54.7221  -28.2104    8.3565 C.ar      14 UNK        -0.1249 
     15 C15       -56.8436  -27.9650    9.7327 C.3       14 UNK         0.0141 
     16 S16       -56.7096  -28.2032   11.5327 S.3       14 UNK        -0.2313 
     17 C17       -56.2997  -29.9765   11.6602 C.3       14 UNK        -0.0915 
     18 CA        -55.2986  -30.2589   12.8182 C.3       13 UNK         0.0968 
     19 C         -55.2289  -31.7618   13.2348 C.2       13 UNK         0.5732 
     20 N         -54.1029  -32.2605   13.7360 N.am      13 UNK        -0.7310 
     21 O         -56.2182  -32.4849   13.1400 O.2       13 UNK        -0.5035 
     22 N         -53.9855  -29.6325   12.6047 N.am      13 UNK        -0.4233 
     23 C         -53.0906  -29.9793   11.6665 C.2       13 UNK         0.4989 
     24 O         -53.3026  -30.8092   10.7816 O.2       13 UNK        -0.4996 
     25 CA        -51.7008  -29.3178   11.7378 C.3       12 UNK         0.0216 
     26 CB        -51.6289  -28.1709   10.7217 C.3       12 UNK        -0.1964 
     27 N         -51.3354  -28.8190   13.0681 N.am      12 UNK        -0.4276 
     28 C         -51.2659  -29.5514   14.1903 C.2       12 UNK         0.5020 
     29 O         -51.4034  -30.7754   14.2200 O.2       12 UNK        -0.5489 
     30 CA        -51.0922  -28.7780   15.5109 C.3       11 UNK         0.0294 
     31 CB        -49.6243  -28.7998   15.9652 C.3       11 UNK        -0.2019 
     32 N         -51.5729  -27.3905   15.4442 N.am      11 UNK        -0.4493 
     33 C         -52.8447  -27.0313   15.2063 C.2       11 UNK         0.4932 
     34 O         -53.7516  -27.8484   15.0347 O.2       11 UNK        -0.5029 
     35 CA        -53.1477  -25.5254   15.0728 C.3       10 UNK         0.0280 
     36 CB        -54.6290  -25.1891   15.3482 C.3       10 UNK        -0.1976 
     37 N         -52.2567  -24.6553   15.8506 N.am      10 UNK        -0.4242 
     38 C         -52.1239  -24.6273   17.1857 C.2       10 UNK         0.5072 
     39 O         -52.7301  -25.3810   17.9503 O.2       10 UNK        -0.5224 
     40 CA        -51.1678  -23.5617   17.7620 C.3       9 UNK         0.0343 
     41 CB        -50.8828  -23.7652   19.2658 C.3       9 UNK        -0.2003 
     42 N         -49.9061  -23.4220   17.0253 N.am      9 UNK        -0.4272 
     43 C         -48.9899  -24.3682   16.7765 C.2       9 UNK         0.4988 
     44 O         -49.1322  -25.5538   17.0788 O.2       9 UNK        -0.5108 
     45 CA        -47.6901  -23.8949   16.0880 C.3       8 UNK         0.0248 
     46 CB        -46.6826  -25.0415   15.8867 C.3       8 UNK        -0.2001 
     47 N         -47.9397  -23.2447   14.7980 N.am      8 UNK        -0.4140 
     48 C         -48.4573  -22.0197   14.6274 C.2       8 UNK         0.5028 
     49 O         -48.7152  -21.2546   15.5585 O.2       8 UNK        -0.5428 
     50 CA        -48.8098  -21.5992   13.1897 C.3       7 UNK         0.0264 
     51 CB        -47.5912  -20.9836   12.4845 C.3       7 UNK        -0.1988 
     52 N         -49.3453  -22.6990   12.3817 N.am      7 UNK        -0.4454 
     53 C         -50.4611  -23.3893   12.6667 C.2       7 UNK         0.5027 
     54 O         -51.1887  -23.1458   13.6313 O.2       7 UNK        -0.5083 
     55 CA        -50.7765  -24.5985   11.7599 C.3       6 UNK         0.0844 
     56 C56       -51.3919  -24.1802   10.4049 C.3       14 UNK        -0.0967 
     57 S57       -53.1305  -23.6612   10.5765 S.3       14 UNK        -0.2604 
     58 C58       -53.7835  -24.0324    8.9207 C.3       14 UNK         0.0134 
     59 N         -49.5950  -25.4441   11.5896 N.am      6 UNK        -0.4116 
     60 C         -49.0067  -26.1302   12.5784 C.2       5 UNK         0.5034 
     61 O         -49.4723  -26.2168   13.7121 O.2       5 UNK        -0.5045 
     62 CA        -47.6702  -26.8181   12.2586 C.3       5 UNK         0.0224 
     63 CB        -47.8834  -28.2712   11.8094 C.3       5 UNK        -0.1978 
     64 N         -46.9019  -26.0870   11.2479 N.am      5 UNK        -0.4737 
     65 C         -46.2941  -24.9152   11.4815 C.2       4 UNK         0.5027 
     66 O         -46.2738  -24.3673   12.5828 O.2       4 UNK        -0.5211 
     67 CA        -45.6453  -24.2172   10.2746 C.3       4 UNK         0.0297 
     68 CB        -44.2516  -24.8012    9.9952 C.3       4 UNK        -0.1993 
     69 N         -46.4689  -24.2988    9.0643 N.am      4 UNK        -0.4486 
     70 C         -47.6694  -23.7176    8.9260 C.2       3 UNK         0.4961 
     71 O         -48.1938  -23.0200    9.7932 O.2       3 UNK        -0.5105 
     72 CA        -48.4404  -23.9999    7.6235 C.3       3 UNK         0.0299 
     73 CB        -48.0590  -22.9789    6.5406 C.3       3 UNK        -0.1972 
     74 N         -48.2576  -25.3614    7.1057 N.am      3 UNK        -0.4305 
     75 C         -48.5758  -26.4800    7.7713 C.2       2 UNK         0.5006 
     76 O         -49.0625  -26.4834    8.9029 O.2       2 UNK        -0.5106 
     77 CA        -48.3178  -27.8003    7.0373 C.3       2 UNK         0.0296 
     78 CB        -48.4065  -29.0316    7.9604 C.3       2 UNK        -0.2002 
     79 N         -49.2786  -27.9354    5.9448 N.am      2 UNK        -0.4032 
     80 C         -49.0209  -28.5013    4.7599 C.2       1 UNK         0.5000 
     81 O         -47.8996  -28.9046    4.4351 O.2       1 UNK        -0.5238 
     82 H82       -48.1726  -31.5168    1.0298 H         1 UNK         0.0889 
     83 H83       -49.1132  -30.2312    0.2711 H         1 UNK         0.0889 
     84 H84       -49.8617  -31.7953    0.5973 H         1 UNK         0.0889 
     85 H85       -49.6986  -28.6713    1.7336 H         1 UNK         0.3028 
     86 H86       -50.4201  -27.5779    3.4621 H         1 UNK         0.0864 
     87 H87       -51.2677  -29.9938    5.1199 H         1 UNK         0.0720 
     88 H88       -52.1245  -29.6542    3.6502 H         1 UNK         0.0720 
     89 H89       -51.6718  -28.5856    7.3599 H         1 UNK         0.0814 
     90 H90       -53.0327  -29.5761    6.8906 H         1 UNK         0.0814 
     91 H91       -52.3658  -25.9098    7.5240 H         1 UNK         0.1469 
     92 H92       -55.8944  -25.4285    9.9092 H         1 UNK         0.1381 
     93 H93       -54.9700  -29.2522    8.2055 H         1 UNK         0.1206 
     94 H94       -57.1304  -28.8991    9.2475 H         1 UNK         0.0813 
     95 H95       -57.6588  -27.2667    9.5376 H         1 UNK         0.0813 
     96 H96       -57.2419  -30.5028   11.8208 H         1 UNK         0.0638 
     97 H97       -55.9061  -30.3415   10.7109 H         1 UNK         0.0638 
     98 H98       -55.6982  -29.7702   13.7075 H         1 UNK         0.0568 
     99 H99       -54.0772  -33.2288   14.0124 H         1 UNK         0.3450 
    100 H100      -53.2735  -31.6868   13.8351 H         1 UNK         0.3450 
    101 H101      -53.7224  -28.9538   13.3102 H         1 UNK         0.2987 
    102 H102      -50.9644  -30.0741   11.4592 H         1 UNK         0.0766 
    103 H103      -52.3344  -27.3710   10.9517 H         1 UNK         0.0798 
    104 H104      -51.8661  -28.5377    9.7255 H         1 UNK         0.0798 
    105 H105      -50.6330  -27.7437   10.6617 H         1 UNK         0.0798 
    106 H106      -51.1833  -27.8244   13.1636 H         1 UNK         0.3198 
    107 H107      -51.6893  -29.2933   16.2661 H         1 UNK         0.0843 
    108 H108      -49.5047  -28.3255   16.9394 H         1 UNK         0.0831 
    109 H109      -48.9713  -28.2836   15.2614 H         1 UNK         0.0831 
    110 H110      -49.2595  -29.8237   16.0568 H         1 UNK         0.0831 
    111 H111      -50.8679  -26.6661   15.5273 H         1 UNK         0.3133 
    112 H112      -52.9616  -25.2807   14.0282 H         1 UNK         0.0566 
    113 H113      -54.8242  -24.1243   15.2213 H         1 UNK         0.0814 
    114 H114      -55.2861  -25.7200   14.6580 H         1 UNK         0.0814 
    115 H115      -54.9272  -25.4687   16.3590 H         1 UNK         0.0814 
    116 H116      -51.7104  -24.0028   15.2924 H         1 UNK         0.3091 
    117 H117      -51.6863  -22.6079   17.6539 H         1 UNK         0.0702 
    118 H118      -50.2407  -22.9769   19.6585 H         1 UNK         0.0785 
    119 H119      -50.3952  -24.7219   19.4570 H         1 UNK         0.0785 
    120 H120      -51.8058  -23.7478   19.8468 H         1 UNK         0.0785 
    121 H121      -49.6891  -22.4877   16.6860 H         1 UNK         0.2998 
    122 H122      -47.2250  -23.1637   16.7523 H         1 UNK         0.0697 
    123 H123      -45.7691  -24.6921   15.4050 H         1 UNK         0.0825 
    124 H124      -46.3981  -25.4829   16.8426 H         1 UNK         0.0825 
    125 H125      -47.1029  -25.8387   15.2746 H         1 UNK         0.0825 
    126 H126      -47.7063  -23.7832   13.9706 H         1 UNK         0.3029 
    127 H127      -49.5877  -20.8355   13.2551 H         1 UNK         0.0897 
    128 H128      -47.8518  -20.6158   11.4918 H         1 UNK         0.0792 
    129 H129      -47.1978  -20.1386   13.0512 H         1 UNK         0.0792 
    130 H130      -46.7823  -21.7056   12.3704 H         1 UNK         0.0792 
    131 H131      -48.8291  -22.9339   11.5355 H         1 UNK         0.3086 
    132 H132      -51.5123  -25.2154   12.2773 H         1 UNK         0.0583 
    133 H133      -50.8242  -23.3775    9.9321 H         1 UNK         0.1020 
    134 H134      -51.3538  -25.0239    9.7146 H         1 UNK         0.1020 
    135 H135      -54.6983  -23.4574    8.7701 H         1 UNK         0.0694 
    136 H136      -53.0796  -23.6851    8.1625 H         1 UNK         0.0694 
    137 H137      -49.1953  -25.5001   10.6590 H         1 UNK         0.2989 
    138 H138      -47.0860  -26.8394   13.1803 H         1 UNK         0.1055 
    139 H139      -48.4425  -28.3307   10.8776 H         1 UNK         0.0806 
    140 H140      -48.4380  -28.8351   12.5604 H         1 UNK         0.0806 
    141 H141      -46.9323  -28.7826   11.6611 H         1 UNK         0.0806 
    142 H142      -46.9152  -26.4517   10.3064 H         1 UNK         0.3061 
    143 H143      -45.5273  -23.1615   10.5288 H         1 UNK         0.0734 
    144 H144      -43.7463  -24.2581    9.1965 H         1 UNK         0.0832 
    145 H145      -43.6179  -24.7339   10.8808 H         1 UNK         0.0832 
    146 H146      -44.3000  -25.8527    9.7095 H         1 UNK         0.0832 
    147 H147      -46.1108  -24.8502    8.2982 H         1 UNK         0.3156 
    148 H148      -49.5030  -23.8772    7.8420 H         1 UNK         0.0589 
    149 H149      -47.0128  -23.0710    6.2461 H         1 UNK         0.0808 
    150 H150      -48.6723  -23.0992    5.6473 H         1 UNK         0.0808 
    151 H151      -48.2082  -21.9586    6.8974 H         1 UNK         0.0808 
    152 H152      -47.8756  -25.4458    6.1741 H         1 UNK         0.3098 
    153 H153      -47.3027  -27.7483    6.6379 H         1 UNK         0.0720 
    154 H154      -49.3833  -29.1142    8.4387 H         1 UNK         0.0791 
    155 H155      -47.6550  -28.9790    8.7482 H         1 UNK         0.0791 
    156 H156      -48.2266  -29.9542    7.4085 H         1 UNK         0.0791 
    157 H157      -50.2074  -27.5734    6.1165 H         1 UNK         0.3028 
@<TRIPOS>BOND
     1    1    2 1    
     2    1   82 1    
     3    1   83 1    
     4    1   84 1    
     5    2    3 2    
     6    2    4 am   BACKBONE|DICT|INTERRES
     7    4    5 1    
     8    4   85 1    
     9    5    6 1    
    10    5   80 1    
    11    5   86 1    
    12    6    7 1    
    13    6   87 1    
    14    6   88 1    
    15    7    8 1    
    16    8    9 1    
    17    8   89 1    
    18    8   90 1    
    19    9   10 ar   
    20    9   14 ar   
    21   10   11 ar   
    22   10   91 1    
    23   11   12 ar   
    24   11   58 1    
    25   12   13 ar   
    26   12   92 1    
    27   13   14 ar   
    28   13   15 1    
    29   14   93 1    
    30   15   16 1    
    31   15   94 1    
    32   15   95 1    
    33   16   17 1    
    34   17   18 1    
    35   17   96 1    
    36   17   97 1    
    37   18   19 1    
    38   18   22 1    
    39   18   98 1    
    40   19   20 am   BACKBONE|DICT|INTERRES
    41   19   21 2    
    42   20   99 1    
    43   20  100 1    
    44   22   23 am   BACKBONE|DICT|INTERRES
    45   22  101 1    
    46   23   24 2    
    47   23   25 1    
    48   25   26 1    
    49   25   27 1    
    50   25  102 1    
    51   26  103 1    
    52   26  104 1    
    53   26  105 1    
    54   27   28 am   BACKBONE|DICT|INTERRES
    55   27  106 1    
    56   28   29 2    
    57   28   30 1    
    58   30   31 1    
    59   30   32 1    
    60   30  107 1    
    61   31  108 1    
    62   31  109 1    
    63   31  110 1    
    64   32   33 am   BACKBONE|DICT|INTERRES
    65   32  111 1    
    66   33   34 2    
    67   33   35 1    
    68   35   36 1    
    69   35   37 1    
    70   35  112 1    
    71   36  113 1    
    72   36  114 1    
    73   36  115 1    
    74   37   38 am   BACKBONE|DICT|INTERRES
    75   37  116 1    
    76   38   39 2    
    77   38   40 1    
    78   40   41 1    
    79   40   42 1    
    80   40  117 1    
    81   41  118 1    
    82   41  119 1    
    83   41  120 1    
    84   42   43 am   BACKBONE|DICT|INTERRES
    85   42  121 1    
    86   43   44 2    
    87   43   45 1    
    88   45   46 1    
    89   45   47 1    
    90   45  122 1    
    91   46  123 1    
    92   46  124 1    
    93   46  125 1    
    94   47   48 am   BACKBONE|DICT|INTERRES
    95   47  126 1    
    96   48   49 2    
    97   48   50 1    
    98   50   51 1    
    99   50   52 1    
   100   50  127 1    
   101   51  128 1    
   102   51  129 1    
   103   51  130 1    
   104   52   53 am   BACKBONE|DICT|INTERRES
   105   52  131 1    
   106   53   54 2    
   107   53   55 1    
   108   55   56 1    
   109   55   59 1    
   110   55  132 1    
   111   56   57 1    
   112   56  133 1    
   113   56  134 1    
   114   57   58 1    
   115   58  135 1    
   116   58  136 1    
   117   59   60 am   BACKBONE|DICT|INTERRES
   118   59  137 1    
   119   60   61 2    
   120   60   62 1    
   121   62   63 1    
   122   62   64 1    
   123   62  138 1    
   124   63  139 1    
   125   63  140 1    
   126   63  141 1    
   127   64   65 am   BACKBONE|DICT|INTERRES
   128   64  142 1    
   129   65   66 2    
   130   65   67 1    
   131   67   68 1    
   132   67   69 1    
   133   67  143 1    
   134   68  144 1    
   135   68  145 1    
   136   68  146 1    
   137   69   70 am   BACKBONE|DICT|INTERRES
   138   69  147 1    
   139   70   71 2    
   140   70   72 1    
   141   72   73 1    
   142   72   74 1    
   143   72  148 1    
   144   73  149 1    
   145   73  150 1    
   146   73  151 1    
   147   74   75 am   BACKBONE|DICT|INTERRES
   148   74  152 1    
   149   75   76 2    
   150   75   77 1    
   151   77   78 1    
   152   77   79 1    
   153   77  153 1    
   154   78  154 1    
   155   78  155 1    
   156   78  156 1    
   157   79   80 am   BACKBONE|DICT|INTERRES
   158   79  157 1    
   159   80   81 2    
@<TRIPOS>SUBSTRUCTURE
     1 UNK         1 GROUP             0       ****    0 ROOT    
