@<TRIPOS>MOLECULE
3R207
157   159    1
SMALL
USER_CHARGES


@<TRIPOS>ATOM
      1 CA        -48.3443  -29.6460    1.2047 C.3       0 UNK        -0.1975 
      2 C         -48.9005  -28.5925    2.1514 C.2       0 UNK         0.4852 
      3 O         -49.1061  -27.4490    1.7415 O.2       0 UNK        -0.5216 
      4 N         -49.1548  -28.9716    3.4101 N.am      1 UNK        -0.4461 
      5 CA        -49.6434  -28.0861    4.4716 C.3       1 UNK         0.0864 
      6 C6        -50.1509  -28.8844    5.6986 C.3       14 UNK        -0.0898 
      7 S7        -51.4878  -30.0666    5.3090 S.3       14 UNK        -0.2598 
      8 C8        -52.9982  -29.0625    5.4924 C.3       14 UNK         0.0286 
      9 C9        -53.1865  -28.5309    6.9069 C.ar      14 UNK        -0.0844 
     10 C10       -52.9571  -27.1800    7.1782 C.ar      14 UNK        -0.0881 
     11 C11       -53.1192  -26.6759    8.4705 C.ar      14 UNK        -0.0643 
     12 C12       -53.5191  -27.5318    9.4993 C.ar      14 UNK        -0.0930 
     13 C13       -53.7747  -28.8820    9.2371 C.ar      14 UNK        -0.0827 
     14 C14       -53.6047  -29.3772    7.9391 C.ar      14 UNK        -0.1249 
     15 C15       -54.2339  -29.7982   10.3608 C.3       14 UNK         0.0141 
     16 S16       -55.8952  -29.3359   10.9419 S.3       14 UNK        -0.2313 
     17 C17       -56.1719  -30.5347   12.2869 C.3       14 UNK        -0.0915 
     18 CA        -55.8715  -29.9289   13.6909 C.3       13 UNK         0.0968 
     19 C         -56.5146  -30.7309   14.8666 C.2       13 UNK         0.5732 
     20 N         -55.9210  -30.7616   16.0559 N.am      13 UNK        -0.7310 
     21 O         -57.5894  -31.3078   14.7166 O.2       13 UNK        -0.5035 
     22 N         -54.4476  -29.6128   13.8910 N.am      13 UNK        -0.4233 
     23 C         -53.4480  -30.5049   13.9828 C.2       13 UNK         0.4989 
     24 O         -53.5785  -31.7102   13.7666 O.2       13 UNK        -0.4996 
     25 CA        -52.0659  -29.9830   14.4210 C.3       12 UNK         0.0216 
     26 CB        -51.1229  -29.8900   13.2149 C.3       12 UNK        -0.1964 
     27 N         -52.1083  -28.6935   15.1217 N.am      12 UNK        -0.4276 
     28 C         -52.7288  -28.5018   16.2971 C.2       12 UNK         0.5020 
     29 O         -53.2642  -29.4113   16.9342 O.2       12 UNK        -0.5489 
     30 CA        -52.8289  -27.0662   16.8432 C.3       11 UNK         0.0294 
     31 CB        -51.7570  -26.8304   17.9194 C.3       11 UNK        -0.2019 
     32 N         -52.7670  -25.9977   15.8382 N.am      11 UNK        -0.4493 
     33 C         -53.5728  -25.8740   14.7700 C.2       11 UNK         0.4932 
     34 O         -54.4445  -26.6951   14.4757 O.2       11 UNK        -0.5029 
     35 CA        -53.3520  -24.6361   13.8761 C.3       10 UNK         0.0280 
     36 CB        -54.5256  -24.3623   12.9118 C.3       10 UNK        -0.1976 
     37 N         -52.9841  -23.4344   14.6327 N.am      10 UNK        -0.4242 
     38 C         -53.7186  -22.8086   15.5679 C.2       10 UNK         0.5072 
     39 O         -54.8718  -23.1309   15.8596 O.2       10 UNK        -0.5224 
     40 CA        -53.0564  -21.6220   16.3065 C.3       9 UNK         0.0343 
     41 CB        -53.6014  -21.4448   17.7403 C.3       9 UNK        -0.2003 
     42 N         -51.5864  -21.6620   16.3191 N.am      9 UNK        -0.4272 
     43 C         -50.8135  -22.6384   16.8161 C.2       9 UNK         0.4988 
     44 O         -51.2420  -23.6546   17.3640 O.2       9 UNK        -0.5108 
     45 CA        -49.2984  -22.4751   16.6187 C.3       8 UNK         0.0248 
     46 CB        -48.5971  -22.2517   17.9685 C.3       8 UNK        -0.2001 
     47 N         -48.7075  -23.6374   15.9478 N.am      8 UNK        -0.4140 
     48 C         -49.0801  -24.1117   14.7502 C.2       8 UNK         0.5028 
     49 O         -49.9691  -23.5971   14.0625 O.2       8 UNK        -0.5428 
     50 CA        -48.2975  -25.3380   14.2370 C.3       7 UNK         0.0264 
     51 CB        -48.3270  -26.5219   15.2300 C.3       7 UNK        -0.1988 
     52 N         -48.7330  -25.7452   12.8968 N.am      7 UNK        -0.4454 
     53 C         -49.8995  -26.3144   12.5527 C.2       7 UNK         0.5027 
     54 O         -50.7356  -26.7401   13.3522 O.2       7 UNK        -0.5083 
     55 CA        -50.1913  -26.3838   11.0398 C.3       6 UNK         0.0844 
     56 C56       -50.7265  -25.0010   10.5831 C.3       14 UNK        -0.0967 
     57 S57       -51.0869  -24.8544    8.8047 S.3       14 UNK        -0.2604 
     58 C58       -52.8684  -25.2024    8.7358 C.3       14 UNK         0.0134 
     59 N         -49.0246  -26.8495   10.2763 N.am      6 UNK        -0.4116 
     60 C         -48.4536  -28.0579   10.4179 C.2       5 UNK         0.5034 
     61 O         -48.8898  -28.9412   11.1536 O.2       5 UNK        -0.5045 
     62 CA        -47.1707  -28.3441    9.6244 C.3       5 UNK         0.0224 
     63 CB        -47.5086  -28.9539    8.2592 C.3       5 UNK        -0.1978 
     64 N         -46.3718  -27.1353    9.4335 N.am      5 UNK        -0.4737 
     65 C         -45.4166  -26.7214   10.2766 C.2       4 UNK         0.5027 
     66 O         -45.0467  -27.3627   11.2601 O.2       4 UNK        -0.5211 
     67 CA        -44.7653  -25.3564    9.9864 C.3       4 UNK         0.0297 
     68 CB        -43.4871  -25.5386    9.1523 C.3       4 UNK        -0.1993 
     69 N         -45.6564  -24.4138    9.3052 N.am      4 UNK        -0.4486 
     70 C         -46.7883  -23.9202    9.8247 C.2       3 UNK         0.4961 
     71 O         -47.1959  -24.1784   10.9584 O.2       3 UNK        -0.5105 
     72 CA        -47.6322  -23.0177    8.9085 C.3       3 UNK         0.0299 
     73 CB        -47.1865  -21.5537    9.0502 C.3       3 UNK        -0.1972 
     74 N         -47.6467  -23.3879    7.4850 N.am      3 UNK        -0.4305 
     75 C         -47.9357  -24.5960    6.9763 C.2       2 UNK         0.5006 
     76 O         -48.0657  -25.6135    7.6590 O.2       2 UNK        -0.5106 
     77 CA        -48.1186  -24.6466    5.4490 C.3       2 UNK         0.0296 
     78 CB        -46.7685  -24.5363    4.7086 C.3       2 UNK        -0.2002 
     79 N         -48.9127  -25.8027    5.0009 N.am      2 UNK        -0.4032 
     80 C         -48.5402  -27.0881    4.8911 C.2       1 UNK         0.5000 
     81 O         -47.4002  -27.5111    5.1024 O.2       1 UNK        -0.5238 
     82 H82       -48.2273  -30.6128    1.6939 H         1 UNK         0.0889 
     83 H83       -47.3694  -29.3355    0.8298 H         1 UNK         0.0889 
     84 H84       -49.0120  -29.7756    0.3534 H         1 UNK         0.0889 
     85 H85       -48.9584  -29.9202    3.6949 H         1 UNK         0.3028 
     86 H86       -50.4854  -27.5207    4.0664 H         1 UNK         0.0864 
     87 H87       -50.4724  -28.2136    6.4963 H         1 UNK         0.0720 
     88 H88       -49.3342  -29.4732    6.1174 H         1 UNK         0.0720 
     89 H89       -53.8601  -29.6747    5.2233 H         1 UNK         0.0814 
     90 H90       -52.9726  -28.2451    4.7702 H         1 UNK         0.0814 
     91 H91       -52.6418  -26.5157    6.3853 H         1 UNK         0.1469 
     92 H92       -53.6486  -27.1471   10.5019 H         1 UNK         0.1381 
     93 H93       -53.7935  -30.4213    7.7290 H         1 UNK         0.1206 
     94 H94       -53.5231  -29.7317   11.1830 H         1 UNK         0.0813 
     95 H95       -54.2412  -30.8399   10.0367 H         1 UNK         0.0813 
     96 H96       -57.2194  -30.8307   12.2123 H         1 UNK         0.0638 
     97 H97       -55.5950  -31.4426   12.1083 H         1 UNK         0.0638 
     98 H98       -56.3794  -28.9650   13.7363 H         1 UNK         0.0568 
     99 H99       -55.0394  -30.2885   16.2162 H         1 UNK         0.3450 
    100 H100      -56.3570  -31.2731   16.8062 H         1 UNK         0.3450 
    101 H101      -54.2550  -28.6372   14.0972 H         1 UNK         0.2987 
    102 H102      -51.6521  -30.7171   15.1154 H         1 UNK         0.0766 
    103 H103      -51.0244  -30.8547   12.7156 H         1 UNK         0.0798 
    104 H104      -50.1227  -29.5801   13.5182 H         1 UNK         0.0798 
    105 H105      -51.4833  -29.1768   12.4733 H         1 UNK         0.0798 
    106 H106      -51.6976  -27.8970   14.6387 H         1 UNK         0.3198 
    107 H107      -53.8069  -26.9872   17.3223 H         1 UNK         0.0843 
    108 H108      -51.9544  -25.9164   18.4789 H         1 UNK         0.0831 
    109 H109      -50.7587  -26.7532   17.4889 H         1 UNK         0.0831 
    110 H110      -51.7388  -27.6459   18.6440 H         1 UNK         0.0831 
    111 H111      -52.1025  -25.2552   16.0214 H         1 UNK         0.3133 
    112 H112      -52.4836  -24.8635   13.2630 H         1 UNK         0.0566 
    113 H113      -54.6967  -25.2156   12.2541 H         1 UNK         0.0814 
    114 H114      -55.4563  -24.1765   13.4485 H         1 UNK         0.0814 
    115 H115      -54.3248  -23.5002   12.2761 H         1 UNK         0.0814 
    116 H116      -52.0287  -23.1219   14.4896 H         1 UNK         0.3091 
    117 H117      -53.3294  -20.7312   15.7390 H         1 UNK         0.0702 
    118 H118      -53.1357  -20.5956   18.2401 H         1 UNK         0.0785 
    119 H119      -53.4263  -22.3312   18.3509 H         1 UNK         0.0785 
    120 H120      -54.6769  -21.2630   17.7330 H         1 UNK         0.0785 
    121 H121      -51.1302  -20.8840   15.8621 H         1 UNK         0.2998 
    122 H122      -49.1127  -21.6041   15.9869 H         1 UNK         0.0697 
    123 H123      -47.5289  -22.0765   17.8393 H         1 UNK         0.0825 
    124 H124      -49.0072  -21.3806   18.4813 H         1 UNK         0.0825 
    125 H125      -48.7205  -23.1078   18.6334 H         1 UNK         0.0825 
    126 H126      -47.9812  -24.1222   16.4538 H         1 UNK         0.3029 
    127 H127      -47.2602  -25.0198   14.1210 H         1 UNK         0.0897 
    128 H128      -47.8579  -27.4080   14.8019 H         1 UNK         0.0792 
    129 H129      -47.7862  -26.2862   16.1467 H         1 UNK         0.0792 
    130 H130      -49.3437  -26.7902   15.5167 H         1 UNK         0.0792 
    131 H131      -48.1629  -25.3685   12.1427 H         1 UNK         0.3086 
    132 H132      -50.9834  -27.1198   10.8914 H         1 UNK         0.0583 
    133 H133      -51.6266  -24.7409   11.1405 H         1 UNK         0.1020 
    134 H134      -50.0070  -24.2178   10.8283 H         1 UNK         0.1020 
    135 H135      -53.3660  -24.8748    9.6495 H         1 UNK         0.0694 
    136 H136      -53.3061  -24.6138    7.9282 H         1 UNK         0.0694 
    137 H137      -48.6511  -26.2133    9.5812 H         1 UNK         0.2989 
    138 H138      -46.5920  -29.0811   10.1863 H         1 UNK         0.1055 
    139 H139      -48.0870  -29.8720    8.3711 H         1 UNK         0.0806 
    140 H140      -48.0995  -28.2629    7.6607 H         1 UNK         0.0806 
    141 H141      -46.6083  -29.1990    7.6957 H         1 UNK         0.0806 
    142 H142      -46.6617  -26.5254    8.6741 H         1 UNK         0.3061 
    143 H143      -44.4886  -24.9159   10.9468 H         1 UNK         0.0734 
    144 H144      -42.9660  -24.5918    9.0096 H         1 UNK         0.0832 
    145 H145      -42.7918  -26.2169    9.6490 H         1 UNK         0.0832 
    146 H146      -43.7029  -25.9575    8.1685 H         1 UNK         0.0832 
    147 H147      -45.4144  -24.1542    8.3600 H         1 UNK         0.3156 
    148 H148      -48.6631  -23.0829    9.2571 H         1 UNK         0.0589 
    149 H149      -47.8577  -20.8796    8.5177 H         1 UNK         0.0808 
    150 H150      -47.1869  -21.2447   10.0968 H         1 UNK         0.0808 
    151 H151      -46.1778  -21.3989    8.6653 H         1 UNK         0.0808 
    152 H152      -47.5385  -22.6215    6.8361 H         1 UNK         0.3098 
    153 H153      -48.7147  -23.7747    5.1750 H         1 UNK         0.0720 
    154 H154      -46.2969  -23.5708    4.8942 H         1 UNK         0.0791 
    155 H155      -46.0618  -25.3023    5.0291 H         1 UNK         0.0791 
    156 H156      -46.8980  -24.6293    3.6303 H         1 UNK         0.0791 
    157 H157      -49.8826  -25.5883    4.8176 H         1 UNK         0.3028 
@<TRIPOS>BOND
     1    1    2 1    
     2    1   82 1    
     3    1   83 1    
     4    1   84 1    
     5    2    3 2    
     6    2    4 am   BACKBONE|DICT|INTERRES
     7    4    5 1    
     8    4   85 1    
     9    5    6 1    
    10    5   80 1    
    11    5   86 1    
    12    6    7 1    
    13    6   87 1    
    14    6   88 1    
    15    7    8 1    
    16    8    9 1    
    17    8   89 1    
    18    8   90 1    
    19    9   10 ar   
    20    9   14 ar   
    21   10   11 ar   
    22   10   91 1    
    23   11   12 ar   
    24   11   58 1    
    25   12   13 ar   
    26   12   92 1    
    27   13   14 ar   
    28   13   15 1    
    29   14   93 1    
    30   15   16 1    
    31   15   94 1    
    32   15   95 1    
    33   16   17 1    
    34   17   18 1    
    35   17   96 1    
    36   17   97 1    
    37   18   19 1    
    38   18   22 1    
    39   18   98 1    
    40   19   20 am   BACKBONE|DICT|INTERRES
    41   19   21 2    
    42   20   99 1    
    43   20  100 1    
    44   22   23 am   BACKBONE|DICT|INTERRES
    45   22  101 1    
    46   23   24 2    
    47   23   25 1    
    48   25   26 1    
    49   25   27 1    
    50   25  102 1    
    51   26  103 1    
    52   26  104 1    
    53   26  105 1    
    54   27   28 am   BACKBONE|DICT|INTERRES
    55   27  106 1    
    56   28   29 2    
    57   28   30 1    
    58   30   31 1    
    59   30   32 1    
    60   30  107 1    
    61   31  108 1    
    62   31  109 1    
    63   31  110 1    
    64   32   33 am   BACKBONE|DICT|INTERRES
    65   32  111 1    
    66   33   34 2    
    67   33   35 1    
    68   35   36 1    
    69   35   37 1    
    70   35  112 1    
    71   36  113 1    
    72   36  114 1    
    73   36  115 1    
    74   37   38 am   BACKBONE|DICT|INTERRES
    75   37  116 1    
    76   38   39 2    
    77   38   40 1    
    78   40   41 1    
    79   40   42 1    
    80   40  117 1    
    81   41  118 1    
    82   41  119 1    
    83   41  120 1    
    84   42   43 am   BACKBONE|DICT|INTERRES
    85   42  121 1    
    86   43   44 2    
    87   43   45 1    
    88   45   46 1    
    89   45   47 1    
    90   45  122 1    
    91   46  123 1    
    92   46  124 1    
    93   46  125 1    
    94   47   48 am   BACKBONE|DICT|INTERRES
    95   47  126 1    
    96   48   49 2    
    97   48   50 1    
    98   50   51 1    
    99   50   52 1    
   100   50  127 1    
   101   51  128 1    
   102   51  129 1    
   103   51  130 1    
   104   52   53 am   BACKBONE|DICT|INTERRES
   105   52  131 1    
   106   53   54 2    
   107   53   55 1    
   108   55   56 1    
   109   55   59 1    
   110   55  132 1    
   111   56   57 1    
   112   56  133 1    
   113   56  134 1    
   114   57   58 1    
   115   58  135 1    
   116   58  136 1    
   117   59   60 am   BACKBONE|DICT|INTERRES
   118   59  137 1    
   119   60   61 2    
   120   60   62 1    
   121   62   63 1    
   122   62   64 1    
   123   62  138 1    
   124   63  139 1    
   125   63  140 1    
   126   63  141 1    
   127   64   65 am   BACKBONE|DICT|INTERRES
   128   64  142 1    
   129   65   66 2    
   130   65   67 1    
   131   67   68 1    
   132   67   69 1    
   133   67  143 1    
   134   68  144 1    
   135   68  145 1    
   136   68  146 1    
   137   69   70 am   BACKBONE|DICT|INTERRES
   138   69  147 1    
   139   70   71 2    
   140   70   72 1    
   141   72   73 1    
   142   72   74 1    
   143   72  148 1    
   144   73  149 1    
   145   73  150 1    
   146   73  151 1    
   147   74   75 am   BACKBONE|DICT|INTERRES
   148   74  152 1    
   149   75   76 2    
   150   75   77 1    
   151   77   78 1    
   152   77   79 1    
   153   77  153 1    
   154   78  154 1    
   155   78  155 1    
   156   78  156 1    
   157   79   80 am   BACKBONE|DICT|INTERRES
   158   79  157 1    
   159   80   81 2    
@<TRIPOS>SUBSTRUCTURE
     1 UNK         1 GROUP             0       ****    0 ROOT    
