@<TRIPOS>MOLECULE
3R207
157   159    1
SMALL
USER_CHARGES


@<TRIPOS>ATOM
      1 CA        -48.3496  -26.7215    0.5414 C.3       0 UNK        -0.1975 
      2 C         -49.5346  -26.6727    1.4947 C.2       0 UNK         0.4852 
      3 O         -50.3532  -25.7571    1.4044 O.2       0 UNK        -0.5216 
      4 N         -49.6326  -27.6529    2.4040 N.am      1 UNK        -0.4461 
      5 CA        -50.6905  -27.7598    3.4167 C.3       1 UNK         0.0864 
      6 C6        -50.6689  -29.1533    4.0944 C.3       14 UNK        -0.0898 
      7 S7        -52.2165  -29.5571    4.9728 S.3       14 UNK        -0.2598 
      8 C8        -51.8355  -31.2103    5.6341 C.3       14 UNK         0.0286 
      9 C9        -51.1732  -31.1596    7.0063 C.ar      14 UNK        -0.0844 
     10 C10       -49.7934  -30.9556    7.1222 C.ar      14 UNK        -0.0881 
     11 C11       -49.1719  -30.9771    8.3743 C.ar      14 UNK        -0.0643 
     12 C12       -49.9409  -31.2310    9.5138 C.ar      14 UNK        -0.0930 
     13 C13       -51.3207  -31.4224    9.4172 C.ar      14 UNK        -0.0827 
     14 C14       -51.9343  -31.3760    8.1614 C.ar      14 UNK        -0.1249 
     15 C15       -52.1278  -31.7236   10.6717 C.3       14 UNK         0.0141 
     16 S16       -52.5543  -30.2066   11.5833 S.3       14 UNK        -0.2313 
     17 C17       -54.3703  -30.2006   11.4000 C.3       14 UNK        -0.0915 
     18 CA        -55.0814  -29.0063   12.0915 C.3       13 UNK         0.0968 
     19 C         -55.0142  -29.0701   13.6470 C.2       13 UNK         0.5732 
     20 N         -54.5215  -28.0527   14.3456 N.am      13 UNK        -0.7310 
     21 O         -55.4422  -30.0603   14.2357 O.2       13 UNK        -0.5035 
     22 N         -54.6562  -27.7255   11.5154 N.am      13 UNK        -0.4233 
     23 C         -55.4206  -26.6312   11.4437 C.2       13 UNK         0.4989 
     24 O         -56.6042  -26.5809   11.7848 O.2       13 UNK        -0.4996 
     25 CA        -54.7345  -25.3680   10.9009 C.3       12 UNK         0.0216 
     26 CB        -55.4381  -24.8483    9.6365 C.3       12 UNK        -0.1964 
     27 N         -54.6591  -24.2986   11.8983 N.am      12 UNK        -0.4276 
     28 C         -54.0378  -24.4011   13.0796 C.2       12 UNK         0.5020 
     29 O         -53.5219  -25.4390   13.5041 O.2       12 UNK        -0.5489 
     30 CA        -53.9504  -23.1286   13.9237 C.3       11 UNK         0.0294 
     31 CB        -55.1300  -23.0309   14.9050 C.3       11 UNK        -0.2019 
     32 N         -52.6973  -23.1916   14.6652 N.am      11 UNK        -0.4493 
     33 C         -51.9144  -22.1565   14.9861 C.2       11 UNK         0.4932 
     34 O         -52.1879  -20.9859   14.7144 O.2       11 UNK        -0.5029 
     35 CA        -50.6092  -22.4945   15.7368 C.3       10 UNK         0.0280 
     36 CB        -49.9802  -21.2728   16.4408 C.3       10 UNK        -0.1976 
     37 N         -50.7533  -23.6250   16.6630 N.am      10 UNK        -0.4242 
     38 C         -51.5515  -23.6892   17.7435 C.2       10 UNK         0.5072 
     39 O         -52.2651  -22.7612   18.1265 O.2       10 UNK        -0.5224 
     40 CA        -51.5911  -25.0147   18.5313 C.3       9 UNK         0.0343 
     41 CB        -52.9154  -25.7499   18.2611 C.3       9 UNK        -0.2003 
     42 N         -50.4828  -25.9211   18.2274 N.am      9 UNK        -0.4272 
     43 C         -49.1978  -25.7213   18.5545 C.2       9 UNK         0.4988 
     44 O         -48.8068  -24.7890   19.2571 O.2       9 UNK        -0.5108 
     45 CA        -48.1702  -26.7144   17.9757 C.3       8 UNK         0.0248 
     46 CB        -47.7437  -27.7317   19.0467 C.3       8 UNK        -0.2001 
     47 N         -48.6409  -27.4343   16.7839 N.am      8 UNK        -0.4140 
     48 C         -48.9513  -26.8627   15.6114 C.2       8 UNK         0.5028 
     49 O         -48.8790  -25.6505   15.3984 O.2       8 UNK        -0.5428 
     50 CA        -49.5304  -27.7904   14.5340 C.3       7 UNK         0.0264 
     51 CB        -51.0283  -27.5090   14.3443 C.3       7 UNK        -0.1988 
     52 N         -48.8526  -27.6398   13.2480 N.am      7 UNK        -0.4454 
     53 C         -47.6018  -28.0499   12.9950 C.2       7 UNK         0.5027 
     54 O         -46.8623  -28.5590   13.8392 O.2       7 UNK        -0.5083 
     55 CA        -47.1137  -27.9183   11.5378 C.3       6 UNK         0.0844 
     56 C56       -47.8085  -28.9944   10.6698 C.3       14 UNK        -0.0967 
     57 S57       -47.2414  -29.0481    8.9388 S.3       14 UNK        -0.2604 
     58 C58       -47.6668  -30.7646    8.4920 C.3       14 UNK         0.0134 
     59 N         -47.3003  -26.5606   11.0212 N.am      6 UNK        -0.4116 
     60 C         -46.6627  -25.4705   11.4751 C.2       5 UNK         0.5034 
     61 O         -45.7856  -25.4950   12.3390 O.2       5 UNK        -0.5045 
     62 CA        -47.0754  -24.1192   10.8705 C.3       5 UNK         0.0224 
     63 CB        -46.2417  -23.8008    9.6181 C.3       5 UNK        -0.1978 
     64 N         -48.5021  -24.1088   10.5393 N.am      5 UNK        -0.4737 
     65 C         -49.4643  -23.7822   11.4143 C.2       4 UNK         0.5027 
     66 O         -49.2354  -23.3058   12.5240 O.2       4 UNK        -0.5211 
     67 CA        -50.9282  -24.0185   11.0015 C.3       4 UNK         0.0297 
     68 CB        -51.5976  -22.6958   10.5960 C.3       4 UNK        -0.1993 
     69 N         -51.0872  -24.9940    9.9212 N.am      4 UNK        -0.4486 
     70 C         -50.8966  -26.3141   10.0548 C.2       3 UNK         0.4961 
     71 O         -50.6095  -26.8590   11.1186 O.2       3 UNK        -0.5105 
     72 CA        -50.9990  -27.1614    8.7749 C.3       3 UNK         0.0299 
     73 CB        -52.4340  -27.6684    8.5710 C.3       3 UNK        -0.1972 
     74 N         -50.5637  -26.4631    7.5619 N.am      3 UNK        -0.4305 
     75 C         -49.3570  -25.9193    7.3556 C.2       2 UNK         0.5006 
     76 O         -48.4840  -25.8715    8.2226 O.2       2 UNK        -0.5106 
     77 CA        -49.0946  -25.3219    5.9566 C.3       2 UNK         0.0296 
     78 CB        -47.6496  -24.8132    5.7954 C.3       2 UNK        -0.2002 
     79 N         -49.3845  -26.2802    4.8854 N.am      2 UNK        -0.4032 
     80 C         -50.6098  -26.6333    4.4686 C.2       1 UNK         0.5000 
     81 O         -51.6450  -26.1260    4.9065 O.2       1 UNK        -0.5238 
     82 H82       -48.6995  -26.7748   -0.4892 H         1 UNK         0.0889 
     83 H83       -47.7106  -27.5846    0.7270 H         1 UNK         0.0889 
     84 H84       -47.7441  -25.8220    0.6496 H         1 UNK         0.0889 
     85 H85       -48.9363  -28.3850    2.4134 H         1 UNK         0.3028 
     86 H86       -51.6436  -27.6481    2.8945 H         1 UNK         0.0864 
     87 H87       -50.5209  -29.9278    3.3398 H         1 UNK         0.0720 
     88 H88       -49.8255  -29.2329    4.7804 H         1 UNK         0.0720 
     89 H89       -51.2033  -31.7568    4.9326 H         1 UNK         0.0814 
     90 H90       -52.7663  -31.7763    5.6953 H         1 UNK         0.0814 
     91 H91       -49.1948  -30.8012    6.2364 H         1 UNK         0.1469 
     92 H92       -49.4682  -31.2835   10.4839 H         1 UNK         0.1381 
     93 H93       -53.0007  -31.5370    8.0810 H         1 UNK         0.1206 
     94 H94       -51.5506  -32.3742   11.3304 H         1 UNK         0.0813 
     95 H95       -53.0281  -32.2842   10.4160 H         1 UNK         0.0813 
     96 H96       -54.6006  -30.1921   10.3334 H         1 UNK         0.0638 
     97 H97       -54.7628  -31.1452   11.7809 H         1 UNK         0.0638 
     98 H98       -56.1423  -29.1220   11.8623 H         1 UNK         0.0568 
     99 H99       -54.1705  -27.2139   13.8917 H         1 UNK         0.3450 
    100 H100      -54.5037  -28.1191   15.3493 H         1 UNK         0.3450 
    101 H101      -53.6748  -27.6626   11.2890 H         1 UNK         0.2987 
    102 H102      -53.7103  -25.6224   10.6288 H         1 UNK         0.0766 
    103 H103      -54.8974  -24.0107    9.1956 H         1 UNK         0.0798 
    104 H104      -56.4564  -24.5189    9.8475 H         1 UNK         0.0798 
    105 H105      -55.5000  -25.6281    8.8761 H         1 UNK         0.0798 
    106 H106      -55.0975  -23.4228   11.6527 H         1 UNK         0.3198 
    107 H107      -53.9453  -22.2610   13.2600 H         1 UNK         0.0843 
    108 H108      -56.0810  -22.9878   14.3726 H         1 UNK         0.0831 
    109 H109      -55.0597  -22.1332   15.5195 H         1 UNK         0.0831 
    110 H110      -55.1675  -23.8915   15.5746 H         1 UNK         0.0831 
    111 H111      -52.3825  -24.1350   14.8554 H         1 UNK         0.3133 
    112 H112      -49.9013  -22.8285   14.9791 H         1 UNK         0.0566 
    113 H113      -49.0578  -21.5431   16.9547 H         1 UNK         0.0814 
    114 H114      -49.7317  -20.4934   15.7196 H         1 UNK         0.0814 
    115 H115      -50.6571  -20.8324   17.1734 H         1 UNK         0.0814 
    116 H116      -50.1938  -24.4385   16.4235 H         1 UNK         0.3091 
    117 H117      -51.5439  -24.7653   19.5934 H         1 UNK         0.0702 
    118 H118      -52.9963  -26.6578   18.8592 H         1 UNK         0.0785 
    119 H119      -53.0176  -26.0267   17.2107 H         1 UNK         0.0785 
    120 H120      -53.7701  -25.1210   18.5148 H         1 UNK         0.0785 
    121 H121      -50.7047  -26.7305   17.6675 H         1 UNK         0.2998 
    122 H122      -47.2918  -26.1348   17.6842 H         1 UNK         0.0697 
    123 H123      -48.5779  -28.3582   19.3652 H         1 UNK         0.0825 
    124 H124      -47.3595  -27.2262   19.9341 H         1 UNK         0.0825 
    125 H125      -46.9511  -28.3852   18.6817 H         1 UNK         0.0825 
    126 H126      -48.7357  -28.4361   16.8749 H         1 UNK         0.3029 
    127 H127      -49.4163  -28.8286   14.8535 H         1 UNK         0.0897 
    128 H128      -51.4740  -28.1907   13.6201 H         1 UNK         0.0792 
    129 H129      -51.5790  -27.6232   15.2785 H         1 UNK         0.0792 
    130 H130      -51.1951  -26.4930   13.9854 H         1 UNK         0.0792 
    131 H131      -49.4079  -27.2438   12.4913 H         1 UNK         0.3086 
    132 H132      -46.0410  -28.1230   11.5310 H         1 UNK         0.0583 
    133 H133      -47.6324  -29.9775   11.1108 H         1 UNK         0.1020 
    134 H134      -48.8899  -28.8499   10.6669 H         1 UNK         0.1020 
    135 H135      -47.1813  -31.0050    7.5450 H         1 UNK         0.0694 
    136 H136      -47.2464  -31.4530    9.2267 H         1 UNK         0.0694 
    137 H137      -47.9511  -26.4558   10.2528 H         1 UNK         0.2989 
    138 H138      -46.8688  -23.3456   11.6140 H         1 UNK         0.1055 
    139 H139      -45.1843  -23.7136    9.8712 H         1 UNK         0.0806 
    140 H140      -46.5458  -22.8562    9.1672 H         1 UNK         0.0806 
    141 H141      -46.3265  -24.5787    8.8592 H         1 UNK         0.0806 
    142 H142      -48.7575  -24.5296    9.6518 H         1 UNK         0.3061 
    143 H143      -51.4406  -24.4089   11.8819 H         1 UNK         0.0734 
    144 H144      -51.5550  -21.9739   11.4131 H         1 UNK         0.0832 
    145 H145      -51.1062  -22.2423    9.7344 H         1 UNK         0.0832 
    146 H146      -52.6487  -22.8389   10.3469 H         1 UNK         0.0832 
    147 H147      -51.3053  -24.6326    9.0041 H         1 UNK         0.3156 
    148 H148      -50.3482  -28.0289    8.8995 H         1 UNK         0.0589 
    149 H149      -53.1379  -26.8514    8.4103 H         1 UNK         0.0808 
    150 H150      -52.4958  -28.3379    7.7136 H         1 UNK         0.0808 
    151 H151      -52.7730  -28.2364    9.4352 H         1 UNK         0.0808 
    152 H152      -51.2163  -26.4427    6.7829 H         1 UNK         0.3098 
    153 H153      -49.7615  -24.4645    5.8449 H         1 UNK         0.0720 
    154 H154      -47.4914  -24.3691    4.8124 H         1 UNK         0.0791 
    155 H155      -46.9224  -25.6161    5.9241 H         1 UNK         0.0791 
    156 H156      -47.4211  -24.0450    6.5353 H         1 UNK         0.0791 
    157 H157      -48.5908  -26.7586    4.4853 H         1 UNK         0.3028 
@<TRIPOS>BOND
     1    1    2 1    
     2    1   82 1    
     3    1   83 1    
     4    1   84 1    
     5    2    3 2    
     6    2    4 am   BACKBONE|DICT|INTERRES
     7    4    5 1    
     8    4   85 1    
     9    5    6 1    
    10    5   80 1    
    11    5   86 1    
    12    6    7 1    
    13    6   87 1    
    14    6   88 1    
    15    7    8 1    
    16    8    9 1    
    17    8   89 1    
    18    8   90 1    
    19    9   10 ar   
    20    9   14 ar   
    21   10   11 ar   
    22   10   91 1    
    23   11   12 ar   
    24   11   58 1    
    25   12   13 ar   
    26   12   92 1    
    27   13   14 ar   
    28   13   15 1    
    29   14   93 1    
    30   15   16 1    
    31   15   94 1    
    32   15   95 1    
    33   16   17 1    
    34   17   18 1    
    35   17   96 1    
    36   17   97 1    
    37   18   19 1    
    38   18   22 1    
    39   18   98 1    
    40   19   20 am   BACKBONE|DICT|INTERRES
    41   19   21 2    
    42   20   99 1    
    43   20  100 1    
    44   22   23 am   BACKBONE|DICT|INTERRES
    45   22  101 1    
    46   23   24 2    
    47   23   25 1    
    48   25   26 1    
    49   25   27 1    
    50   25  102 1    
    51   26  103 1    
    52   26  104 1    
    53   26  105 1    
    54   27   28 am   BACKBONE|DICT|INTERRES
    55   27  106 1    
    56   28   29 2    
    57   28   30 1    
    58   30   31 1    
    59   30   32 1    
    60   30  107 1    
    61   31  108 1    
    62   31  109 1    
    63   31  110 1    
    64   32   33 am   BACKBONE|DICT|INTERRES
    65   32  111 1    
    66   33   34 2    
    67   33   35 1    
    68   35   36 1    
    69   35   37 1    
    70   35  112 1    
    71   36  113 1    
    72   36  114 1    
    73   36  115 1    
    74   37   38 am   BACKBONE|DICT|INTERRES
    75   37  116 1    
    76   38   39 2    
    77   38   40 1    
    78   40   41 1    
    79   40   42 1    
    80   40  117 1    
    81   41  118 1    
    82   41  119 1    
    83   41  120 1    
    84   42   43 am   BACKBONE|DICT|INTERRES
    85   42  121 1    
    86   43   44 2    
    87   43   45 1    
    88   45   46 1    
    89   45   47 1    
    90   45  122 1    
    91   46  123 1    
    92   46  124 1    
    93   46  125 1    
    94   47   48 am   BACKBONE|DICT|INTERRES
    95   47  126 1    
    96   48   49 2    
    97   48   50 1    
    98   50   51 1    
    99   50   52 1    
   100   50  127 1    
   101   51  128 1    
   102   51  129 1    
   103   51  130 1    
   104   52   53 am   BACKBONE|DICT|INTERRES
   105   52  131 1    
   106   53   54 2    
   107   53   55 1    
   108   55   56 1    
   109   55   59 1    
   110   55  132 1    
   111   56   57 1    
   112   56  133 1    
   113   56  134 1    
   114   57   58 1    
   115   58  135 1    
   116   58  136 1    
   117   59   60 am   BACKBONE|DICT|INTERRES
   118   59  137 1    
   119   60   61 2    
   120   60   62 1    
   121   62   63 1    
   122   62   64 1    
   123   62  138 1    
   124   63  139 1    
   125   63  140 1    
   126   63  141 1    
   127   64   65 am   BACKBONE|DICT|INTERRES
   128   64  142 1    
   129   65   66 2    
   130   65   67 1    
   131   67   68 1    
   132   67   69 1    
   133   67  143 1    
   134   68  144 1    
   135   68  145 1    
   136   68  146 1    
   137   69   70 am   BACKBONE|DICT|INTERRES
   138   69  147 1    
   139   70   71 2    
   140   70   72 1    
   141   72   73 1    
   142   72   74 1    
   143   72  148 1    
   144   73  149 1    
   145   73  150 1    
   146   73  151 1    
   147   74   75 am   BACKBONE|DICT|INTERRES
   148   74  152 1    
   149   75   76 2    
   150   75   77 1    
   151   77   78 1    
   152   77   79 1    
   153   77  153 1    
   154   78  154 1    
   155   78  155 1    
   156   78  156 1    
   157   79   80 am   BACKBONE|DICT|INTERRES
   158   79  157 1    
   159   80   81 2    
@<TRIPOS>SUBSTRUCTURE
     1 UNK         1 GROUP             0       ****    0 ROOT    
