@<TRIPOS>MOLECULE
3R207
157   159    1
SMALL
USER_CHARGES


@<TRIPOS>ATOM
      1 CA        -46.0494  -26.4169    4.4836 C.3       0 UNK        -0.1975 
      2 C         -47.5617  -26.5640    4.4187 C.2       0 UNK         0.4852 
      3 O         -48.2707  -25.5642    4.2931 O.2       0 UNK        -0.5216 
      4 N         -48.0703  -27.8000    4.5126 N.am      1 UNK        -0.4461 
      5 CA        -49.5035  -28.1021    4.5730 C.3       1 UNK         0.0864 
      6 C6        -49.8044  -29.6108    4.3869 C.3       14 UNK        -0.0898 
      7 S7        -48.8535  -30.7332    5.4730 S.3       14 UNK        -0.2598 
      8 C8        -50.1656  -31.7893    6.1652 C.3       14 UNK         0.0286 
      9 C9        -50.8253  -31.1555    7.3808 C.ar      14 UNK        -0.0844 
     10 C10       -50.2911  -31.3723    8.6544 C.ar      14 UNK        -0.0881 
     11 C11       -50.9000  -30.8215    9.7855 C.ar      14 UNK        -0.0643 
     12 C12       -52.0446  -30.0328    9.6341 C.ar      14 UNK        -0.0930 
     13 C13       -52.5891  -29.8098    8.3645 C.ar      14 UNK        -0.0827 
     14 C14       -51.9791  -30.3783    7.2424 C.ar      14 UNK        -0.1249 
     15 C15       -53.8362  -28.9557    8.2064 C.3       14 UNK         0.0141 
     16 S16       -55.3397  -29.9106    8.5718 S.3       14 UNK        -0.2313 
     17 C17       -56.5849  -28.5755    8.6655 C.3       14 UNK        -0.0915 
     18 CA        -57.0329  -28.2456   10.1164 C.3       13 UNK         0.0968 
     19 C         -57.9781  -29.3359   10.7046 C.2       13 UNK         0.5732 
     20 N         -57.6190  -30.0211   11.7839 N.am      13 UNK        -0.7310 
     21 O         -59.0665  -29.5528   10.1768 O.2       13 UNK        -0.5035 
     22 N         -55.8799  -27.8883   10.9580 N.am      13 UNK        -0.4233 
     23 C         -55.9303  -27.1758   12.0885 C.2       13 UNK         0.4989 
     24 O         -56.9762  -26.7363   12.5715 O.2       13 UNK        -0.4996 
     25 CA        -54.5760  -26.9652   12.7976 C.3       12 UNK         0.0216 
     26 CB        -53.5194  -26.3293   11.8656 C.3       12 UNK        -0.1964 
     27 N         -54.6837  -26.2182   14.0584 N.am      12 UNK        -0.4276 
     28 C         -55.0255  -24.9324   14.2440 C.2       12 UNK         0.5020 
     29 O         -55.2695  -24.1347   13.3372 O.2       12 UNK        -0.5489 
     30 CA        -55.1107  -24.4471   15.7059 C.3       11 UNK         0.0294 
     31 CB        -56.5678  -24.4766   16.1963 C.3       11 UNK        -0.2019 
     32 N         -54.2741  -25.2259   16.6279 N.am      11 UNK        -0.4493 
     33 C         -52.9357  -25.1656   16.6571 C.2       11 UNK         0.4932 
     34 O         -52.2807  -24.3761   15.9763 O.2       11 UNK        -0.5029 
     35 CA        -52.2203  -26.1487   17.5972 C.3       10 UNK         0.0280 
     36 CB        -52.6936  -27.6031   17.3932 C.3       10 UNK        -0.1976 
     37 N         -50.7801  -26.0796   17.3631 N.am      10 UNK        -0.4242 
     38 C         -49.8276  -26.3132   18.2722 C.2       10 UNK         0.5072 
     39 O         -50.0592  -26.6052   19.4468 O.2       10 UNK        -0.5224 
     40 CA        -48.3651  -26.2271   17.7993 C.3       9 UNK         0.0343 
     41 CB        -47.8933  -27.5929   17.2746 C.3       9 UNK        -0.2003 
     42 N         -48.1311  -25.2161   16.7669 N.am      9 UNK        -0.4272 
     43 C         -48.1986  -23.8897   16.9551 C.2       9 UNK         0.4988 
     44 O         -48.4692  -23.3611   18.0337 O.2       9 UNK        -0.5108 
     45 CA        -47.9173  -23.0041   15.7319 C.3       8 UNK         0.0248 
     46 CB        -46.4046  -22.8642   15.4898 C.3       8 UNK        -0.2001 
     47 N         -48.5623  -23.5622   14.5426 N.am      8 UNK        -0.4140 
     48 C         -49.7599  -23.1759   14.0820 C.2       8 UNK         0.5028 
     49 O         -50.3614  -22.1867   14.5037 O.2       8 UNK        -0.5428 
     50 CA        -50.4012  -24.0084   12.9549 C.3       7 UNK         0.0264 
     51 CB        -50.4594  -23.2002   11.6489 C.3       7 UNK        -0.1988 
     52 N         -49.7253  -25.2835   12.6927 N.am      7 UNK        -0.4454 
     53 C         -49.8544  -26.3882   13.4457 C.2       7 UNK         0.5027 
     54 O         -50.5604  -26.4518   14.4497 O.2       7 UNK        -0.5083 
     55 CA        -49.0244  -27.6263   13.0405 C.3       6 UNK         0.0844 
     56 C56       -49.8114  -28.4696   12.0070 C.3       14 UNK        -0.0967 
     57 S57       -48.9422  -30.0145   11.5776 S.3       14 UNK        -0.2604 
     58 C58       -50.3334  -31.1124   11.1680 C.3       14 UNK         0.0134 
     59 N         -47.6881  -27.2790   12.5488 N.am      6 UNK        -0.4116 
     60 C         -46.7965  -26.4803   13.1492 C.2       5 UNK         0.5034 
     61 O         -46.9371  -26.0393   14.2900 O.2       5 UNK        -0.5045 
     62 CA        -45.5841  -26.0254   12.3133 C.3       5 UNK         0.0224 
     63 CB        -44.3262  -26.7975   12.7407 C.3       5 UNK        -0.1978 
     64 N         -45.7457  -26.1312   10.8527 N.am      5 UNK        -0.4737 
     65 C         -46.7429  -25.6102   10.1202 C.2       4 UNK         0.5027 
     66 O         -47.6945  -24.9957   10.6095 O.2       4 UNK        -0.5211 
     67 CA        -46.6852  -25.8908    8.6057 C.3       4 UNK         0.0297 
     68 CB        -46.7345  -27.4057    8.3321 C.3       4 UNK        -0.1993 
     69 N         -47.7799  -25.2394    7.8789 N.am      4 UNK        -0.4486 
     70 C         -47.8678  -23.9176    7.6586 C.2       3 UNK         0.4961 
     71 O         -46.9709  -23.1256    7.9542 O.2       3 UNK        -0.5105 
     72 CA        -49.1484  -23.3682    6.9964 C.3       3 UNK         0.0299 
     73 CB        -48.8133  -22.4851    5.7808 C.3       3 UNK        -0.1972 
     74 N         -50.0705  -24.4267    6.5765 N.am      3 UNK        -0.4305 
     75 C         -51.1196  -24.8602    7.2934 C.2       2 UNK         0.5006 
     76 O         -51.4636  -24.3603    8.3632 O.2       2 UNK        -0.5106 
     77 CA        -51.9348  -26.0526    6.7477 C.3       2 UNK         0.0296 
     78 CB        -53.3123  -25.5843    6.2493 C.3       2 UNK        -0.2002 
     79 N         -51.2712  -26.8129    5.6837 N.am      2 UNK        -0.4032 
     80 C         -50.1356  -27.5044    5.8478 C.2       1 UNK         0.5000 
     81 O         -49.5578  -27.6047    6.9317 O.2       1 UNK        -0.5238 
     82 H82       -45.6778  -25.9557    3.5691 H         1 UNK         0.0889 
     83 H83       -45.5516  -27.3784    4.6076 H         1 UNK         0.0889 
     84 H84       -45.7734  -25.7805    5.3242 H         1 UNK         0.0889 
     85 H85       -47.4590  -28.5918    4.6533 H         1 UNK         0.3028 
     86 H86       -49.9563  -27.5903    3.7205 H         1 UNK         0.0864 
     87 H87       -50.8737  -29.7978    4.4928 H         1 UNK         0.0720 
     88 H88       -49.5683  -29.8926    3.3596 H         1 UNK         0.0720 
     89 H89       -49.7253  -32.7467    6.4481 H         1 UNK         0.0814 
     90 H90       -50.9075  -32.0196    5.3990 H         1 UNK         0.0814 
     91 H91       -49.4023  -31.9779    8.7678 H         1 UNK         0.1469 
     92 H92       -52.5203  -29.6059   10.5056 H         1 UNK         0.1381 
     93 H93       -52.4041  -30.2154    6.2620 H         1 UNK         0.1206 
     94 H94       -53.9039  -28.5648    7.1903 H         1 UNK         0.0813 
     95 H95       -53.7716  -28.0894    8.8648 H         1 UNK         0.0813 
     96 H96       -56.1819  -27.6767    8.1961 H         1 UNK         0.0638 
     97 H97       -57.4410  -28.8593    8.0506 H         1 UNK         0.0638 
     98 H98       -57.6546  -27.3507   10.0494 H         1 UNK         0.0568 
     99 H99       -58.2449  -30.7184   12.1547 H         1 UNK         0.3450 
    100 H100      -56.7305  -29.8540   12.2257 H         1 UNK         0.3450 
    101 H101      -54.9971  -28.2664   10.6539 H         1 UNK         0.2987 
    102 H102      -54.2168  -27.9568   13.0772 H         1 UNK         0.0766 
    103 H103      -52.5947  -26.1313   12.4035 H         1 UNK         0.0798 
    104 H104      -53.8639  -25.3854   11.4415 H         1 UNK         0.0798 
    105 H105      -53.2645  -26.9849   11.0335 H         1 UNK         0.0798 
    106 H106      -54.5356  -26.7659   14.8930 H         1 UNK         0.3198 
    107 H107      -54.7664  -23.4104   15.7253 H         1 UNK         0.0843 
    108 H108      -56.9716  -25.4898   16.2067 H         1 UNK         0.0831 
    109 H109      -57.2084  -23.8796   15.5455 H         1 UNK         0.0831 
    110 H110      -56.6584  -24.0657   17.2020 H         1 UNK         0.0831 
    111 H111      -54.7495  -25.8688   17.2452 H         1 UNK         0.3133 
    112 H112      -52.4379  -25.8350   18.6201 H         1 UNK         0.0566 
    113 H113      -52.1471  -28.2904   18.0393 H         1 UNK         0.0814 
    114 H114      -53.7506  -27.7236   17.6309 H         1 UNK         0.0814 
    115 H115      -52.5441  -27.9298   16.3630 H         1 UNK         0.0814 
    116 H116      -50.5235  -25.8392   16.4091 H         1 UNK         0.3091 
    117 H117      -47.7539  -25.9654   18.6657 H         1 UNK         0.0702 
    118 H118      -46.8383  -27.5705   17.0003 H         1 UNK         0.0785 
    119 H119      -48.4607  -27.9032   16.3963 H         1 UNK         0.0785 
    120 H120      -48.0155  -28.3670   18.0335 H         1 UNK         0.0785 
    121 H121      -47.8288  -25.5617   15.8601 H         1 UNK         0.2998 
    122 H122      -48.3123  -22.0078   15.9417 H         1 UNK         0.0697 
    123 H123      -45.9236  -23.8263   15.3130 H         1 UNK         0.0825 
    124 H124      -45.9153  -22.4122   16.3535 H         1 UNK         0.0825 
    125 H125      -46.1996  -22.2251   14.6309 H         1 UNK         0.0825 
    126 H126      -48.1329  -24.3878   14.1436 H         1 UNK         0.3029 
    127 H127      -51.4260  -24.2184   13.2691 H         1 UNK         0.0897 
    128 H128      -50.9916  -23.7495   10.8733 H         1 UNK         0.0792 
    129 H129      -50.9857  -22.2558   11.7930 H         1 UNK         0.0792 
    130 H130      -49.4628  -22.9668   11.2720 H         1 UNK         0.0792 
    131 H131      -49.0813  -25.2924   11.9031 H         1 UNK         0.3086 
    132 H132      -48.8835  -28.2279   13.9404 H         1 UNK         0.0583 
    133 H133      -50.7980  -28.7186   12.4032 H         1 UNK         0.1020 
    134 H134      -49.9841  -27.9051   11.0878 H         1 UNK         0.1020 
    135 H135      -49.9818  -32.1446   11.2034 H         1 UNK         0.0694 
    136 H136      -51.1096  -31.0353   11.9310 H         1 UNK         0.0694 
    137 H137      -47.4708  -27.6013   11.6179 H         1 UNK         0.2989 
    138 H138      -45.4314  -24.9685   12.5417 H         1 UNK         0.1055 
    139 H139      -44.1639  -26.7162   13.8168 H         1 UNK         0.0806 
    140 H140      -43.4334  -26.4064   12.2524 H         1 UNK         0.0806 
    141 H141      -44.4037  -27.8591   12.5026 H         1 UNK         0.0806 
    142 H142      -45.0140  -26.6300   10.3662 H         1 UNK         0.3061 
    143 H143      -45.7401  -25.4978    8.2254 H         1 UNK         0.0734 
    144 H144      -46.7469  -27.6183    7.2637 H         1 UNK         0.0832 
    145 H145      -45.8656  -27.9189    8.7448 H         1 UNK         0.0832 
    146 H146      -47.6218  -27.8658    8.7700 H         1 UNK         0.0832 
    147 H147      -48.5609  -25.8334    7.6237 H         1 UNK         0.3156 
    148 H148      -49.6346  -22.7317    7.7385 H         1 UNK         0.0589 
    149 H149      -48.2558  -23.0334    5.0214 H         1 UNK         0.0808 
    150 H150      -49.7167  -22.0908    5.3153 H         1 UNK         0.0808 
    151 H151      -48.2039  -21.6295    6.0744 H         1 UNK         0.0808 
    152 H152      -49.8259  -24.9025    5.7154 H         1 UNK         0.3098 
    153 H153      -52.0870  -26.7323    7.5879 H         1 UNK         0.0720 
    154 H154      -53.8585  -25.0679    7.0401 H         1 UNK         0.0791 
    155 H155      -53.9297  -26.4232    5.9282 H         1 UNK         0.0791 
    156 H156      -53.2230  -24.8925    5.4108 H         1 UNK         0.0791 
    157 H157      -51.6795  -26.7484    4.7620 H         1 UNK         0.3028 
@<TRIPOS>BOND
     1    1    2 1    
     2    1   82 1    
     3    1   83 1    
     4    1   84 1    
     5    2    3 2    
     6    2    4 am   BACKBONE|DICT|INTERRES
     7    4    5 1    
     8    4   85 1    
     9    5    6 1    
    10    5   80 1    
    11    5   86 1    
    12    6    7 1    
    13    6   87 1    
    14    6   88 1    
    15    7    8 1    
    16    8    9 1    
    17    8   89 1    
    18    8   90 1    
    19    9   10 ar   
    20    9   14 ar   
    21   10   11 ar   
    22   10   91 1    
    23   11   12 ar   
    24   11   58 1    
    25   12   13 ar   
    26   12   92 1    
    27   13   14 ar   
    28   13   15 1    
    29   14   93 1    
    30   15   16 1    
    31   15   94 1    
    32   15   95 1    
    33   16   17 1    
    34   17   18 1    
    35   17   96 1    
    36   17   97 1    
    37   18   19 1    
    38   18   22 1    
    39   18   98 1    
    40   19   20 am   BACKBONE|DICT|INTERRES
    41   19   21 2    
    42   20   99 1    
    43   20  100 1    
    44   22   23 am   BACKBONE|DICT|INTERRES
    45   22  101 1    
    46   23   24 2    
    47   23   25 1    
    48   25   26 1    
    49   25   27 1    
    50   25  102 1    
    51   26  103 1    
    52   26  104 1    
    53   26  105 1    
    54   27   28 am   BACKBONE|DICT|INTERRES
    55   27  106 1    
    56   28   29 2    
    57   28   30 1    
    58   30   31 1    
    59   30   32 1    
    60   30  107 1    
    61   31  108 1    
    62   31  109 1    
    63   31  110 1    
    64   32   33 am   BACKBONE|DICT|INTERRES
    65   32  111 1    
    66   33   34 2    
    67   33   35 1    
    68   35   36 1    
    69   35   37 1    
    70   35  112 1    
    71   36  113 1    
    72   36  114 1    
    73   36  115 1    
    74   37   38 am   BACKBONE|DICT|INTERRES
    75   37  116 1    
    76   38   39 2    
    77   38   40 1    
    78   40   41 1    
    79   40   42 1    
    80   40  117 1    
    81   41  118 1    
    82   41  119 1    
    83   41  120 1    
    84   42   43 am   BACKBONE|DICT|INTERRES
    85   42  121 1    
    86   43   44 2    
    87   43   45 1    
    88   45   46 1    
    89   45   47 1    
    90   45  122 1    
    91   46  123 1    
    92   46  124 1    
    93   46  125 1    
    94   47   48 am   BACKBONE|DICT|INTERRES
    95   47  126 1    
    96   48   49 2    
    97   48   50 1    
    98   50   51 1    
    99   50   52 1    
   100   50  127 1    
   101   51  128 1    
   102   51  129 1    
   103   51  130 1    
   104   52   53 am   BACKBONE|DICT|INTERRES
   105   52  131 1    
   106   53   54 2    
   107   53   55 1    
   108   55   56 1    
   109   55   59 1    
   110   55  132 1    
   111   56   57 1    
   112   56  133 1    
   113   56  134 1    
   114   57   58 1    
   115   58  135 1    
   116   58  136 1    
   117   59   60 am   BACKBONE|DICT|INTERRES
   118   59  137 1    
   119   60   61 2    
   120   60   62 1    
   121   62   63 1    
   122   62   64 1    
   123   62  138 1    
   124   63  139 1    
   125   63  140 1    
   126   63  141 1    
   127   64   65 am   BACKBONE|DICT|INTERRES
   128   64  142 1    
   129   65   66 2    
   130   65   67 1    
   131   67   68 1    
   132   67   69 1    
   133   67  143 1    
   134   68  144 1    
   135   68  145 1    
   136   68  146 1    
   137   69   70 am   BACKBONE|DICT|INTERRES
   138   69  147 1    
   139   70   71 2    
   140   70   72 1    
   141   72   73 1    
   142   72   74 1    
   143   72  148 1    
   144   73  149 1    
   145   73  150 1    
   146   73  151 1    
   147   74   75 am   BACKBONE|DICT|INTERRES
   148   74  152 1    
   149   75   76 2    
   150   75   77 1    
   151   77   78 1    
   152   77   79 1    
   153   77  153 1    
   154   78  154 1    
   155   78  155 1    
   156   78  156 1    
   157   79   80 am   BACKBONE|DICT|INTERRES
   158   79  157 1    
   159   80   81 2    
@<TRIPOS>SUBSTRUCTURE
     1 UNK         1 GROUP             0       ****    0 ROOT    
