@<TRIPOS>MOLECULE
3R207
157   159    1
SMALL
USER_CHARGES


@<TRIPOS>ATOM
      1 CA        -49.0885  -32.0585    9.7998 C.3       0 UNK        -0.1975 
      2 C         -50.3176  -31.2672    9.3586 C.2       0 UNK         0.4852 
      3 O         -51.2352  -31.1057   10.1569 O.2       0 UNK        -0.5216 
      4 N         -50.3825  -30.7584    8.1164 N.am      1 UNK        -0.4461 
      5 CA        -49.3425  -30.8377    7.0787 C.3       1 UNK         0.0864 
      6 C6        -49.9373  -30.8179    5.6429 C.3       14 UNK        -0.0898 
      7 S7        -50.4475  -29.1886    4.9868 S.3       14 UNK        -0.2598 
      8 C8        -52.2661  -29.2948    5.0377 C.3       14 UNK         0.0286 
      9 C9        -52.7833  -29.0797    6.4494 C.ar      14 UNK        -0.0844 
     10 C10       -52.5702  -27.8511    7.0766 C.ar      14 UNK        -0.0881 
     11 C11       -52.9637  -27.6579    8.3989 C.ar      14 UNK        -0.0643 
     12 C12       -53.5952  -28.6933    9.0900 C.ar      14 UNK        -0.0930 
     13 C13       -53.8672  -29.9153    8.4601 C.ar      14 UNK        -0.0827 
     14 C14       -53.4484  -30.1000    7.1371 C.ar      14 UNK        -0.1249 
     15 C15       -54.5497  -31.0800    9.1824 C.3       14 UNK         0.0141 
     16 S16       -55.4376  -30.6553   10.7242 S.3       14 UNK        -0.2313 
     17 C17       -56.9650  -29.8731   10.0954 C.3       14 UNK        -0.0915 
     18 CA        -56.9615  -28.3154   10.1623 C.3       13 UNK         0.0968 
     19 C         -58.2693  -27.6895    9.5887 C.2       13 UNK         0.5732 
     20 N         -58.7301  -26.5485   10.0878 N.am      13 UNK        -0.7310 
     21 O         -58.8625  -28.2240    8.6543 O.2       13 UNK        -0.5035 
     22 N         -56.5455  -27.7824   11.4731 N.am      13 UNK        -0.4233 
     23 C         -57.1673  -27.9511   12.6460 C.2       13 UNK         0.4989 
     24 O         -58.2160  -28.5832   12.7855 O.2       13 UNK        -0.4996 
     25 CA        -56.4861  -27.3031   13.8707 C.3       12 UNK         0.0216 
     26 CB        -57.3193  -27.4467   15.1586 C.3       12 UNK        -0.1964 
     27 N         -55.1426  -27.8384   14.1162 N.am      12 UNK        -0.4276 
     28 C         -54.0496  -27.5637   13.3943 C.2       12 UNK         0.5020 
     29 O         -54.0456  -26.7965   12.4290 O.2       12 UNK        -0.5489 
     30 CA        -52.7467  -28.2331   13.8499 C.3       11 UNK         0.0294 
     31 CB        -51.7934  -28.5157   12.6771 C.3       11 UNK        -0.2019 
     32 N         -52.0713  -27.3676   14.8117 N.am      11 UNK        -0.4493 
     33 C         -52.2760  -27.3820   16.1346 C.2       11 UNK         0.4932 
     34 O         -53.0802  -28.1308   16.6931 O.2       11 UNK        -0.5029 
     35 CA        -51.4211  -26.3976   16.9571 C.3       10 UNK         0.0280 
     36 CB        -51.4708  -26.6611   18.4771 C.3       10 UNK        -0.1976 
     37 N         -50.0393  -26.3351   16.4642 N.am      10 UNK        -0.4242 
     38 C         -49.1268  -27.3200   16.4470 C.2       10 UNK         0.5072 
     39 O         -49.2882  -28.4237   16.9690 O.2       10 UNK        -0.5224 
     40 CA        -47.8129  -27.0442   15.6899 C.3       9 UNK         0.0343 
     41 CB        -47.8535  -27.7052   14.3014 C.3       9 UNK        -0.2003 
     42 N         -47.5072  -25.6202   15.5274 N.am      9 UNK        -0.4272 
     43 C         -47.1358  -24.7964   16.5183 C.2       9 UNK         0.4988 
     44 O         -46.9852  -25.1508   17.6878 O.2       9 UNK        -0.5108 
     45 CA        -46.9099  -23.3248   16.1405 C.3       8 UNK         0.0248 
     46 CB        -45.5103  -23.1244   15.5350 C.3       8 UNK        -0.2001 
     47 N         -47.9277  -22.8525   15.1998 N.am      8 UNK        -0.4140 
     48 C         -49.1521  -22.4368   15.5545 C.2       8 UNK         0.5028 
     49 O         -49.5336  -22.3468   16.7216 O.2       8 UNK        -0.5428 
     50 CA        -50.1251  -22.0689   14.4187 C.3       7 UNK         0.0264 
     51 CB        -49.9994  -20.5788   14.0631 C.3       7 UNK        -0.1988 
     52 N         -49.9383  -22.8732   13.2080 N.am      7 UNK        -0.4454 
     53 C         -50.1895  -24.1882   13.1272 C.2       7 UNK         0.5027 
     54 O         -50.6471  -24.8556   14.0554 O.2       7 UNK        -0.5083 
     55 CA        -49.8374  -24.9009   11.8062 C.3       6 UNK         0.0844 
     56 C56       -51.0776  -24.9463   10.8852 C.3       14 UNK        -0.0967 
     57 S57       -50.9642  -26.3026    9.6816 S.3       14 UNK        -0.2604 
     58 C58       -52.6780  -26.3400    9.0898 C.3       14 UNK         0.0134 
     59 N         -48.6485  -24.3502   11.1346 N.am      6 UNK        -0.4116 
     60 C         -47.4330  -24.2386   11.6979 C.2       5 UNK         0.5034 
     61 O         -47.1935  -24.6051   12.8492 O.2       5 UNK        -0.5045 
     62 CA        -46.2975  -23.5835   10.8906 C.3       5 UNK         0.0224 
     63 CB        -45.0380  -24.4664   10.8510 C.3       5 UNK        -0.1978 
     64 N         -46.6815  -23.2234    9.5242 N.am      5 UNK        -0.4737 
     65 C         -47.2212  -22.0470    9.1751 C.2       4 UNK         0.5027 
     66 O         -47.4605  -21.1456    9.9785 O.2       4 UNK        -0.5211 
     67 CA        -47.5652  -21.8362    7.6882 C.3       4 UNK         0.0297 
     68 CB        -46.4410  -21.0598    6.9841 C.3       4 UNK        -0.1993 
     69 N         -47.8212  -23.0814    6.9587 N.am      4 UNK        -0.4486 
     70 C         -48.8466  -23.9083    7.2010 C.2       3 UNK         0.4961 
     71 O         -49.7069  -23.6828    8.0512 O.2       3 UNK        -0.5105 
     72 CA        -48.9150  -25.2146    6.3848 C.3       3 UNK         0.0299 
     73 CB        -48.0649  -25.1966    5.0946 C.3       3 UNK        -0.1972 
     74 N         -48.5795  -26.3903    7.1956 N.am      3 UNK        -0.4305 
     75 C         -47.4655  -26.5968    7.9172 C.2       2 UNK         0.5006 
     76 O         -46.5436  -25.7836    8.0001 O.2       2 UNK        -0.5106 
     77 CA        -47.3428  -27.9331    8.6733 C.3       2 UNK         0.0296 
     78 CB        -47.4367  -27.7328   10.1958 C.3       2 UNK        -0.2002 
     79 N         -48.3502  -28.9167    8.2710 N.am      2 UNK        -0.4032 
     80 C         -48.1971  -29.8178    7.2889 C.2       1 UNK         0.5000 
     81 O         -47.1897  -29.8903    6.5832 O.2       1 UNK        -0.5238 
     82 H82       -48.9822  -32.9694    9.2115 H         1 UNK         0.0889 
     83 H83       -49.1833  -32.3527   10.8450 H         1 UNK         0.0889 
     84 H84       -48.1777  -31.4684    9.7092 H         1 UNK         0.0889 
     85 H85       -51.2177  -30.2492    7.8521 H         1 UNK         0.3028 
     86 H86       -48.8686  -31.8160    7.1731 H         1 UNK         0.0864 
     87 H87       -49.1927  -31.2101    4.9479 H         1 UNK         0.0720 
     88 H88       -50.7742  -31.5151    5.5801 H         1 UNK         0.0720 
     89 H89       -52.5967  -30.2518    4.6309 H         1 UNK         0.0814 
     90 H90       -52.6829  -28.5248    4.3869 H         1 UNK         0.0814 
     91 H91       -52.0625  -27.0561    6.5472 H         1 UNK         0.1469 
     92 H92       -53.8640  -28.5361   10.1243 H         1 UNK         0.1381 
     93 H93       -53.6208  -31.0503    6.6498 H         1 UNK         0.1206 
     94 H94       -53.7826  -31.8139    9.4315 H         1 UNK         0.0813 
     95 H95       -55.2411  -31.5825    8.5044 H         1 UNK         0.0813 
     96 H96       -57.7999  -30.2709   10.6741 H         1 UNK         0.0638 
     97 H97       -57.1294  -30.2075    9.0698 H         1 UNK         0.0638 
     98 H98       -56.1960  -27.9725    9.4682 H         1 UNK         0.0568 
     99 H99       -59.5702  -26.1459    9.7036 H         1 UNK         0.3450 
    100 H100      -58.2491  -26.0896   10.8441 H         1 UNK         0.3450 
    101 H101      -55.6662  -27.2731   11.4917 H         1 UNK         0.2987 
    102 H102      -56.3950  -26.2360   13.6566 H         1 UNK         0.0766 
    103 H103      -56.8528  -26.9237   15.9937 H         1 UNK         0.0798 
    104 H104      -57.4451  -28.4918   15.4449 H         1 UNK         0.0798 
    105 H105      -58.3157  -27.0215   15.0295 H         1 UNK         0.0798 
    106 H106      -55.0452  -28.4629   14.9054 H         1 UNK         0.3198 
    107 H107      -52.9890  -29.1914   14.3152 H         1 UNK         0.0843 
    108 H108      -52.2775  -29.1309   11.9174 H         1 UNK         0.0831 
    109 H109      -50.9035  -29.0512   13.0076 H         1 UNK         0.0831 
    110 H110      -51.4684  -27.5966   12.1944 H         1 UNK         0.0831 
    111 H111      -51.4700  -26.6416   14.4341 H         1 UNK         0.3133 
    112 H112      -51.8462  -25.4081   16.7823 H         1 UNK         0.0566 
    113 H113      -50.8536  -25.9477   19.0232 H         1 UNK         0.0814 
    114 H114      -52.4893  -26.5646   18.8549 H         1 UNK         0.0814 
    115 H115      -51.1273  -27.6647   18.7288 H         1 UNK         0.0814 
    116 H116      -49.8202  -25.5024   15.9308 H         1 UNK         0.3091 
    117 H117      -47.0018  -27.4990   16.2623 H         1 UNK         0.0702 
    118 H118      -46.9257  -27.5409   13.7526 H         1 UNK         0.0785 
    119 H119      -48.6734  -27.3188   13.6969 H         1 UNK         0.0785 
    120 H120      -47.9944  -28.7835   14.3865 H         1 UNK         0.0785 
    121 H121      -47.5330  -25.2538   14.5788 H         1 UNK         0.2998 
    122 H122      -46.9682  -22.7297   17.0546 H         1 UNK         0.0697 
    123 H123      -45.3736  -23.6991   14.6183 H         1 UNK         0.0825 
    124 H124      -44.7361  -23.4418   16.2349 H         1 UNK         0.0825 
    125 H125      -45.3256  -22.0754   15.3032 H         1 UNK         0.0825 
    126 H126      -47.7143  -22.9537   14.2167 H         1 UNK         0.3029 
    127 H127      -51.1380  -22.2482   14.7869 H         1 UNK         0.0897 
    128 H128      -50.7440  -20.2827   13.3239 H         1 UNK         0.0792 
    129 H129      -50.1541  -19.9535   14.9438 H         1 UNK         0.0792 
    130 H130      -49.0135  -20.3391   13.6625 H         1 UNK         0.0792 
    131 H131      -49.5715  -22.3995   12.3945 H         1 UNK         0.3086 
    132 H132      -49.5867  -25.9249   12.0853 H         1 UNK         0.0583 
    133 H133      -51.9882  -25.1091   11.4674 H         1 UNK         0.1020 
    134 H134      -51.2164  -24.0002   10.3586 H         1 UNK         0.1020 
    135 H135      -53.3685  -26.1994    9.9218 H         1 UNK         0.0694 
    136 H136      -52.8425  -25.5071    8.4045 H         1 UNK         0.0694 
    137 H137      -48.7765  -24.0414   10.1791 H         1 UNK         0.2989 
    138 H138      -46.0318  -22.6759   11.4374 H         1 UNK         0.1055 
    139 H139      -44.7384  -24.7795   11.8523 H         1 UNK         0.0806 
    140 H140      -44.1956  -23.9241   10.4214 H         1 UNK         0.0806 
    141 H141      -45.1844  -25.3663   10.2563 H         1 UNK         0.0806 
    142 H142      -46.5554  -23.9414    8.8150 H         1 UNK         0.3061 
    143 H143      -48.4749  -21.2331    7.6475 H         1 UNK         0.0734 
    144 H144      -46.2470  -20.1120    7.4884 H         1 UNK         0.0832 
    145 H145      -45.5057  -21.6211    6.9762 H         1 UNK         0.0832 
    146 H146      -46.7037  -20.8266    5.9520 H         1 UNK         0.0832 
    147 H147      -47.1395  -23.3568    6.2664 H         1 UNK         0.3156 
    148 H148      -49.9586  -25.3326    6.0892 H         1 UNK         0.0589 
    149 H149      -46.9947  -25.1616    5.3009 H         1 UNK         0.0808 
    150 H150      -48.2510  -26.0901    4.4980 H         1 UNK         0.0808 
    151 H151      -48.3145  -24.3392    4.4680 H         1 UNK         0.0808 
    152 H152      -49.2914  -27.1048    7.2321 H         1 UNK         0.3098 
    153 H153      -46.3486  -28.3288    8.4546 H         1 UNK         0.0720 
    154 H154      -46.6714  -27.0467   10.5537 H         1 UNK         0.0791 
    155 H155      -47.2923  -28.6733   10.7277 H         1 UNK         0.0791 
    156 H156      -48.4015  -27.3287   10.4956 H         1 UNK         0.0791 
    157 H157      -49.2162  -28.9217    8.7925 H         1 UNK         0.3028 
@<TRIPOS>BOND
     1    1    2 1    
     2    1   82 1    
     3    1   83 1    
     4    1   84 1    
     5    2    3 2    
     6    2    4 am   BACKBONE|DICT|INTERRES
     7    4    5 1    
     8    4   85 1    
     9    5    6 1    
    10    5   80 1    
    11    5   86 1    
    12    6    7 1    
    13    6   87 1    
    14    6   88 1    
    15    7    8 1    
    16    8    9 1    
    17    8   89 1    
    18    8   90 1    
    19    9   10 ar   
    20    9   14 ar   
    21   10   11 ar   
    22   10   91 1    
    23   11   12 ar   
    24   11   58 1    
    25   12   13 ar   
    26   12   92 1    
    27   13   14 ar   
    28   13   15 1    
    29   14   93 1    
    30   15   16 1    
    31   15   94 1    
    32   15   95 1    
    33   16   17 1    
    34   17   18 1    
    35   17   96 1    
    36   17   97 1    
    37   18   19 1    
    38   18   22 1    
    39   18   98 1    
    40   19   20 am   BACKBONE|DICT|INTERRES
    41   19   21 2    
    42   20   99 1    
    43   20  100 1    
    44   22   23 am   BACKBONE|DICT|INTERRES
    45   22  101 1    
    46   23   24 2    
    47   23   25 1    
    48   25   26 1    
    49   25   27 1    
    50   25  102 1    
    51   26  103 1    
    52   26  104 1    
    53   26  105 1    
    54   27   28 am   BACKBONE|DICT|INTERRES
    55   27  106 1    
    56   28   29 2    
    57   28   30 1    
    58   30   31 1    
    59   30   32 1    
    60   30  107 1    
    61   31  108 1    
    62   31  109 1    
    63   31  110 1    
    64   32   33 am   BACKBONE|DICT|INTERRES
    65   32  111 1    
    66   33   34 2    
    67   33   35 1    
    68   35   36 1    
    69   35   37 1    
    70   35  112 1    
    71   36  113 1    
    72   36  114 1    
    73   36  115 1    
    74   37   38 am   BACKBONE|DICT|INTERRES
    75   37  116 1    
    76   38   39 2    
    77   38   40 1    
    78   40   41 1    
    79   40   42 1    
    80   40  117 1    
    81   41  118 1    
    82   41  119 1    
    83   41  120 1    
    84   42   43 am   BACKBONE|DICT|INTERRES
    85   42  121 1    
    86   43   44 2    
    87   43   45 1    
    88   45   46 1    
    89   45   47 1    
    90   45  122 1    
    91   46  123 1    
    92   46  124 1    
    93   46  125 1    
    94   47   48 am   BACKBONE|DICT|INTERRES
    95   47  126 1    
    96   48   49 2    
    97   48   50 1    
    98   50   51 1    
    99   50   52 1    
   100   50  127 1    
   101   51  128 1    
   102   51  129 1    
   103   51  130 1    
   104   52   53 am   BACKBONE|DICT|INTERRES
   105   52  131 1    
   106   53   54 2    
   107   53   55 1    
   108   55   56 1    
   109   55   59 1    
   110   55  132 1    
   111   56   57 1    
   112   56  133 1    
   113   56  134 1    
   114   57   58 1    
   115   58  135 1    
   116   58  136 1    
   117   59   60 am   BACKBONE|DICT|INTERRES
   118   59  137 1    
   119   60   61 2    
   120   60   62 1    
   121   62   63 1    
   122   62   64 1    
   123   62  138 1    
   124   63  139 1    
   125   63  140 1    
   126   63  141 1    
   127   64   65 am   BACKBONE|DICT|INTERRES
   128   64  142 1    
   129   65   66 2    
   130   65   67 1    
   131   67   68 1    
   132   67   69 1    
   133   67  143 1    
   134   68  144 1    
   135   68  145 1    
   136   68  146 1    
   137   69   70 am   BACKBONE|DICT|INTERRES
   138   69  147 1    
   139   70   71 2    
   140   70   72 1    
   141   72   73 1    
   142   72   74 1    
   143   72  148 1    
   144   73  149 1    
   145   73  150 1    
   146   73  151 1    
   147   74   75 am   BACKBONE|DICT|INTERRES
   148   74  152 1    
   149   75   76 2    
   150   75   77 1    
   151   77   78 1    
   152   77   79 1    
   153   77  153 1    
   154   78  154 1    
   155   78  155 1    
   156   78  156 1    
   157   79   80 am   BACKBONE|DICT|INTERRES
   158   79  157 1    
   159   80   81 2    
@<TRIPOS>SUBSTRUCTURE
     1 UNK         1 GROUP             0       ****    0 ROOT    
