@<TRIPOS>MOLECULE
3R207
157   159    1
SMALL
USER_CHARGES


@<TRIPOS>ATOM
      1 CA        -52.6988  -28.4024    2.6728 C.3       0 UNK        -0.1975 
      2 C         -51.6057  -29.0591    3.5035 C.2       0 UNK         0.4852 
      3 O         -50.6789  -29.6383    2.9369 O.2       0 UNK        -0.5216 
      4 N         -51.7210  -28.9716    4.8357 N.am      1 UNK        -0.4461 
      5 CA        -50.7911  -29.5017    5.8380 C.3       1 UNK         0.0864 
      6 C6        -50.7088  -31.0560    5.8395 C.3       14 UNK        -0.0898 
      7 S7        -50.1424  -31.7290    7.4434 S.3       14 UNK        -0.2598 
      8 C8        -51.7138  -32.0538    8.3158 C.3       14 UNK         0.0286 
      9 C9        -52.5346  -30.7829    8.4734 C.ar      14 UNK        -0.0844 
     10 C10       -52.1018  -29.7681    9.3316 C.ar      14 UNK        -0.0881 
     11 C11       -52.7790  -28.5473    9.3812 C.ar      14 UNK        -0.0643 
     12 C12       -53.9203  -28.3585    8.5929 C.ar      14 UNK        -0.0930 
     13 C13       -54.3907  -29.3855    7.7682 C.ar      14 UNK        -0.0827 
     14 C14       -53.6890  -30.5928    7.7094 C.ar      14 UNK        -0.1249 
     15 C15       -55.6321  -29.1859    6.9063 C.3       14 UNK         0.0141 
     16 S16       -57.1831  -29.1882    7.8676 S.3       14 UNK        -0.2313 
     17 C17       -57.1448  -30.8175    8.7003 C.3       14 UNK        -0.0915 
     18 CA        -57.1985  -30.7118   10.2503 C.3       13 UNK         0.0968 
     19 C         -57.1013  -32.1165   10.9122 C.2       13 UNK         0.5732 
     20 N         -56.0864  -32.4056   11.7178 N.am      13 UNK        -0.7310 
     21 O         -57.9702  -32.9579   10.6952 O.2       13 UNK        -0.5035 
     22 N         -56.2474  -29.7131   10.7622 N.am      13 UNK        -0.4233 
     23 C         -56.3511  -29.0818   11.9361 C.2       13 UNK         0.4989 
     24 O         -57.1966  -29.3336   12.7984 O.2       13 UNK        -0.4996 
     25 CA        -55.3666  -27.9315   12.1505 C.3       12 UNK         0.0216 
     26 CB        -55.8342  -26.6676   11.4010 C.3       12 UNK        -0.1964 
     27 N         -55.2302  -27.6380   13.5733 N.am      12 UNK        -0.4276 
     28 C         -54.1621  -27.0533   14.1238 C.2       12 UNK         0.5020 
     29 O         -53.1573  -26.7175   13.4895 O.2       12 UNK        -0.5489 
     30 CA        -54.2155  -26.8048   15.6349 C.3       11 UNK         0.0294 
     31 CB        -53.9647  -28.1030   16.4244 C.3       11 UNK        -0.2019 
     32 N         -53.1868  -25.8242   15.9608 N.am      11 UNK        -0.4493 
     33 C         -53.1743  -25.0030   17.0153 C.2       11 UNK         0.4932 
     34 O         -54.0670  -24.9635   17.8641 O.2       11 UNK        -0.5029 
     35 CA        -51.9419  -24.0843   17.1324 C.3       10 UNK         0.0280 
     36 CB        -51.8415  -23.3591   18.4910 C.3       10 UNK        -0.1976 
     37 N         -50.6986  -24.7963   16.8155 N.am      10 UNK        -0.4242 
     38 C         -50.1765  -25.8523   17.4592 C.2       10 UNK         0.5072 
     39 O         -50.6408  -26.3398   18.4908 O.2       10 UNK        -0.5224 
     40 CA        -48.9254  -26.4912   16.8330 C.3       9 UNK         0.0343 
     41 CB        -49.3368  -27.5689   15.8161 C.3       9 UNK        -0.2003 
     42 N         -48.0383  -25.5190   16.1878 N.am      9 UNK        -0.4272 
     43 C         -47.3258  -24.5912   16.8450 C.2       9 UNK         0.4988 
     44 O         -47.2993  -24.4891   18.0722 O.2       9 UNK        -0.5108 
     45 CA        -46.5063  -23.6053   15.9949 C.3       8 UNK         0.0248 
     46 CB        -45.1841  -24.2464   15.5439 C.3       8 UNK        -0.2001 
     47 N         -47.2407  -23.1078   14.8289 N.am      8 UNK        -0.4140 
     48 C         -48.3290  -22.3261   14.8893 C.2       8 UNK         0.5028 
     49 O         -48.8013  -21.8849   15.9373 O.2       8 UNK        -0.5428 
     50 CA        -49.0330  -22.0052   13.5587 C.3       7 UNK         0.0264 
     51 CB        -48.3358  -20.8441   12.8319 C.3       7 UNK        -0.1988 
     52 N         -49.1265  -23.1626   12.6651 N.am      7 UNK        -0.4454 
     53 C         -49.7950  -24.2910   12.9505 C.2       7 UNK         0.5027 
     54 O         -50.4366  -24.4620   13.9878 O.2       7 UNK        -0.5083 
     55 CA        -49.6909  -25.4376   11.9266 C.3       6 UNK         0.0844 
     56 C56       -50.6664  -25.2065   10.7481 C.3       14 UNK        -0.0967 
     57 S57       -50.7777  -26.6437    9.6309 S.3       14 UNK        -0.2604 
     58 C58       -52.2739  -27.4366   10.2881 C.3       14 UNK         0.0134 
     59 N         -48.3037  -25.6263   11.4904 N.am      6 UNK        -0.4116 
     60 C         -47.3058  -26.0377   12.2865 C.2       5 UNK         0.5034 
     61 O         -47.4554  -26.3619   13.4635 O.2       5 UNK        -0.5045 
     62 CA        -45.8889  -26.0324   11.6898 C.3       5 UNK         0.0224 
     63 CB        -45.5913  -27.3494   10.9574 C.3       5 UNK        -0.1978 
     64 N         -45.6534  -24.8898   10.8006 N.am      5 UNK        -0.4737 
     65 C         -45.5935  -23.6211   11.2302 C.2       4 UNK         0.5027 
     66 O         -45.7177  -23.2960   12.4097 O.2       4 UNK        -0.5211 
     67 CA        -45.4030  -22.5282   10.1669 C.3       4 UNK         0.0297 
     68 CB        -43.9159  -22.3776    9.8095 C.3       4 UNK        -0.1993 
     69 N         -46.1866  -22.7416    8.9453 N.am      4 UNK        -0.4486 
     70 C         -47.5255  -22.8132    8.8961 C.2       3 UNK         0.4961 
     71 O         -48.2507  -22.7948    9.8913 O.2       3 UNK        -0.5105 
     72 CA        -48.1543  -22.9730    7.5067 C.3       3 UNK         0.0299 
     73 CB        -47.6502  -21.9158    6.5063 C.3       3 UNK        -0.1972 
     74 N         -47.8648  -24.3170    7.0085 N.am      3 UNK        -0.4305 
     75 C         -48.7896  -25.2305    6.6925 C.2       2 UNK         0.5006 
     76 O         -50.0016  -25.0001    6.6479 O.2       2 UNK        -0.5106 
     77 CA        -48.2724  -26.6476    6.3949 C.3       2 UNK         0.0296 
     78 CB        -47.3600  -27.1660    7.5289 C.3       2 UNK        -0.2002 
     79 N         -49.4267  -27.5279    6.2435 N.am      2 UNK        -0.4032 
     80 C         -49.4258  -28.7843    5.7847 C.2       1 UNK         0.5000 
     81 O         -48.4262  -29.3523    5.3372 O.2       1 UNK        -0.5238 
     82 H82       -52.2707  -27.6327    2.0312 H         1 UNK         0.0889 
     83 H83       -53.4633  -27.9379    3.2954 H         1 UNK         0.0889 
     84 H84       -53.1839  -29.1439    2.0385 H         1 UNK         0.0889 
     85 H85       -52.5130  -28.4747    5.2189 H         1 UNK         0.3028 
     86 H86       -51.2313  -29.1986    6.7859 H         1 UNK         0.0864 
     87 H87       -51.6886  -31.4830    5.6214 H         1 UNK         0.0720 
     88 H88       -50.0504  -31.4173    5.0477 H         1 UNK         0.0720 
     89 H89       -51.4968  -32.4700    9.3005 H         1 UNK         0.0814 
     90 H90       -52.2751  -32.8180    7.7760 H         1 UNK         0.0814 
     91 H91       -51.2057  -29.9081    9.9211 H         1 UNK         0.1469 
     92 H92       -54.4431  -27.4124    8.6171 H         1 UNK         0.1381 
     93 H93       -54.0259  -31.3770    7.0451 H         1 UNK         0.1206 
     94 H94       -55.5513  -28.2365    6.3751 H         1 UNK         0.0813 
     95 H95       -55.6950  -29.9569    6.1368 H         1 UNK         0.0813 
     96 H96       -56.2606  -31.3722    8.3860 H         1 UNK         0.0638 
     97 H97       -57.9980  -31.3923    8.3356 H         1 UNK         0.0638 
     98 H98       -58.1952  -30.3451   10.5032 H         1 UNK         0.0568 
     99 H99       -56.0383  -33.3176   12.1435 H         1 UNK         0.3450 
    100 H100      -55.3708  -31.7219   11.9023 H         1 UNK         0.3450 
    101 H101      -55.5211  -29.4426   10.1140 H         1 UNK         0.2987 
    102 H102      -54.4012  -28.2602   11.7675 H         1 UNK         0.0766 
    103 H103      -55.1042  -25.8622   11.4809 H         1 UNK         0.0798 
    104 H104      -56.7806  -26.2973   11.7970 H         1 UNK         0.0798 
    105 H105      -55.9851  -26.8646   10.3394 H         1 UNK         0.0798 
    106 H106      -56.0054  -27.9473   14.1474 H         1 UNK         0.3198 
    107 H107      -55.1976  -26.3979   15.8856 H         1 UNK         0.0843 
    108 H108      -52.9908  -28.5337   16.1876 H         1 UNK         0.0831 
    109 H109      -54.7204  -28.8560   16.1981 H         1 UNK         0.0831 
    110 H110      -53.9976  -27.9263   17.4997 H         1 UNK         0.0831 
    111 H111      -52.4594  -25.7504   15.2562 H         1 UNK         0.3133 
    112 H112      -52.0550  -23.3214   16.3608 H         1 UNK         0.0566 
    113 H113      -50.9622  -22.7160   18.5304 H         1 UNK         0.0814 
    114 H114      -52.7139  -22.7269   18.6604 H         1 UNK         0.0814 
    115 H115      -51.7829  -24.0603   19.3239 H         1 UNK         0.0814 
    116 H116      -50.2777  -24.5386   15.9266 H         1 UNK         0.3091 
    117 H117      -48.3651  -26.9766   17.6348 H         1 UNK         0.0702 
    118 H118      -48.4673  -28.0990   15.4271 H         1 UNK         0.0785 
    119 H119      -49.8739  -27.1404   14.9687 H         1 UNK         0.0785 
    120 H120      -49.9909  -28.3116   16.2751 H         1 UNK         0.0785 
    121 H121      -47.9476  -25.5877   15.1779 H         1 UNK         0.2998 
    122 H122      -46.2665  -22.7458   16.6244 H         1 UNK         0.0697 
    123 H123      -45.3525  -25.1029   14.8907 H         1 UNK         0.0825 
    124 H124      -44.6078  -24.5973   16.4010 H         1 UNK         0.0825 
    125 H125      -44.5612  -23.5327   15.0045 H         1 UNK         0.0825 
    126 H126      -46.8662  -23.3514   13.9146 H         1 UNK         0.3029 
    127 H127      -50.0525  -21.6931   13.7955 H         1 UNK         0.0897 
    128 H128      -48.8665  -20.5717   11.9193 H         1 UNK         0.0792 
    129 H129      -48.2980  -19.9558   13.4637 H         1 UNK         0.0792 
    130 H130      -47.3105  -21.0940   12.5593 H         1 UNK         0.0792 
    131 H131      -48.6574  -23.0865   11.7657 H         1 UNK         0.3086 
    132 H132      -50.0001  -26.3507   12.4405 H         1 UNK         0.0583 
    133 H133      -51.6645  -24.9685   11.1221 H         1 UNK         0.1020 
    134 H134      -50.3629  -24.3422   10.1554 H         1 UNK         0.1020 
    135 H135      -52.0541  -27.8400   11.2775 H         1 UNK         0.0694 
    136 H136      -53.0499  -26.6829   10.4223 H         1 UNK         0.0694 
    137 H137      -48.0877  -25.3413   10.5476 H         1 UNK         0.2989 
    138 H138      -45.1884  -25.9519   12.5243 H         1 UNK         0.1055 
    139 H139      -45.6983  -28.1993   11.6331 H         1 UNK         0.0806 
    140 H140      -44.5711  -27.3702   10.5738 H         1 UNK         0.0806 
    141 H141      -46.2691  -27.5161   10.1226 H         1 UNK         0.0806 
    142 H142      -45.5270  -25.0774    9.8172 H         1 UNK         0.3061 
    143 H143      -45.7400  -21.5874   10.6072 H         1 UNK         0.0734 
    144 H144      -43.7508  -21.5319    9.1417 H         1 UNK         0.0832 
    145 H145      -43.3168  -22.2012   10.7042 H         1 UNK         0.0832 
    146 H146      -43.5212  -23.2717    9.3253 H         1 UNK         0.0832 
    147 H147      -45.6692  -22.7532    8.0787 H         1 UNK         0.3156 
    148 H148      -49.2300  -22.8284    7.6291 H         1 UNK         0.0589 
    149 H149      -46.5949  -22.0398    6.2624 H         1 UNK         0.0808 
    150 H150      -48.2100  -21.9686    5.5724 H         1 UNK         0.0808 
    151 H151      -47.7812  -20.9079    6.9028 H         1 UNK         0.0808 
    152 H152      -46.8956  -24.5999    7.0110 H         1 UNK         0.3098 
    153 H153      -47.7208  -26.6211    5.4532 H         1 UNK         0.0720 
    154 H154      -47.0148  -28.1819    7.3374 H         1 UNK         0.0791 
    155 H155      -47.8889  -27.1726    8.4825 H         1 UNK         0.0791 
    156 H156      -46.4662  -26.5536    7.6459 H         1 UNK         0.0791 
    157 H157      -50.2956  -27.0940    6.5348 H         1 UNK         0.3028 
@<TRIPOS>BOND
     1    1    2 1    
     2    1   82 1    
     3    1   83 1    
     4    1   84 1    
     5    2    3 2    
     6    2    4 am   BACKBONE|DICT|INTERRES
     7    4    5 1    
     8    4   85 1    
     9    5    6 1    
    10    5   80 1    
    11    5   86 1    
    12    6    7 1    
    13    6   87 1    
    14    6   88 1    
    15    7    8 1    
    16    8    9 1    
    17    8   89 1    
    18    8   90 1    
    19    9   10 ar   
    20    9   14 ar   
    21   10   11 ar   
    22   10   91 1    
    23   11   12 ar   
    24   11   58 1    
    25   12   13 ar   
    26   12   92 1    
    27   13   14 ar   
    28   13   15 1    
    29   14   93 1    
    30   15   16 1    
    31   15   94 1    
    32   15   95 1    
    33   16   17 1    
    34   17   18 1    
    35   17   96 1    
    36   17   97 1    
    37   18   19 1    
    38   18   22 1    
    39   18   98 1    
    40   19   20 am   BACKBONE|DICT|INTERRES
    41   19   21 2    
    42   20   99 1    
    43   20  100 1    
    44   22   23 am   BACKBONE|DICT|INTERRES
    45   22  101 1    
    46   23   24 2    
    47   23   25 1    
    48   25   26 1    
    49   25   27 1    
    50   25  102 1    
    51   26  103 1    
    52   26  104 1    
    53   26  105 1    
    54   27   28 am   BACKBONE|DICT|INTERRES
    55   27  106 1    
    56   28   29 2    
    57   28   30 1    
    58   30   31 1    
    59   30   32 1    
    60   30  107 1    
    61   31  108 1    
    62   31  109 1    
    63   31  110 1    
    64   32   33 am   BACKBONE|DICT|INTERRES
    65   32  111 1    
    66   33   34 2    
    67   33   35 1    
    68   35   36 1    
    69   35   37 1    
    70   35  112 1    
    71   36  113 1    
    72   36  114 1    
    73   36  115 1    
    74   37   38 am   BACKBONE|DICT|INTERRES
    75   37  116 1    
    76   38   39 2    
    77   38   40 1    
    78   40   41 1    
    79   40   42 1    
    80   40  117 1    
    81   41  118 1    
    82   41  119 1    
    83   41  120 1    
    84   42   43 am   BACKBONE|DICT|INTERRES
    85   42  121 1    
    86   43   44 2    
    87   43   45 1    
    88   45   46 1    
    89   45   47 1    
    90   45  122 1    
    91   46  123 1    
    92   46  124 1    
    93   46  125 1    
    94   47   48 am   BACKBONE|DICT|INTERRES
    95   47  126 1    
    96   48   49 2    
    97   48   50 1    
    98   50   51 1    
    99   50   52 1    
   100   50  127 1    
   101   51  128 1    
   102   51  129 1    
   103   51  130 1    
   104   52   53 am   BACKBONE|DICT|INTERRES
   105   52  131 1    
   106   53   54 2    
   107   53   55 1    
   108   55   56 1    
   109   55   59 1    
   110   55  132 1    
   111   56   57 1    
   112   56  133 1    
   113   56  134 1    
   114   57   58 1    
   115   58  135 1    
   116   58  136 1    
   117   59   60 am   BACKBONE|DICT|INTERRES
   118   59  137 1    
   119   60   61 2    
   120   60   62 1    
   121   62   63 1    
   122   62   64 1    
   123   62  138 1    
   124   63  139 1    
   125   63  140 1    
   126   63  141 1    
   127   64   65 am   BACKBONE|DICT|INTERRES
   128   64  142 1    
   129   65   66 2    
   130   65   67 1    
   131   67   68 1    
   132   67   69 1    
   133   67  143 1    
   134   68  144 1    
   135   68  145 1    
   136   68  146 1    
   137   69   70 am   BACKBONE|DICT|INTERRES
   138   69  147 1    
   139   70   71 2    
   140   70   72 1    
   141   72   73 1    
   142   72   74 1    
   143   72  148 1    
   144   73  149 1    
   145   73  150 1    
   146   73  151 1    
   147   74   75 am   BACKBONE|DICT|INTERRES
   148   74  152 1    
   149   75   76 2    
   150   75   77 1    
   151   77   78 1    
   152   77   79 1    
   153   77  153 1    
   154   78  154 1    
   155   78  155 1    
   156   78  156 1    
   157   79   80 am   BACKBONE|DICT|INTERRES
   158   79  157 1    
   159   80   81 2    
@<TRIPOS>SUBSTRUCTURE
     1 UNK         1 GROUP             0       ****    0 ROOT    
