@<TRIPOS>MOLECULE
3R207
157   159    1
SMALL
USER_CHARGES


@<TRIPOS>ATOM
      1 CA        -47.8922  -31.9338    5.3609 C.3       0 UNK        -0.1975 
      2 C         -48.3201  -30.7326    6.1913 C.2       0 UNK         0.4852 
      3 O         -49.2224  -30.0005    5.7850 O.2       0 UNK        -0.5216 
      4 N         -47.6770  -30.5272    7.3447 N.am      1 UNK        -0.4461 
      5 CA        -47.9109  -29.4197    8.2693 C.3       1 UNK         0.0864 
      6 C6        -49.0339  -29.7492    9.2982 C.3       14 UNK        -0.0898 
      7 S7        -50.2878  -28.4332    9.4132 S.3       14 UNK        -0.2598 
      8 C8        -51.6324  -29.1776    8.4377 C.3       14 UNK         0.0286 
      9 C9        -52.8129  -28.2291    8.3123 C.ar      14 UNK        -0.0844 
     10 C10       -52.8294  -27.2614    7.3043 C.ar      14 UNK        -0.0881 
     11 C11       -53.8855  -26.3482    7.2092 C.ar      14 UNK        -0.0643 
     12 C12       -54.9533  -26.4450    8.1079 C.ar      14 UNK        -0.0930 
     13 C13       -54.9678  -27.4354    9.0949 C.ar      14 UNK        -0.0827 
     14 C14       -53.8899  -28.3188    9.1983 C.ar      14 UNK        -0.1249 
     15 C15       -56.1554  -27.5644   10.0363 C.3       14 UNK         0.0141 
     16 S16       -55.7990  -26.8261   11.6574 S.3       14 UNK        -0.2313 
     17 C17       -57.4169  -26.9862   12.4887 C.3       14 UNK        -0.0915 
     18 CA        -57.5066  -28.1736   13.4848 C.3       13 UNK         0.0968 
     19 C         -57.6213  -29.5497   12.7612 C.2       13 UNK         0.5732 
     20 N         -56.7355  -30.5139   12.9857 N.am      13 UNK        -0.7310 
     21 O         -58.5485  -29.7505   11.9803 O.2       13 UNK        -0.5035 
     22 N         -56.4616  -28.0918   14.5143 N.am      13 UNK        -0.4233 
     23 C         -56.5035  -28.7014   15.7049 C.2       13 UNK         0.4989 
     24 O         -57.4902  -29.3046   16.1311 O.2       13 UNK        -0.4996 
     25 CA        -55.2115  -28.6370   16.5434 C.3       12 UNK         0.0216 
     26 CB        -55.1739  -29.6850   17.6757 C.3       12 UNK        -0.1964 
     27 N         -53.9956  -28.7188   15.7224 N.am      12 UNK        -0.4276 
     28 C         -53.6357  -29.7099   14.8919 C.2       12 UNK         0.5020 
     29 O         -54.3160  -30.7168   14.6910 O.2       12 UNK        -0.5489 
     30 CA        -52.3118  -29.5446   14.1252 C.3       11 UNK         0.0294 
     31 CB        -52.5829  -29.0685   12.6897 C.3       11 UNK        -0.2019 
     32 N         -51.3670  -28.6270   14.7664 N.am      11 UNK        -0.4493 
     33 C         -50.7066  -28.8797   15.9060 C.2       11 UNK         0.4932 
     34 O         -50.8108  -29.9275   16.5438 O.2       11 UNK        -0.5029 
     35 CA        -49.7846  -27.7688   16.4277 C.3       10 UNK         0.0280 
     36 CB        -48.4427  -27.7791   15.6760 C.3       10 UNK        -0.1976 
     37 N         -50.4188  -26.4569   16.2889 N.am      10 UNK        -0.4242 
     38 C         -51.1946  -25.8854   17.2214 C.2       10 UNK         0.5072 
     39 O         -51.4092  -26.3784   18.3294 O.2       10 UNK        -0.5224 
     40 CA        -51.8470  -24.5337   16.8712 C.3       9 UNK         0.0343 
     41 CB        -50.9740  -23.3713   17.3708 C.3       9 UNK        -0.2003 
     42 N         -52.1068  -24.3597   15.4403 N.am      9 UNK        -0.4272 
     43 C         -53.0162  -25.0546   14.7432 C.2       9 UNK         0.4988 
     44 O         -53.7743  -25.8850   15.2429 O.2       9 UNK        -0.5108 
     45 CA        -53.0570  -24.8242   13.2235 C.3       8 UNK         0.0248 
     46 CB        -54.0649  -23.7214   12.8664 C.3       8 UNK        -0.2001 
     47 N         -51.7607  -24.5258   12.6060 N.am      8 UNK        -0.4140 
     48 C         -50.6641  -25.2903   12.6879 C.2       8 UNK         0.5028 
     49 O         -50.5915  -26.2999   13.3910 O.2       8 UNK        -0.5428 
     50 CA        -49.4597  -24.8568   11.8352 C.3       7 UNK         0.0264 
     51 CB        -48.2054  -25.6924   12.1376 C.3       7 UNK        -0.1988 
     52 N         -49.7565  -24.9691   10.4089 N.am      7 UNK        -0.4454 
     53 C         -50.5195  -24.1364    9.6931 C.2       7 UNK         0.5027 
     54 O         -51.0449  -23.1227   10.1604 O.2       7 UNK        -0.5083 
     55 CA        -50.7287  -24.5150    8.2149 C.3       6 UNK         0.0844 
     56 C56       -51.9472  -23.7915    7.5853 C.3       14 UNK        -0.0967 
     57 S57       -52.3039  -24.4094    5.9036 S.3       14 UNK        -0.2604 
     58 C58       -53.9015  -25.2658    6.1319 C.3       14 UNK         0.0134 
     59 N         -49.5087  -24.2896    7.4401 N.am      6 UNK        -0.4116 
     60 C         -48.4076  -25.0483    7.4504 C.2       5 UNK         0.5034 
     61 O         -48.2477  -26.0321    8.1743 O.2       5 UNK        -0.5045 
     62 CA        -47.2766  -24.6260    6.5027 C.3       5 UNK         0.0224 
     63 CB        -47.7598  -24.3406    5.0639 C.3       5 UNK        -0.1978 
     64 N         -46.5030  -23.5168    7.0645 N.am      5 UNK        -0.4737 
     65 C         -46.9061  -22.2608    7.3130 C.2       4 UNK         0.5027 
     66 O         -47.9953  -21.8065    6.9576 O.2       4 UNK        -0.5211 
     67 CA        -45.9219  -21.3685    8.1006 C.3       4 UNK         0.0297 
     68 CB        -46.6301  -20.2179    8.8479 C.3       4 UNK        -0.1993 
     69 N         -45.0520  -22.1309    9.0100 N.am      4 UNK        -0.4486 
     70 C         -45.4387  -22.8998   10.0392 C.2       3 UNK         0.4961 
     71 O         -46.6001  -23.0076   10.4349 O.2       3 UNK        -0.5105 
     72 CA        -44.3267  -23.7030   10.7342 C.3       3 UNK         0.0299 
     73 CB        -44.0908  -23.1788   12.1600 C.3       3 UNK        -0.1972 
     74 N         -44.6253  -25.1371   10.7890 N.am      3 UNK        -0.4305 
     75 C         -44.8515  -25.9357    9.7349 C.2       2 UNK         0.5006 
     76 O         -44.8225  -25.5491    8.5650 O.2       2 UNK        -0.5106 
     77 CA        -45.1099  -27.4241   10.0185 C.3       2 UNK         0.0296 
     78 CB        -45.1461  -27.8088   11.5169 C.3       2 UNK        -0.2002 
     79 N         -46.3308  -27.8614    9.3376 N.am      2 UNK        -0.4032 
     80 C         -46.5664  -29.1224    8.9567 C.2       1 UNK         0.5000 
     81 O         -45.7739  -30.0529    9.1426 O.2       1 UNK        -0.5238 
     82 H82       -47.5428  -31.6077    4.3817 H         1 UNK         0.0889 
     83 H83       -48.7358  -32.6080    5.2151 H         1 UNK         0.0889 
     84 H84       -47.0889  -32.4946    5.8386 H         1 UNK         0.0889 
     85 H85       -46.9027  -31.1202    7.6199 H         1 UNK         0.3028 
     86 H86       -48.1805  -28.5449    7.6751 H         1 UNK         0.0864 
     87 H87       -49.5366  -30.6831    9.0413 H         1 UNK         0.0720 
     88 H88       -48.6383  -29.9185   10.3020 H         1 UNK         0.0720 
     89 H89       -51.2611  -29.4383    7.4459 H         1 UNK         0.0814 
     90 H90       -51.9470  -30.1114    8.9063 H         1 UNK         0.0814 
     91 H91       -52.0020  -27.2015    6.6102 H         1 UNK         0.1469 
     92 H92       -55.7823  -25.7545    8.0333 H         1 UNK         0.1381 
     93 H93       -53.8916  -29.0760    9.9695 H         1 UNK         0.1206 
     94 H94       -57.0349  -27.0847    9.6040 H         1 UNK         0.0813 
     95 H95       -56.4090  -28.6178   10.1628 H         1 UNK         0.0813 
     96 H96       -57.5908  -26.0551   13.0299 H         1 UNK         0.0638 
     97 H97       -58.2143  -27.0376   11.7452 H         1 UNK         0.0638 
     98 H98       -58.4596  -28.0602   14.0048 H         1 UNK         0.0568 
     99 H99       -55.9698  -30.3964   13.6406 H         1 UNK         0.3450 
    100 H100      -56.8443  -31.3924   12.5058 H         1 UNK         0.3450 
    101 H101      -55.6145  -27.6123   14.2444 H         1 UNK         0.2987 
    102 H102      -55.2004  -27.6490   17.0061 H         1 UNK         0.0766 
    103 H103      -54.2561  -29.6049   18.2583 H         1 UNK         0.0798 
    104 H104      -56.0077  -29.5478   18.3653 H         1 UNK         0.0798 
    105 H105      -55.2365  -30.7022   17.2873 H         1 UNK         0.0798 
    106 H106      -53.4233  -27.8812   15.7275 H         1 UNK         0.3198 
    107 H107      -51.8417  -30.5290   14.0742 H         1 UNK         0.0843 
    108 H108      -53.2508  -29.7579   12.1720 H         1 UNK         0.0831 
    109 H109      -51.6622  -29.0104   12.1091 H         1 UNK         0.0831 
    110 H110      -53.0510  -28.0847   12.6702 H         1 UNK         0.0831 
    111 H111      -51.1642  -27.7581   14.2714 H         1 UNK         0.3133 
    112 H112      -49.5775  -27.9651   17.4820 H         1 UNK         0.0566 
    113 H113      -48.5732  -27.6282   14.6040 H         1 UNK         0.0814 
    114 H114      -47.9318  -28.7336   15.8083 H         1 UNK         0.0814 
    115 H115      -47.7752  -27.0004   16.0450 H         1 UNK         0.0814 
    116 H116      -50.3575  -26.0281   15.3717 H         1 UNK         0.3091 
    117 H117      -52.8053  -24.4887   17.3935 H         1 UNK         0.0702 
    118 H118      -51.4603  -22.4097   17.2058 H         1 UNK         0.0785 
    119 H119      -50.0046  -23.3494   16.8711 H         1 UNK         0.0785 
    120 H120      -50.7863  -23.4574   18.4422 H         1 UNK         0.0785 
    121 H121      -51.5283  -23.6967   14.9454 H         1 UNK         0.2998 
    122 H122      -53.4000  -25.7556   12.7748 H         1 UNK         0.0697 
    123 H123      -53.7510  -22.7477   13.2441 H         1 UNK         0.0825 
    124 H124      -55.0462  -23.9383   13.2915 H         1 UNK         0.0825 
    125 H125      -54.1952  -23.6397   11.7870 H         1 UNK         0.0825 
    126 H126      -51.7289  -23.7450   11.9578 H         1 UNK         0.3029 
    127 H127      -49.2367  -23.8134   12.0685 H         1 UNK         0.0897 
    128 H128      -47.3600  -25.3516   11.5424 H         1 UNK         0.0792 
    129 H129      -47.9197  -25.6063   13.1865 H         1 UNK         0.0792 
    130 H130      -48.3647  -26.7503   11.9225 H         1 UNK         0.0792 
    131 H131      -49.3480  -25.7576    9.9189 H         1 UNK         0.3086 
    132 H132      -50.9335  -25.5856    8.2025 H         1 UNK         0.0583 
    133 H133      -52.8334  -23.9162    8.2108 H         1 UNK         0.1020 
    134 H134      -51.7694  -22.7158    7.5294 H         1 UNK         0.1020 
    135 H135      -54.6605  -24.5145    6.3558 H         1 UNK         0.0694 
    136 H136      -54.1908  -25.7224    5.1846 H         1 UNK         0.0694 
    137 H137      -49.4771  -23.4387    6.8933 H         1 UNK         0.2989 
    138 H138      -46.5914  -25.4739    6.4476 H         1 UNK         0.1055 
    139 H139      -46.9171  -24.1507    4.3992 H         1 UNK         0.0806 
    140 H140      -48.4282  -23.4820    5.0016 H         1 UNK         0.0806 
    141 H141      -48.3004  -25.1984    4.6616 H         1 UNK         0.0806 
    142 H142      -45.6179  -23.8034    7.4678 H         1 UNK         0.3061 
    143 H143      -45.2643  -20.9193    7.3549 H         1 UNK         0.0734 
    144 H144      -47.1538  -19.5630    8.1505 H         1 UNK         0.0832 
    145 H145      -47.3696  -20.5905    9.5576 H         1 UNK         0.0832 
    146 H146      -45.9181  -19.6015    9.3963 H         1 UNK         0.0832 
    147 H147      -44.0685  -22.1204    8.7739 H         1 UNK         0.3156 
    148 H148      -43.3985  -23.5865   10.1709 H         1 UNK         0.0589 
    149 H149      -44.9753  -23.3039   12.7865 H         1 UNK         0.0808 
    150 H150      -43.2603  -23.6942   12.6427 H         1 UNK         0.0808 
    151 H151      -43.8482  -22.1153   12.1493 H         1 UNK         0.0808 
    152 H152      -44.6808  -25.5453   11.7101 H         1 UNK         0.3098 
    153 H153      -44.2642  -27.9469    9.5666 H         1 UNK         0.0720 
    154 H154      -45.2599  -28.8856   11.6429 H         1 UNK         0.0791 
    155 H155      -44.2181  -27.5372   12.0215 H         1 UNK         0.0791 
    156 H156      -45.9696  -27.3335   12.0469 H         1 UNK         0.0791 
    157 H157      -46.9925  -27.1324    9.0742 H         1 UNK         0.3028 
@<TRIPOS>BOND
     1    1    2 1    
     2    1   82 1    
     3    1   83 1    
     4    1   84 1    
     5    2    3 2    
     6    2    4 am   BACKBONE|DICT|INTERRES
     7    4    5 1    
     8    4   85 1    
     9    5    6 1    
    10    5   80 1    
    11    5   86 1    
    12    6    7 1    
    13    6   87 1    
    14    6   88 1    
    15    7    8 1    
    16    8    9 1    
    17    8   89 1    
    18    8   90 1    
    19    9   10 ar   
    20    9   14 ar   
    21   10   11 ar   
    22   10   91 1    
    23   11   12 ar   
    24   11   58 1    
    25   12   13 ar   
    26   12   92 1    
    27   13   14 ar   
    28   13   15 1    
    29   14   93 1    
    30   15   16 1    
    31   15   94 1    
    32   15   95 1    
    33   16   17 1    
    34   17   18 1    
    35   17   96 1    
    36   17   97 1    
    37   18   19 1    
    38   18   22 1    
    39   18   98 1    
    40   19   20 am   BACKBONE|DICT|INTERRES
    41   19   21 2    
    42   20   99 1    
    43   20  100 1    
    44   22   23 am   BACKBONE|DICT|INTERRES
    45   22  101 1    
    46   23   24 2    
    47   23   25 1    
    48   25   26 1    
    49   25   27 1    
    50   25  102 1    
    51   26  103 1    
    52   26  104 1    
    53   26  105 1    
    54   27   28 am   BACKBONE|DICT|INTERRES
    55   27  106 1    
    56   28   29 2    
    57   28   30 1    
    58   30   31 1    
    59   30   32 1    
    60   30  107 1    
    61   31  108 1    
    62   31  109 1    
    63   31  110 1    
    64   32   33 am   BACKBONE|DICT|INTERRES
    65   32  111 1    
    66   33   34 2    
    67   33   35 1    
    68   35   36 1    
    69   35   37 1    
    70   35  112 1    
    71   36  113 1    
    72   36  114 1    
    73   36  115 1    
    74   37   38 am   BACKBONE|DICT|INTERRES
    75   37  116 1    
    76   38   39 2    
    77   38   40 1    
    78   40   41 1    
    79   40   42 1    
    80   40  117 1    
    81   41  118 1    
    82   41  119 1    
    83   41  120 1    
    84   42   43 am   BACKBONE|DICT|INTERRES
    85   42  121 1    
    86   43   44 2    
    87   43   45 1    
    88   45   46 1    
    89   45   47 1    
    90   45  122 1    
    91   46  123 1    
    92   46  124 1    
    93   46  125 1    
    94   47   48 am   BACKBONE|DICT|INTERRES
    95   47  126 1    
    96   48   49 2    
    97   48   50 1    
    98   50   51 1    
    99   50   52 1    
   100   50  127 1    
   101   51  128 1    
   102   51  129 1    
   103   51  130 1    
   104   52   53 am   BACKBONE|DICT|INTERRES
   105   52  131 1    
   106   53   54 2    
   107   53   55 1    
   108   55   56 1    
   109   55   59 1    
   110   55  132 1    
   111   56   57 1    
   112   56  133 1    
   113   56  134 1    
   114   57   58 1    
   115   58  135 1    
   116   58  136 1    
   117   59   60 am   BACKBONE|DICT|INTERRES
   118   59  137 1    
   119   60   61 2    
   120   60   62 1    
   121   62   63 1    
   122   62   64 1    
   123   62  138 1    
   124   63  139 1    
   125   63  140 1    
   126   63  141 1    
   127   64   65 am   BACKBONE|DICT|INTERRES
   128   64  142 1    
   129   65   66 2    
   130   65   67 1    
   131   67   68 1    
   132   67   69 1    
   133   67  143 1    
   134   68  144 1    
   135   68  145 1    
   136   68  146 1    
   137   69   70 am   BACKBONE|DICT|INTERRES
   138   69  147 1    
   139   70   71 2    
   140   70   72 1    
   141   72   73 1    
   142   72   74 1    
   143   72  148 1    
   144   73  149 1    
   145   73  150 1    
   146   73  151 1    
   147   74   75 am   BACKBONE|DICT|INTERRES
   148   74  152 1    
   149   75   76 2    
   150   75   77 1    
   151   77   78 1    
   152   77   79 1    
   153   77  153 1    
   154   78  154 1    
   155   78  155 1    
   156   78  156 1    
   157   79   80 am   BACKBONE|DICT|INTERRES
   158   79  157 1    
   159   80   81 2    
@<TRIPOS>SUBSTRUCTURE
     1 UNK         1 GROUP             0       ****    0 ROOT    
