@<TRIPOS>MOLECULE
3R207
157   159    1
SMALL
USER_CHARGES


@<TRIPOS>ATOM
      1 CA        -44.4008  -28.5455    4.6922 C.3       0 UNK        -0.1975 
      2 C         -44.9366  -28.9574    6.0612 C.2       0 UNK         0.4852 
      3 O         -44.2133  -28.8433    7.0485 O.2       0 UNK        -0.5216 
      4 N         -46.1803  -29.4456    6.1805 N.am      1 UNK        -0.4461 
      5 CA        -47.1953  -29.6004    5.1277 C.3       1 UNK         0.0864 
      6 C6        -48.3173  -30.5843    5.5544 C.3       14 UNK        -0.0898 
      7 S7        -49.0586  -30.1912    7.1761 S.3       14 UNK        -0.2598 
      8 C8        -50.7645  -30.7931    6.9865 C.3       14 UNK         0.0286 
      9 C9        -51.6920  -30.0026    7.8931 C.ar      14 UNK        -0.0844 
     10 C10       -52.1307  -28.7423    7.4827 C.ar      14 UNK        -0.0881 
     11 C11       -52.9297  -27.9610    8.3186 C.ar      14 UNK        -0.0643 
     12 C12       -53.3167  -28.4609    9.5621 C.ar      14 UNK        -0.0930 
     13 C13       -52.8829  -29.7194    9.9883 C.ar      14 UNK        -0.0827 
     14 C14       -52.0738  -30.4923    9.1474 C.ar      14 UNK        -0.1249 
     15 C15       -53.2318  -30.1946   11.3887 C.3       14 UNK         0.0141 
     16 S16       -54.9294  -30.8259   11.5130 S.3       14 UNK        -0.2313 
     17 C17       -55.1725  -30.7273   13.3223 C.3       14 UNK        -0.0915 
     18 CA        -56.0093  -29.4888   13.7562 C.3       13 UNK         0.0968 
     19 C         -56.3830  -29.5197   15.2639 C.2       13 UNK         0.5732 
     20 N         -57.0588  -30.5676   15.7161 N.am      13 UNK        -0.7310 
     21 O         -56.0889  -28.6038   16.0305 O.2       13 UNK        -0.5035 
     22 N         -55.3377  -28.2263   13.4161 N.am      13 UNK        -0.4233 
     23 C         -55.7433  -27.3693   12.4724 C.2       13 UNK         0.4989 
     24 O         -56.7016  -27.5694   11.7234 O.2       13 UNK        -0.4996 
     25 CA        -54.9287  -26.0685   12.3418 C.3       12 UNK         0.0216 
     26 CB        -55.5462  -25.0597   11.3486 C.3       12 UNK        -0.1964 
     27 N         -54.6627  -25.4314   13.6359 N.am      12 UNK        -0.4276 
     28 C         -55.5721  -24.9753   14.5104 C.2       12 UNK         0.5020 
     29 O         -56.7905  -25.0217   14.3305 O.2       12 UNK        -0.5489 
     30 CA        -55.0162  -24.4014   15.8190 C.3       11 UNK         0.0294 
     31 CB        -56.1119  -23.8621   16.7626 C.3       11 UNK        -0.2019 
     32 N         -54.2406  -25.4398   16.4879 N.am      11 UNK        -0.4493 
     33 C         -53.2647  -25.2330   17.3747 C.2       11 UNK         0.4932 
     34 O         -52.9024  -24.1186   17.7527 O.2       11 UNK        -0.5029 
     35 CA        -52.5847  -26.4838   17.9533 C.3       10 UNK         0.0280 
     36 CB        -53.5976  -27.5008   18.5178 C.3       10 UNK        -0.1976 
     37 N         -51.6523  -27.1213   17.0205 N.am      10 UNK        -0.4242 
     38 C         -51.8876  -27.6760   15.8232 C.2       10 UNK         0.5072 
     39 O         -52.9940  -27.7235   15.2753 O.2       10 UNK        -0.5224 
     40 CA        -50.6549  -28.2977   15.1380 C.3       9 UNK         0.0343 
     41 CB        -51.0170  -29.0531   13.8514 C.3       9 UNK        -0.2003 
     42 N         -49.6283  -27.3023   14.8229 N.am      9 UNK        -0.4272 
     43 C         -48.7837  -26.7427   15.6995 C.2       9 UNK         0.4988 
     44 O         -48.7752  -27.0112   16.9023 O.2       9 UNK        -0.5108 
     45 CA        -47.7932  -25.7014   15.1514 C.3       8 UNK         0.0248 
     46 CB        -46.5723  -26.3947   14.5269 C.3       8 UNK        -0.2001 
     47 N         -48.4023  -24.7903   14.1780 N.am      8 UNK        -0.4140 
     48 C         -49.3417  -23.8818   14.4823 C.2       8 UNK         0.5028 
     49 O         -49.7504  -23.6763   15.6254 O.2       8 UNK        -0.5428 
     50 CA        -49.9325  -23.0637   13.3210 C.3       7 UNK         0.0264 
     51 CB        -49.0259  -21.8713   12.9761 C.3       7 UNK        -0.1988 
     52 N         -50.1709  -23.8595   12.1161 N.am      7 UNK        -0.4454 
     53 C         -51.0550  -24.8649   12.0247 C.2       7 UNK         0.5027 
     54 O         -51.8017  -25.2082   12.9422 O.2       7 UNK        -0.5083 
     55 CA        -51.0852  -25.6267   10.6810 C.3       6 UNK         0.0844 
     56 C56       -51.9206  -24.8194    9.6493 C.3       14 UNK        -0.0967 
     57 S57       -51.8954  -25.4473    7.9375 S.3       14 UNK        -0.2604 
     58 C58       -53.3300  -26.5636    7.8827 C.3       14 UNK         0.0134 
     59 N         -49.7271  -25.9665   10.2313 N.am      6 UNK        -0.4116 
     60 C         -48.8606  -26.7128   10.9382 C.2       5 UNK         0.5034 
     61 O         -49.1354  -27.2568   12.0056 O.2       5 UNK        -0.5045 
     62 CA        -47.4194  -26.8160   10.4222 C.3       5 UNK         0.0224 
     63 CB        -47.2675  -27.9676    9.4188 C.3       5 UNK        -0.1978 
     64 N         -46.9716  -25.5578    9.8280 N.am      5 UNK        -0.4737 
     65 C         -46.6429  -24.4699   10.5374 C.2       4 UNK         0.5027 
     66 O         -46.6264  -24.4388   11.7675 O.2       4 UNK        -0.5211 
     67 CA        -46.3205  -23.1920    9.7427 C.3       4 UNK         0.0297 
     68 CB        -44.8382  -23.1692    9.3385 C.3       4 UNK        -0.1993 
     69 N         -47.1573  -23.0342    8.5494 N.am      4 UNK        -0.4486 
     70 C         -48.4856  -22.8586    8.5787 C.2       3 UNK         0.4961 
     71 O         -49.1361  -22.7561    9.6194 O.2       3 UNK        -0.5105 
     72 CA        -49.2211  -22.8313    7.2255 C.3       3 UNK         0.0299 
     73 CB        -49.2514  -21.3987    6.6699 C.3       3 UNK        -0.1972 
     74 N         -48.7028  -23.7430    6.1925 N.am      3 UNK        -0.4305 
     75 C         -48.4347  -25.0503    6.3360 C.2       2 UNK         0.5006 
     76 O         -48.4943  -25.6482    7.4111 O.2       2 UNK        -0.5106 
     77 CA        -48.0056  -25.8120    5.0728 C.3       2 UNK         0.0296 
     78 CB        -46.7879  -25.1561    4.3892 C.3       2 UNK        -0.2002 
     79 N         -47.6774  -27.1945    5.4227 N.am      2 UNK        -0.4032 
     80 C         -47.7505  -28.2532    4.6052 C.2       1 UNK         0.5000 
     81 O         -48.1805  -28.1922    3.4520 O.2       1 UNK        -0.5238 
     82 H82       -44.8793  -27.6305    4.3462 H         1 UNK         0.0889 
     83 H83       -44.5538  -29.3282    3.9506 H         1 UNK         0.0889 
     84 H84       -43.3290  -28.3559    4.7473 H         1 UNK         0.0889 
     85 H85       -46.4963  -29.7271    7.0981 H         1 UNK         0.3028 
     86 H86       -46.7021  -30.0642    4.2718 H         1 UNK         0.0864 
     87 H87       -47.9075  -31.5935    5.6199 H         1 UNK         0.0720 
     88 H88       -49.0925  -30.6332    4.7874 H         1 UNK         0.0720 
     89 H89       -51.0948  -30.6866    5.9523 H         1 UNK         0.0814 
     90 H90       -50.8045  -31.8582    7.2191 H         1 UNK         0.0814 
     91 H91       -51.8141  -28.3483    6.5263 H         1 UNK         0.1469 
     92 H92       -53.9357  -27.8600   10.2095 H         1 UNK         0.1381 
     93 H93       -51.7181  -31.4582    9.4791 H         1 UNK         0.1206 
     94 H94       -52.5305  -30.9577   11.7297 H         1 UNK         0.0813 
     95 H95       -53.1321  -29.3505   12.0680 H         1 UNK         0.0813 
     96 H96       -54.2060  -30.7336   13.8295 H         1 UNK         0.0638 
     97 H97       -55.6710  -31.6511   13.6191 H         1 UNK         0.0638 
     98 H98       -56.9670  -29.5355   13.2350 H         1 UNK         0.0568 
     99 H99       -57.3266  -31.3229   15.1050 H         1 UNK         0.3450 
    100 H100      -57.3137  -30.5971   16.6907 H         1 UNK         0.3450 
    101 H101      -54.5752  -27.9669   14.0363 H         1 UNK         0.2987 
    102 H102      -53.9563  -26.3630   11.9492 H         1 UNK         0.0766 
    103 H103      -54.9431  -24.1553   11.2729 H         1 UNK         0.0798 
    104 H104      -56.5527  -24.7638   11.6461 H         1 UNK         0.0798 
    105 H105      -55.6195  -25.4891   10.3492 H         1 UNK         0.0798 
    106 H106      -53.6769  -25.3638   13.8745 H         1 UNK         0.3198 
    107 H107      -54.3527  -23.5767   15.5490 H         1 UNK         0.0843 
    108 H108      -56.7895  -24.6542   17.0834 H         1 UNK         0.0831 
    109 H109      -56.7116  -23.0973   16.2676 H         1 UNK         0.0831 
    110 H110      -55.6828  -23.4064   17.6549 H         1 UNK         0.0831 
    111 H111      -54.4053  -26.3950   16.1835 H         1 UNK         0.3133 
    112 H112      -51.9751  -26.1429   18.7917 H         1 UNK         0.0566 
    113 H113      -53.0922  -28.2873   19.0779 H         1 UNK         0.0814 
    114 H114      -54.2986  -27.0176   19.1996 H         1 UNK         0.0814 
    115 H115      -54.1836  -27.9805   17.7349 H         1 UNK         0.0814 
    116 H116      -50.6756  -27.0923   17.3024 H         1 UNK         0.3091 
    117 H117      -50.2320  -29.0239   15.8353 H         1 UNK         0.0702 
    118 H118      -51.7790  -29.8093   14.0421 H         1 UNK         0.0785 
    119 H119      -51.3976  -28.3672   13.0941 H         1 UNK         0.0785 
    120 H120      -50.1496  -29.5628   13.4318 H         1 UNK         0.0785 
    121 H121      -49.5445  -27.0516   13.8405 H         1 UNK         0.2998 
    122 H122      -47.4442  -25.1010   15.9942 H         1 UNK         0.0697 
    123 H123      -46.8532  -27.0199   13.6794 H         1 UNK         0.0825 
    124 H124      -46.0751  -27.0375   15.2545 H         1 UNK         0.0825 
    125 H125      -45.8368  -25.6688   14.1796 H         1 UNK         0.0825 
    126 H126      -48.0622  -24.8425   13.2236 H         1 UNK         0.3029 
    127 H127      -50.8969  -22.6733   13.6535 H         1 UNK         0.0897 
    128 H128      -49.4744  -21.2420   12.2070 H         1 UNK         0.0792 
    129 H129      -48.0505  -22.1968   12.6128 H         1 UNK         0.0792 
    130 H130      -48.8562  -21.2435   13.8518 H         1 UNK         0.0792 
    131 H131      -49.6405  -23.6026   11.2865 H         1 UNK         0.3086 
    132 H132      -51.5966  -26.5744   10.8576 H         1 UNK         0.0583 
    133 H133      -52.9568  -24.7505    9.9809 H         1 UNK         0.1020 
    134 H134      -51.5687  -23.7877    9.5987 H         1 UNK         0.1020 
    135 H135      -54.1448  -26.1715    8.4920 H         1 UNK         0.0694 
    136 H136      -53.7051  -26.6030    6.8590 H         1 UNK         0.0694 
    137 H137      -49.4349  -25.5994    9.3325 H         1 UNK         0.2989 
    138 H138      -46.7752  -27.0356   11.2761 H         1 UNK         0.1055 
    139 H139      -47.5148  -28.9217    9.8862 H         1 UNK         0.0806 
    140 H140      -46.2448  -28.0414    9.0488 H         1 UNK         0.0806 
    141 H141      -47.9317  -27.8496    8.5644 H         1 UNK         0.0806 
    142 H142      -47.0853  -25.4710    8.8243 H         1 UNK         0.3061 
    143 H143      -46.5094  -22.3398   10.3991 H         1 UNK         0.0734 
    144 H144      -44.5743  -22.2329    8.8466 H         1 UNK         0.0832 
    145 H145      -44.1953  -23.2650   10.2148 H         1 UNK         0.0832 
    146 H146      -44.5896  -23.9879    8.6619 H         1 UNK         0.0832 
    147 H147      -46.7029  -23.1096    7.6511 H         1 UNK         0.3156 
    148 H148      -50.2515  -23.1288    7.4195 H         1 UNK         0.0589 
    149 H149      -48.2549  -21.0494    6.3967 H         1 UNK         0.0808 
    150 H150      -49.8874  -21.3272    5.7874 H         1 UNK         0.0808 
    151 H151      -49.6499  -20.7014    7.4086 H         1 UNK         0.0808 
    152 H152      -48.6126  -23.3464    5.2684 H         1 UNK         0.3098 
    153 H153      -48.8560  -25.8073    4.3879 H         1 UNK         0.0720 
    154 H154      -45.9283  -25.1096    5.0591 H         1 UNK         0.0791 
    155 H155      -47.0060  -24.1391    4.0624 H         1 UNK         0.0791 
    156 H156      -46.4865  -25.7116    3.5009 H         1 UNK         0.0791 
    157 H157      -47.4110  -27.3337    6.3884 H         1 UNK         0.3028 
@<TRIPOS>BOND
     1    1    2 1    
     2    1   82 1    
     3    1   83 1    
     4    1   84 1    
     5    2    3 2    
     6    2    4 am   BACKBONE|DICT|INTERRES
     7    4    5 1    
     8    4   85 1    
     9    5    6 1    
    10    5   80 1    
    11    5   86 1    
    12    6    7 1    
    13    6   87 1    
    14    6   88 1    
    15    7    8 1    
    16    8    9 1    
    17    8   89 1    
    18    8   90 1    
    19    9   10 ar   
    20    9   14 ar   
    21   10   11 ar   
    22   10   91 1    
    23   11   12 ar   
    24   11   58 1    
    25   12   13 ar   
    26   12   92 1    
    27   13   14 ar   
    28   13   15 1    
    29   14   93 1    
    30   15   16 1    
    31   15   94 1    
    32   15   95 1    
    33   16   17 1    
    34   17   18 1    
    35   17   96 1    
    36   17   97 1    
    37   18   19 1    
    38   18   22 1    
    39   18   98 1    
    40   19   20 am   BACKBONE|DICT|INTERRES
    41   19   21 2    
    42   20   99 1    
    43   20  100 1    
    44   22   23 am   BACKBONE|DICT|INTERRES
    45   22  101 1    
    46   23   24 2    
    47   23   25 1    
    48   25   26 1    
    49   25   27 1    
    50   25  102 1    
    51   26  103 1    
    52   26  104 1    
    53   26  105 1    
    54   27   28 am   BACKBONE|DICT|INTERRES
    55   27  106 1    
    56   28   29 2    
    57   28   30 1    
    58   30   31 1    
    59   30   32 1    
    60   30  107 1    
    61   31  108 1    
    62   31  109 1    
    63   31  110 1    
    64   32   33 am   BACKBONE|DICT|INTERRES
    65   32  111 1    
    66   33   34 2    
    67   33   35 1    
    68   35   36 1    
    69   35   37 1    
    70   35  112 1    
    71   36  113 1    
    72   36  114 1    
    73   36  115 1    
    74   37   38 am   BACKBONE|DICT|INTERRES
    75   37  116 1    
    76   38   39 2    
    77   38   40 1    
    78   40   41 1    
    79   40   42 1    
    80   40  117 1    
    81   41  118 1    
    82   41  119 1    
    83   41  120 1    
    84   42   43 am   BACKBONE|DICT|INTERRES
    85   42  121 1    
    86   43   44 2    
    87   43   45 1    
    88   45   46 1    
    89   45   47 1    
    90   45  122 1    
    91   46  123 1    
    92   46  124 1    
    93   46  125 1    
    94   47   48 am   BACKBONE|DICT|INTERRES
    95   47  126 1    
    96   48   49 2    
    97   48   50 1    
    98   50   51 1    
    99   50   52 1    
   100   50  127 1    
   101   51  128 1    
   102   51  129 1    
   103   51  130 1    
   104   52   53 am   BACKBONE|DICT|INTERRES
   105   52  131 1    
   106   53   54 2    
   107   53   55 1    
   108   55   56 1    
   109   55   59 1    
   110   55  132 1    
   111   56   57 1    
   112   56  133 1    
   113   56  134 1    
   114   57   58 1    
   115   58  135 1    
   116   58  136 1    
   117   59   60 am   BACKBONE|DICT|INTERRES
   118   59  137 1    
   119   60   61 2    
   120   60   62 1    
   121   62   63 1    
   122   62   64 1    
   123   62  138 1    
   124   63  139 1    
   125   63  140 1    
   126   63  141 1    
   127   64   65 am   BACKBONE|DICT|INTERRES
   128   64  142 1    
   129   65   66 2    
   130   65   67 1    
   131   67   68 1    
   132   67   69 1    
   133   67  143 1    
   134   68  144 1    
   135   68  145 1    
   136   68  146 1    
   137   69   70 am   BACKBONE|DICT|INTERRES
   138   69  147 1    
   139   70   71 2    
   140   70   72 1    
   141   72   73 1    
   142   72   74 1    
   143   72  148 1    
   144   73  149 1    
   145   73  150 1    
   146   73  151 1    
   147   74   75 am   BACKBONE|DICT|INTERRES
   148   74  152 1    
   149   75   76 2    
   150   75   77 1    
   151   77   78 1    
   152   77   79 1    
   153   77  153 1    
   154   78  154 1    
   155   78  155 1    
   156   78  156 1    
   157   79   80 am   BACKBONE|DICT|INTERRES
   158   79  157 1    
   159   80   81 2    
@<TRIPOS>SUBSTRUCTURE
     1 UNK         1 GROUP             0       ****    0 ROOT    
