@<TRIPOS>MOLECULE
3R207
157   159    1
SMALL
USER_CHARGES


@<TRIPOS>ATOM
      1 CA        -45.3343  -31.0753    5.9226 C.3       0 UNK        -0.1975 
      2 C         -46.4768  -30.3538    5.2233 C.2       0 UNK         0.4852 
      3 O         -46.4230  -30.1538    4.0094 O.2       0 UNK        -0.5216 
      4 N         -47.5090  -29.9602    5.9817 N.am      1 UNK        -0.4461 
      5 CA        -48.7076  -29.2673    5.4850 C.3       1 UNK         0.0864 
      6 C6        -49.8327  -29.2244    6.5471 C.3       14 UNK        -0.0898 
      7 S7        -50.2641  -30.8557    7.2341 S.3       14 UNK        -0.2598 
      8 C8        -50.8927  -30.3678    8.8717 C.3       14 UNK         0.0286 
      9 C9        -52.2370  -29.6617    8.7701 C.ar      14 UNK        -0.0844 
     10 C10       -52.3031  -28.2691    8.6490 C.ar      14 UNK        -0.0881 
     11 C11       -53.5394  -27.6195    8.5763 C.ar      14 UNK        -0.0643 
     12 C12       -54.7144  -28.3749    8.6457 C.ar      14 UNK        -0.0930 
     13 C13       -54.6617  -29.7671    8.7686 C.ar      14 UNK        -0.0827 
     14 C14       -53.4195  -30.4053    8.8143 C.ar      14 UNK        -0.1249 
     15 C15       -55.9472  -30.5810    8.8454 C.3       14 UNK         0.0141 
     16 S16       -56.1754  -31.3935   10.4629 S.3       14 UNK        -0.2313 
     17 C17       -56.2179  -29.9727   11.6086 C.3       14 UNK        -0.0915 
     18 CA        -55.2095  -30.1005   12.7832 C.3       13 UNK         0.0968 
     19 C         -53.7277  -30.0475   12.3360 C.2       13 UNK         0.5732 
     20 N         -53.0675  -31.1909   12.2135 N.am      13 UNK        -0.7310 
     21 O         -53.1724  -28.9734   12.1166 O.2       13 UNK        -0.5035 
     22 N         -55.4087  -29.0411   13.7680 N.am      13 UNK        -0.4233 
     23 C         -56.3735  -28.9639   14.6872 C.2       13 UNK         0.4989 
     24 O         -57.2533  -29.8134   14.8323 O.2       13 UNK        -0.4996 
     25 CA        -56.3541  -27.7315   15.6102 C.3       12 UNK         0.0216 
     26 CB        -55.9264  -28.1282   17.0329 C.3       12 UNK        -0.1964 
     27 N         -55.4708  -26.6663   15.1199 N.am      12 UNK        -0.4276 
     28 C         -55.7961  -25.7989   14.1473 C.2       12 UNK         0.5020 
     29 O         -56.8923  -25.8055   13.5843 O.2       12 UNK        -0.5489 
     30 CA        -54.7294  -24.7726   13.7030 C.3       11 UNK         0.0294 
     31 CB        -55.3425  -23.4111   13.3145 C.3       11 UNK        -0.2019 
     32 N         -53.6255  -24.5956   14.6529 N.am      11 UNK        -0.4493 
     33 C         -53.6959  -24.1790   15.9267 C.2       11 UNK         0.4932 
     34 O         -54.7312  -23.7746   16.4579 O.2       11 UNK        -0.5029 
     35 CA        -52.3982  -24.2649   16.7567 C.3       10 UNK         0.0280 
     36 CB        -52.6755  -24.4323   18.2657 C.3       10 UNK        -0.1976 
     37 N         -51.4589  -25.2983   16.2963 N.am      10 UNK        -0.4242 
     38 C         -51.6853  -26.6179   16.1740 C.2       10 UNK         0.5072 
     39 O         -52.7766  -27.1366   16.4163 O.2       10 UNK        -0.5224 
     40 CA        -50.5349  -27.5143   15.6662 C.3       9 UNK         0.0343 
     41 CB        -51.0033  -28.4128   14.5107 C.3       9 UNK        -0.2003 
     42 N         -49.3652  -26.7594   15.2150 N.am      9 UNK        -0.4272 
     43 C         -48.3768  -26.3144   16.0013 C.2       9 UNK         0.4988 
     44 O         -48.2870  -26.5691   17.2024 O.2       9 UNK        -0.5108 
     45 CA        -47.3405  -25.3830   15.3454 C.3       8 UNK         0.0248 
     46 CB        -46.1788  -26.1979   14.7556 C.3       8 UNK        -0.2001 
     47 N         -47.9167  -24.5132   14.3110 N.am      8 UNK        -0.4140 
     48 C         -48.8741  -23.6003   14.5363 C.2       8 UNK         0.5028 
     49 O         -49.3308  -23.3585   15.6533 O.2       8 UNK        -0.5428 
     50 CA        -49.4658  -22.8706   13.3201 C.3       7 UNK         0.0264 
     51 CB        -48.5639  -21.7018   12.8947 C.3       7 UNK        -0.1988 
     52 N         -49.7105  -23.7537   12.1771 N.am      7 UNK        -0.4454 
     53 C         -50.5759  -24.7800   12.1652 C.2       7 UNK         0.5027 
     54 O         -51.2835  -25.0847   13.1260 O.2       7 UNK        -0.5083 
     55 CA        -50.6180  -25.6387   10.8807 C.3       6 UNK         0.0844 
     56 C56       -51.4143  -24.9442    9.7477 C.3       14 UNK        -0.0967 
     57 S57       -53.2168  -25.1869    9.9066 S.3       14 UNK        -0.2604 
     58 C58       -53.6166  -26.1097    8.3866 C.3       14 UNK         0.0134 
     59 N         -49.2711  -26.0103   10.4397 N.am      6 UNK        -0.4116 
     60 C         -48.3979  -26.7296   11.1592 C.2       5 UNK         0.5034 
     61 O         -48.6525  -27.2412   12.2491 O.2       5 UNK        -0.5045 
     62 CA        -46.9768  -26.8406   10.5868 C.3       5 UNK         0.0224 
     63 CB        -46.8873  -27.9668    9.5427 C.3       5 UNK        -0.1978 
     64 N         -46.5273  -25.5714   10.0043 N.am      5 UNK        -0.4737 
     65 C         -46.2373  -24.4785   10.7266 C.2       4 UNK         0.5027 
     66 O         -46.2761  -24.4464   11.9551 O.2       4 UNK        -0.5211 
     67 CA        -45.8829  -23.1957    9.9548 C.3       4 UNK         0.0297 
     68 CB        -44.3910  -23.1852    9.5870 C.3       4 UNK        -0.1993 
     69 N         -46.6877  -23.0115    8.7454 N.am      4 UNK        -0.4486 
     70 C         -48.0166  -22.8306    8.7282 C.2       3 UNK         0.4961 
     71 O         -48.7099  -22.7449    9.7399 O.2       3 UNK        -0.5105 
     72 CA        -48.6964  -22.8082    7.3470 C.3       3 UNK         0.0299 
     73 CB        -48.7308  -21.3786    6.7852 C.3       3 UNK        -0.1972 
     74 N         -48.0595  -23.7080    6.3777 N.am      3 UNK        -0.4305 
     75 C         -47.9423  -25.0322    6.5439 C.2       2 UNK         0.5006 
     76 O         -48.3967  -25.6397    7.5193 O.2       2 UNK        -0.5106 
     77 CA        -47.1038  -25.7784    5.4931 C.3       2 UNK         0.0296 
     78 CB        -45.6037  -25.5438    5.7429 C.3       2 UNK        -0.2002 
     79 N         -47.3667  -27.2128    5.5643 N.am      2 UNK        -0.4032 
     80 C         -48.4260  -27.8231    5.0180 C.2       1 UNK         0.5000 
     81 O         -49.1910  -27.2830    4.2161 O.2       1 UNK        -0.5238 
     82 H82       -45.5100  -31.1771    6.9934 H         1 UNK         0.0889 
     83 H83       -44.4029  -30.5274    5.7825 H         1 UNK         0.0889 
     84 H84       -45.2092  -32.0733    5.5035 H         1 UNK         0.0889 
     85 H85       -47.5200  -30.1929    6.9645 H         1 UNK         0.3028 
     86 H86       -49.0757  -29.8212    4.6185 H         1 UNK         0.0864 
     87 H87       -49.5412  -28.5674    7.3690 H         1 UNK         0.0720 
     88 H88       -50.7424  -28.7955    6.1213 H         1 UNK         0.0720 
     89 H89       -50.9930  -31.2621    9.4885 H         1 UNK         0.0814 
     90 H90       -50.1646  -29.7332    9.3800 H         1 UNK         0.0814 
     91 H91       -51.3922  -27.6903    8.6088 H         1 UNK         0.1469 
     92 H92       -55.6733  -27.8773    8.5988 H         1 UNK         0.1381 
     93 H93       -53.3752  -31.4815    8.9105 H         1 UNK         0.1206 
     94 H94       -55.9307  -31.3455    8.0674 H         1 UNK         0.0813 
     95 H95       -56.8171  -29.9556    8.6390 H         1 UNK         0.0813 
     96 H96       -56.0562  -29.0387   11.0693 H         1 UNK         0.0638 
     97 H97       -57.2352  -29.9146   11.9974 H         1 UNK         0.0638 
     98 H98       -55.3785  -31.0541   13.2874 H         1 UNK         0.0568 
     99 H99       -53.5212  -32.0754   12.3768 H         1 UNK         0.3450 
    100 H100      -52.1028  -31.1631   11.9288 H         1 UNK         0.3450 
    101 H101      -54.7078  -28.3132   13.7309 H         1 UNK         0.2987 
    102 H102      -57.3738  -27.3437   15.6600 H         1 UNK         0.0766 
    103 H103      -55.9082  -27.2648   17.6984 H         1 UNK         0.0798 
    104 H104      -54.9350  -28.5824   17.0455 H         1 UNK         0.0798 
    105 H105      -56.6204  -28.8530   17.4606 H         1 UNK         0.0798 
    106 H106      -54.5457  -26.6169   15.5392 H         1 UNK         0.3198 
    107 H107      -54.2753  -25.1943   12.8051 H         1 UNK         0.0843 
    108 H108      -54.5755  -22.7138   12.9776 H         1 UNK         0.0831 
    109 H109      -55.8731  -22.9525   14.1492 H         1 UNK         0.0831 
    110 H110      -56.0563  -23.5222   12.4974 H         1 UNK         0.0831 
    111 H111      -52.7121  -24.8729   14.2933 H         1 UNK         0.3133 
    112 H112      -51.8907  -23.3098   16.6178 H         1 UNK         0.0566 
    113 H113      -51.7480  -24.4738   18.8367 H         1 UNK         0.0814 
    114 H114      -53.2553  -23.5945   18.6549 H         1 UNK         0.0814 
    115 H115      -53.2390  -25.3427   18.4734 H         1 UNK         0.0814 
    116 H116      -50.5462  -24.9422   16.0315 H         1 UNK         0.3091 
    117 H117      -50.2441  -28.1596   16.4974 H         1 UNK         0.0702 
    118 H118      -50.2085  -29.0806   14.1783 H         1 UNK         0.0785 
    119 H119      -51.3187  -27.8208   13.6507 H         1 UNK         0.0785 
    120 H120      -51.8470  -29.0373   14.8070 H         1 UNK         0.0785 
    121 H121      -49.3338  -26.5353   14.2265 H         1 UNK         0.2998 
    122 H122      -46.9386  -24.7370   16.1286 H         1 UNK         0.0697 
    123 H123      -46.5124  -26.8482   13.9467 H         1 UNK         0.0825 
    124 H124      -45.7202  -26.8315   15.5159 H         1 UNK         0.0825 
    125 H125      -45.3974  -25.5476   14.3621 H         1 UNK         0.0825 
    126 H126      -47.5315  -24.6014   13.3731 H         1 UNK         0.3029 
    127 H127      -50.4309  -22.4595   13.6242 H         1 UNK         0.0897 
    128 H128      -49.0126  -21.1300   12.0822 H         1 UNK         0.0792 
    129 H129      -48.4001  -21.0129   13.7245 H         1 UNK         0.0792 
    130 H130      -47.5860  -22.0477   12.5595 H         1 UNK         0.0792 
    131 H131      -49.2103  -23.5278   11.3187 H         1 UNK         0.3086 
    132 H132      -51.1209  -26.5759   11.1320 H         1 UNK         0.0583 
    133 H133      -51.2076  -23.8729    9.7083 H         1 UNK         0.1020 
    134 H134      -51.0925  -25.3255    8.7779 H         1 UNK         0.1020 
    135 H135      -54.6243  -25.8256    8.0794 H         1 UNK         0.0694 
    136 H136      -52.9651  -25.8030    7.5672 H         1 UNK         0.0694 
    137 H137      -48.9651  -25.6529    9.5415 H         1 UNK         0.2989 
    138 H138      -46.3070  -27.0905   11.4128 H         1 UNK         0.1055 
    139 H139      -47.1623  -28.9254    9.9849 H         1 UNK         0.0806 
    140 H140      -45.8735  -28.0690    9.1552 H         1 UNK         0.0806 
    141 H141      -47.5555  -27.7981    8.6993 H         1 UNK         0.0806 
    142 H142      -46.5381  -25.5003    8.9971 H         1 UNK         0.3061 
    143 H143      -46.0769  -22.3481   10.6152 H         1 UNK         0.0734 
    144 H144      -44.1040  -22.2444    9.1171 H         1 UNK         0.0832 
    145 H145      -43.7707  -23.3021   10.4770 H         1 UNK         0.0832 
    146 H146      -44.1346  -23.9956    8.9034 H         1 UNK         0.0832 
    147 H147      -46.2023  -23.0581    7.8619 H         1 UNK         0.3156 
    148 H148      -49.7259  -23.1459    7.4833 H         1 UNK         0.0589 
    149 H149      -47.7284  -20.9907    6.5991 H         1 UNK         0.0808 
    150 H150      -49.2887  -21.3326    5.8498 H         1 UNK         0.0808 
    151 H151      -49.2188  -20.6977    7.4843 H         1 UNK         0.0808 
    152 H152      -47.6594  -23.2810    5.5539 H         1 UNK         0.3098 
    153 H153      -47.3655  -25.4082    4.4995 H         1 UNK         0.0720 
    154 H154      -44.9950  -26.0826    5.0163 H         1 UNK         0.0791 
    155 H155      -45.3001  -25.8706    6.7385 H         1 UNK         0.0791 
    156 H156      -45.3467  -24.4877    5.6524 H         1 UNK         0.0791 
    157 H157      -46.8168  -27.7387    6.2261 H         1 UNK         0.3028 
@<TRIPOS>BOND
     1    1    2 1    
     2    1   82 1    
     3    1   83 1    
     4    1   84 1    
     5    2    3 2    
     6    2    4 am   BACKBONE|DICT|INTERRES
     7    4    5 1    
     8    4   85 1    
     9    5    6 1    
    10    5   80 1    
    11    5   86 1    
    12    6    7 1    
    13    6   87 1    
    14    6   88 1    
    15    7    8 1    
    16    8    9 1    
    17    8   89 1    
    18    8   90 1    
    19    9   10 ar   
    20    9   14 ar   
    21   10   11 ar   
    22   10   91 1    
    23   11   12 ar   
    24   11   58 1    
    25   12   13 ar   
    26   12   92 1    
    27   13   14 ar   
    28   13   15 1    
    29   14   93 1    
    30   15   16 1    
    31   15   94 1    
    32   15   95 1    
    33   16   17 1    
    34   17   18 1    
    35   17   96 1    
    36   17   97 1    
    37   18   19 1    
    38   18   22 1    
    39   18   98 1    
    40   19   20 am   BACKBONE|DICT|INTERRES
    41   19   21 2    
    42   20   99 1    
    43   20  100 1    
    44   22   23 am   BACKBONE|DICT|INTERRES
    45   22  101 1    
    46   23   24 2    
    47   23   25 1    
    48   25   26 1    
    49   25   27 1    
    50   25  102 1    
    51   26  103 1    
    52   26  104 1    
    53   26  105 1    
    54   27   28 am   BACKBONE|DICT|INTERRES
    55   27  106 1    
    56   28   29 2    
    57   28   30 1    
    58   30   31 1    
    59   30   32 1    
    60   30  107 1    
    61   31  108 1    
    62   31  109 1    
    63   31  110 1    
    64   32   33 am   BACKBONE|DICT|INTERRES
    65   32  111 1    
    66   33   34 2    
    67   33   35 1    
    68   35   36 1    
    69   35   37 1    
    70   35  112 1    
    71   36  113 1    
    72   36  114 1    
    73   36  115 1    
    74   37   38 am   BACKBONE|DICT|INTERRES
    75   37  116 1    
    76   38   39 2    
    77   38   40 1    
    78   40   41 1    
    79   40   42 1    
    80   40  117 1    
    81   41  118 1    
    82   41  119 1    
    83   41  120 1    
    84   42   43 am   BACKBONE|DICT|INTERRES
    85   42  121 1    
    86   43   44 2    
    87   43   45 1    
    88   45   46 1    
    89   45   47 1    
    90   45  122 1    
    91   46  123 1    
    92   46  124 1    
    93   46  125 1    
    94   47   48 am   BACKBONE|DICT|INTERRES
    95   47  126 1    
    96   48   49 2    
    97   48   50 1    
    98   50   51 1    
    99   50   52 1    
   100   50  127 1    
   101   51  128 1    
   102   51  129 1    
   103   51  130 1    
   104   52   53 am   BACKBONE|DICT|INTERRES
   105   52  131 1    
   106   53   54 2    
   107   53   55 1    
   108   55   56 1    
   109   55   59 1    
   110   55  132 1    
   111   56   57 1    
   112   56  133 1    
   113   56  134 1    
   114   57   58 1    
   115   58  135 1    
   116   58  136 1    
   117   59   60 am   BACKBONE|DICT|INTERRES
   118   59  137 1    
   119   60   61 2    
   120   60   62 1    
   121   62   63 1    
   122   62   64 1    
   123   62  138 1    
   124   63  139 1    
   125   63  140 1    
   126   63  141 1    
   127   64   65 am   BACKBONE|DICT|INTERRES
   128   64  142 1    
   129   65   66 2    
   130   65   67 1    
   131   67   68 1    
   132   67   69 1    
   133   67  143 1    
   134   68  144 1    
   135   68  145 1    
   136   68  146 1    
   137   69   70 am   BACKBONE|DICT|INTERRES
   138   69  147 1    
   139   70   71 2    
   140   70   72 1    
   141   72   73 1    
   142   72   74 1    
   143   72  148 1    
   144   73  149 1    
   145   73  150 1    
   146   73  151 1    
   147   74   75 am   BACKBONE|DICT|INTERRES
   148   74  152 1    
   149   75   76 2    
   150   75   77 1    
   151   77   78 1    
   152   77   79 1    
   153   77  153 1    
   154   78  154 1    
   155   78  155 1    
   156   78  156 1    
   157   79   80 am   BACKBONE|DICT|INTERRES
   158   79  157 1    
   159   80   81 2    
@<TRIPOS>SUBSTRUCTURE
     1 UNK         1 GROUP             0       ****    0 ROOT    
