@<TRIPOS>MOLECULE
3R207
157   159    1
SMALL
USER_CHARGES


@<TRIPOS>ATOM
      1 CA        -44.3827  -27.2446    9.6821 C.3       0 UNK        -0.1975 
      2 C         -45.4781  -27.0714    8.6419 C.2       0 UNK         0.4852 
      3 O         -45.7186  -25.9518    8.1874 O.2       0 UNK        -0.5216 
      4 N         -46.1283  -28.1751    8.2441 N.am      1 UNK        -0.4461 
      5 CA        -47.2703  -28.2248    7.3155 C.3       1 UNK         0.0864 
      6 C6        -48.5702  -27.6488    7.9433 C.3       14 UNK        -0.0898 
      7 S7        -49.0903  -28.6329    9.3920 S.3       14 UNK        -0.2598 
      8 C8        -50.5877  -29.4633    8.7666 C.3       14 UNK         0.0286 
      9 C9        -51.8448  -28.7366    9.2193 C.ar      14 UNK        -0.0844 
     10 C10       -52.1840  -27.4963    8.6721 C.ar      14 UNK        -0.0881 
     11 C11       -53.3000  -26.7959    9.1386 C.ar      14 UNK        -0.0643 
     12 C12       -54.0955  -27.3575   10.1430 C.ar      14 UNK        -0.0930 
     13 C13       -53.7788  -28.6073   10.6822 C.ar      14 UNK        -0.0827 
     14 C14       -52.6580  -29.2947   10.2093 C.ar      14 UNK        -0.1249 
     15 C15       -54.6292  -29.2097   11.7898 C.3       14 UNK         0.0141 
     16 S16       -55.9914  -30.1982   11.1013 S.3       14 UNK        -0.2313 
     17 C17       -56.5864  -31.0760   12.5860 C.3       14 UNK        -0.0915 
     18 CA        -58.0051  -30.6172   13.0444 C.3       13 UNK         0.0968 
     19 C         -58.6236  -31.5031   14.1718 C.2       13 UNK         0.5732 
     20 N         -58.3345  -32.7977   14.2061 N.am      13 UNK        -0.7310 
     21 O         -59.4178  -31.0410   14.9903 O.2       13 UNK        -0.5035 
     22 N         -58.0790  -29.1766   13.3465 N.am      13 UNK        -0.4233 
     23 C         -57.4374  -28.5490   14.3398 C.2       13 UNK         0.4989 
     24 O         -56.6388  -29.0899   15.1080 O.2       13 UNK        -0.4996 
     25 CA        -57.7719  -27.0642   14.5316 C.3       12 UNK         0.0216 
     26 CB        -58.6981  -26.8699   15.7434 C.3       12 UNK        -0.1964 
     27 N         -56.5404  -26.3101   14.7444 N.am      12 UNK        -0.4276 
     28 C         -55.7909  -25.7802   13.7751 C.2       12 UNK         0.5020 
     29 O         -56.1156  -25.7821   12.5877 O.2       12 UNK        -0.5489 
     30 CA        -54.4549  -25.1336   14.1808 C.3       11 UNK         0.0294 
     31 CB        -54.6639  -23.7144   14.7424 C.3       11 UNK        -0.2019 
     32 N         -53.6003  -25.9423   15.0636 N.am      11 UNK        -0.4493 
     33 C         -53.8194  -26.3327   16.3285 C.2       11 UNK         0.4932 
     34 O         -54.8555  -26.0801   16.9461 O.2       11 UNK        -0.5029 
     35 CA        -52.6889  -27.0938   17.0506 C.3       10 UNK         0.0280 
     36 CB        -53.2278  -28.1518   18.0377 C.3       10 UNK        -0.1976 
     37 N         -51.6615  -27.6603   16.1669 N.am      10 UNK        -0.4242 
     38 C         -51.7857  -28.6794   15.2994 C.2       10 UNK         0.5072 
     39 O         -52.8386  -29.2873   15.1068 O.2       10 UNK        -0.5224 
     40 CA        -50.5247  -29.0925   14.5117 C.3       9 UNK         0.0343 
     41 CB        -50.8589  -29.4856   13.0645 C.3       9 UNK        -0.2003 
     42 N         -49.5432  -28.0107   14.4737 N.am      9 UNK        -0.4272 
     43 C         -48.3936  -27.9631   15.1594 C.2       9 UNK         0.4988 
     44 O         -47.9736  -28.8821   15.8628 O.2       9 UNK        -0.5108 
     45 CA        -47.5857  -26.6537   15.0722 C.3       8 UNK         0.0248 
     46 CB        -46.4255  -26.8057   14.0745 C.3       8 UNK        -0.2001 
     47 N         -48.4065  -25.4927   14.7039 N.am      8 UNK        -0.4140 
     48 C         -49.3674  -24.9714   15.4850 C.2       8 UNK         0.5028 
     49 O         -49.6173  -25.3868   16.6168 O.2       8 UNK        -0.5428 
     50 CA        -50.2475  -23.8502   14.8995 C.3       7 UNK         0.0264 
     51 CB        -49.7039  -22.4726   15.3084 C.3       7 UNK        -0.1988 
     52 N         -50.3974  -23.8974   13.4422 N.am      7 UNK        -0.4454 
     53 C         -50.8991  -24.9275   12.7437 C.2       7 UNK         0.5027 
     54 O         -51.3322  -25.9534   13.2697 O.2       7 UNK        -0.5083 
     55 CA        -50.8729  -24.8138   11.2050 C.3       6 UNK         0.0844 
     56 C56       -52.2049  -24.2090   10.6940 C.3       14 UNK        -0.0967 
     57 S57       -52.3149  -24.2046    8.8710 S.3       14 UNK        -0.2604 
     58 C58       -53.6358  -25.4250    8.5681 C.3       14 UNK         0.0134 
     59 N         -49.7106  -24.0783   10.6849 N.am      6 UNK        -0.4116 
     60 C         -48.4184  -24.2915   10.9718 C.2       5 UNK         0.5034 
     61 O         -48.0232  -25.1194   11.7932 O.2       5 UNK        -0.5045 
     62 CA        -47.4068  -23.4215   10.2069 C.3       5 UNK         0.0224 
     63 CB        -45.9580  -23.6281   10.6853 C.3       5 UNK        -0.1978 
     64 N         -47.4845  -23.6899    8.7705 N.am      5 UNK        -0.4737 
     65 C         -48.3809  -23.1386    7.9399 C.2       4 UNK         0.5027 
     66 O         -49.2282  -22.3270    8.3168 O.2       4 UNK        -0.5211 
     67 CA        -48.3450  -23.5837    6.4649 C.3       4 UNK         0.0297 
     68 CB        -48.9902  -22.5581    5.5094 C.3       4 UNK        -0.1993 
     69 N         -47.0024  -23.9633    6.0125 N.am      4 UNK        -0.4486 
     70 C         -45.9089  -23.1855    5.9416 C.2       3 UNK         0.4961 
     71 O         -45.9143  -21.9743    6.1645 O.2       3 UNK        -0.5105 
     72 CA        -44.5710  -23.8658    5.5902 C.3       3 UNK         0.0299 
     73 CB        -43.5391  -23.6442    6.7108 C.3       3 UNK        -0.1972 
     74 N         -44.7208  -25.3061    5.3717 N.am      3 UNK        -0.4305 
     75 C         -44.9185  -25.8872    4.1801 C.2       2 UNK         0.5006 
     76 O         -44.9138  -25.2754    3.1114 O.2       2 UNK        -0.5106 
     77 CA        -45.1836  -27.4060    4.1689 C.3       2 UNK         0.0296 
     78 CB        -43.8949  -28.1711    3.8260 C.3       2 UNK        -0.2002 
     79 N         -45.7356  -27.9317    5.4229 N.am      2 UNK        -0.4032 
     80 C         -46.9294  -27.6037    5.9411 C.2       1 UNK         0.5000 
     81 O         -47.7046  -26.8116    5.4022 O.2       1 UNK        -0.5238 
     82 H82       -43.5206  -26.6289    9.4273 H         1 UNK         0.0889 
     83 H83       -44.0502  -28.2801    9.7507 H         1 UNK         0.0889 
     84 H84       -44.7459  -26.9367   10.6621 H         1 UNK         0.0889 
     85 H85       -45.8768  -29.0627    8.6569 H         1 UNK         0.3028 
     86 H86       -47.4498  -29.2810    7.1077 H         1 UNK         0.0864 
     87 H87       -48.4255  -26.6144    8.2597 H         1 UNK         0.0720 
     88 H88       -49.3795  -27.6281    7.2125 H         1 UNK         0.0720 
     89 H89       -50.5898  -30.4885    9.1398 H         1 UNK         0.0814 
     90 H90       -50.5683  -29.5422    7.6790 H         1 UNK         0.0814 
     91 H91       -51.5610  -27.0549    7.9071 H         1 UNK         0.1469 
     92 H92       -54.9600  -26.8219   10.5100 H         1 UNK         0.1381 
     93 H93       -52.4059  -30.2573   10.6324 H         1 UNK         0.1206 
     94 H94       -55.0342  -28.4237   12.4277 H         1 UNK         0.0813 
     95 H95       -54.0083  -29.8345   12.4336 H         1 UNK         0.0813 
     96 H96       -56.5917  -32.1341   12.3224 H         1 UNK         0.0638 
     97 H97       -55.8646  -30.9758   13.3980 H         1 UNK         0.0638 
     98 H98       -58.6772  -30.7592   12.1977 H         1 UNK         0.0568 
     99 H99       -57.7087  -33.2117   13.5339 H         1 UNK         0.3450 
    100 H100      -58.7527  -33.3716   14.9214 H         1 UNK         0.3450 
    101 H101      -58.7369  -28.6537   12.7875 H         1 UNK         0.2987 
    102 H102      -58.2837  -26.6868   13.6434 H         1 UNK         0.0766 
    103 H103      -59.6303  -27.4218   15.6145 H         1 UNK         0.0798 
    104 H104      -58.9577  -25.8199   15.8795 H         1 UNK         0.0798 
    105 H105      -58.2349  -27.2229   16.6660 H         1 UNK         0.0798 
    106 H106      -56.1467  -26.3132   15.6839 H         1 UNK         0.3198 
    107 H107      -53.8877  -25.0277   13.2573 H         1 UNK         0.0843 
    108 H108      -53.7119  -23.2130   14.9163 H         1 UNK         0.0831 
    109 H109      -55.2160  -23.7227   15.6825 H         1 UNK         0.0831 
    110 H110      -55.2297  -23.0993   14.0413 H         1 UNK         0.0831 
    111 H111      -52.7249  -26.2269   14.6324 H         1 UNK         0.3133 
    112 H112      -52.1689  -26.3400   17.6433 H         1 UNK         0.0566 
    113 H113      -52.4164  -28.6734   18.5452 H         1 UNK         0.0814 
    114 H114      -53.8460  -28.8966   17.5352 H         1 UNK         0.0814 
    115 H115      -53.8450  -27.6896   18.8090 H         1 UNK         0.0814 
    116 H116      -50.7568  -27.2076   16.2342 H         1 UNK         0.3091 
    117 H117      -50.1079  -29.9672   15.0145 H         1 UNK         0.0702 
    118 H118      -49.9653  -29.7798   12.5137 H         1 UNK         0.0785 
    119 H119      -51.3197  -28.6541   12.5304 H         1 UNK         0.0785 
    120 H120      -51.5512  -30.3274   13.0318 H         1 UNK         0.0785 
    121 H121      -49.8273  -27.1953   13.9412 H         1 UNK         0.2998 
    122 H122      -47.1620  -26.4618   16.0603 H         1 UNK         0.0697 
    123 H123      -46.7818  -27.0659   13.0769 H         1 UNK         0.0825 
    124 H124      -45.7432  -27.5961   14.3898 H         1 UNK         0.0825 
    125 H125      -45.8438  -25.8872   13.9939 H         1 UNK         0.0825 
    126 H126      -48.2890  -25.1434   13.7566 H         1 UNK         0.3029 
    127 H127      -51.2432  -23.9666   15.3328 H         1 UNK         0.0897 
    128 H128      -48.7200  -22.2821   14.8777 H         1 UNK         0.0792 
    129 H129      -49.6049  -22.3985   16.3925 H         1 UNK         0.0792 
    130 H130      -50.3720  -21.6714   14.9918 H         1 UNK         0.0792 
    131 H131      -50.0591  -23.0968   12.9283 H         1 UNK         0.3086 
    132 H132      -50.7909  -25.8331   10.8212 H         1 UNK         0.0583 
    133 H133      -53.0573  -24.7583   11.0963 H         1 UNK         0.1020 
    134 H134      -52.3202  -23.1811   11.0434 H         1 UNK         0.1020 
    135 H135      -54.5700  -25.0465    8.9862 H         1 UNK         0.0694 
    136 H136      -53.7938  -25.5154    7.4927 H         1 UNK         0.0694 
    137 H137      -49.9125  -23.3994    9.9579 H         1 UNK         0.2989 
    138 H138      -47.6664  -22.3767   10.3931 H         1 UNK         0.1055 
    139 H139      -45.2622  -23.0003   10.1283 H         1 UNK         0.0806 
    140 H140      -45.6380  -24.6628   10.5724 H         1 UNK         0.0806 
    141 H141      -45.8558  -23.3713   11.7405 H         1 UNK         0.0806 
    142 H142      -46.8466  -24.3973    8.4112 H         1 UNK         0.3061 
    143 H143      -48.9441  -24.4943    6.4175 H         1 UNK         0.0734 
    144 H144      -48.4933  -21.5889    5.5580 H         1 UNK         0.0832 
    145 H145      -48.9571  -22.9027    4.4760 H         1 UNK         0.0832 
    146 H146      -50.0388  -22.3966    5.7625 H         1 UNK         0.0832 
    147 H147      -46.8989  -24.9496    5.7992 H         1 UNK         0.3156 
    148 H148      -44.1916  -23.3903    4.6835 H         1 UNK         0.0589 
    149 H149      -43.8824  -24.0482    7.6639 H         1 UNK         0.0808 
    150 H150      -43.3460  -22.5812    6.8607 H         1 UNK         0.0808 
    151 H151      -42.5850  -24.1137    6.4708 H         1 UNK         0.0808 
    152 H152      -44.7872  -25.8700    6.2106 H         1 UNK         0.3098 
    153 H153      -45.9151  -27.5990    3.3813 H         1 UNK         0.0720 
    154 H154      -43.4745  -27.8244    2.8807 H         1 UNK         0.0791 
    155 H155      -44.0826  -29.2399    3.7207 H         1 UNK         0.0791 
    156 H156      -43.1292  -28.0368    4.5912 H         1 UNK         0.0791 
    157 H157      -45.1528  -28.5745    5.9403 H         1 UNK         0.3028 
@<TRIPOS>BOND
     1    1    2 1    
     2    1   82 1    
     3    1   83 1    
     4    1   84 1    
     5    2    3 2    
     6    2    4 am   BACKBONE|DICT|INTERRES
     7    4    5 1    
     8    4   85 1    
     9    5    6 1    
    10    5   80 1    
    11    5   86 1    
    12    6    7 1    
    13    6   87 1    
    14    6   88 1    
    15    7    8 1    
    16    8    9 1    
    17    8   89 1    
    18    8   90 1    
    19    9   10 ar   
    20    9   14 ar   
    21   10   11 ar   
    22   10   91 1    
    23   11   12 ar   
    24   11   58 1    
    25   12   13 ar   
    26   12   92 1    
    27   13   14 ar   
    28   13   15 1    
    29   14   93 1    
    30   15   16 1    
    31   15   94 1    
    32   15   95 1    
    33   16   17 1    
    34   17   18 1    
    35   17   96 1    
    36   17   97 1    
    37   18   19 1    
    38   18   22 1    
    39   18   98 1    
    40   19   20 am   BACKBONE|DICT|INTERRES
    41   19   21 2    
    42   20   99 1    
    43   20  100 1    
    44   22   23 am   BACKBONE|DICT|INTERRES
    45   22  101 1    
    46   23   24 2    
    47   23   25 1    
    48   25   26 1    
    49   25   27 1    
    50   25  102 1    
    51   26  103 1    
    52   26  104 1    
    53   26  105 1    
    54   27   28 am   BACKBONE|DICT|INTERRES
    55   27  106 1    
    56   28   29 2    
    57   28   30 1    
    58   30   31 1    
    59   30   32 1    
    60   30  107 1    
    61   31  108 1    
    62   31  109 1    
    63   31  110 1    
    64   32   33 am   BACKBONE|DICT|INTERRES
    65   32  111 1    
    66   33   34 2    
    67   33   35 1    
    68   35   36 1    
    69   35   37 1    
    70   35  112 1    
    71   36  113 1    
    72   36  114 1    
    73   36  115 1    
    74   37   38 am   BACKBONE|DICT|INTERRES
    75   37  116 1    
    76   38   39 2    
    77   38   40 1    
    78   40   41 1    
    79   40   42 1    
    80   40  117 1    
    81   41  118 1    
    82   41  119 1    
    83   41  120 1    
    84   42   43 am   BACKBONE|DICT|INTERRES
    85   42  121 1    
    86   43   44 2    
    87   43   45 1    
    88   45   46 1    
    89   45   47 1    
    90   45  122 1    
    91   46  123 1    
    92   46  124 1    
    93   46  125 1    
    94   47   48 am   BACKBONE|DICT|INTERRES
    95   47  126 1    
    96   48   49 2    
    97   48   50 1    
    98   50   51 1    
    99   50   52 1    
   100   50  127 1    
   101   51  128 1    
   102   51  129 1    
   103   51  130 1    
   104   52   53 am   BACKBONE|DICT|INTERRES
   105   52  131 1    
   106   53   54 2    
   107   53   55 1    
   108   55   56 1    
   109   55   59 1    
   110   55  132 1    
   111   56   57 1    
   112   56  133 1    
   113   56  134 1    
   114   57   58 1    
   115   58  135 1    
   116   58  136 1    
   117   59   60 am   BACKBONE|DICT|INTERRES
   118   59  137 1    
   119   60   61 2    
   120   60   62 1    
   121   62   63 1    
   122   62   64 1    
   123   62  138 1    
   124   63  139 1    
   125   63  140 1    
   126   63  141 1    
   127   64   65 am   BACKBONE|DICT|INTERRES
   128   64  142 1    
   129   65   66 2    
   130   65   67 1    
   131   67   68 1    
   132   67   69 1    
   133   67  143 1    
   134   68  144 1    
   135   68  145 1    
   136   68  146 1    
   137   69   70 am   BACKBONE|DICT|INTERRES
   138   69  147 1    
   139   70   71 2    
   140   70   72 1    
   141   72   73 1    
   142   72   74 1    
   143   72  148 1    
   144   73  149 1    
   145   73  150 1    
   146   73  151 1    
   147   74   75 am   BACKBONE|DICT|INTERRES
   148   74  152 1    
   149   75   76 2    
   150   75   77 1    
   151   77   78 1    
   152   77   79 1    
   153   77  153 1    
   154   78  154 1    
   155   78  155 1    
   156   78  156 1    
   157   79   80 am   BACKBONE|DICT|INTERRES
   158   79  157 1    
   159   80   81 2    
@<TRIPOS>SUBSTRUCTURE
     1 UNK         1 GROUP             0       ****    0 ROOT    
