@<TRIPOS>MOLECULE
3R207
157   159    1
SMALL
USER_CHARGES


@<TRIPOS>ATOM
      1 CA        -51.6674  -22.2533    4.7505 C.3       0 UNK        -0.1975 
      2 C         -51.4247  -22.7153    6.1791 C.2       0 UNK         0.4852 
      3 O         -51.3613  -21.8894    7.0907 O.2       0 UNK        -0.5216 
      4 N         -51.2634  -24.0286    6.3850 N.am      1 UNK        -0.4461 
      5 CA        -51.0436  -24.6973    7.6757 C.3       1 UNK         0.0864 
      6 C6        -51.4959  -26.1779    7.6126 C.3       14 UNK        -0.0898 
      7 S7        -50.7610  -27.1422    6.2394 S.3       14 UNK        -0.2598 
      8 C8        -51.9088  -28.5582    6.1242 C.3       14 UNK         0.0286 
      9 C9        -52.1467  -29.1984    7.4841 C.ar      14 UNK        -0.0844 
     10 C10       -51.1136  -29.8870    8.1250 C.ar      14 UNK        -0.0881 
     11 C11       -51.2809  -30.3541    9.4310 C.ar      14 UNK        -0.0643 
     12 C12       -52.5044  -30.1686   10.0786 C.ar      14 UNK        -0.0930 
     13 C13       -53.5570  -29.5149    9.4336 C.ar      14 UNK        -0.0827 
     14 C14       -53.3742  -29.0349    8.1340 C.ar      14 UNK        -0.1249 
     15 C15       -54.8599  -29.2484   10.1687 C.3       14 UNK         0.0141 
     16 S16       -56.0424  -30.6233   10.0501 S.3       14 UNK        -0.2313 
     17 C17       -55.5535  -31.6830   11.4539 C.3       14 UNK        -0.0915 
     18 CA        -56.3913  -31.4110   12.7343 C.3       13 UNK         0.0968 
     19 C         -56.2783  -32.5924   13.7435 C.2       13 UNK         0.5732 
     20 N         -55.7772  -32.3935   14.9574 N.am      13 UNK        -0.7310 
     21 O         -56.6666  -33.7130   13.4218 O.2       13 UNK        -0.5035 
     22 N         -56.0900  -30.0919   13.3243 N.am      13 UNK        -0.4233 
     23 C         -56.9554  -29.3760   14.0553 C.2       13 UNK         0.4989 
     24 O         -58.1227  -29.7167   14.2532 O.2       13 UNK        -0.4996 
     25 CA        -56.4488  -28.0731   14.7058 C.3       12 UNK         0.0216 
     26 CB        -56.2168  -28.2813   16.2118 C.3       12 UNK        -0.1964 
     27 N         -55.2287  -27.5110   14.1172 N.am      12 UNK        -0.4276 
     28 C         -55.1584  -26.9208   12.9145 C.2       12 UNK         0.5020 
     29 O         -56.1046  -26.8608   12.1280 O.2       12 UNK        -0.5489 
     30 CA        -53.8001  -26.2809   12.5498 C.3       11 UNK         0.0294 
     31 CB        -53.8438  -25.4310   11.2630 C.3       11 UNK        -0.2019 
     32 N         -53.2340  -25.5107   13.6636 N.am      11 UNK        -0.4493 
     33 C         -53.8338  -24.5261   14.3555 C.2       11 UNK         0.4932 
     34 O         -54.9102  -24.0225   14.0317 O.2       11 UNK        -0.5029 
     35 CA        -53.1350  -24.0171   15.6330 C.3       10 UNK         0.0280 
     36 CB        -54.1395  -23.7897   16.7829 C.3       10 UNK        -0.1976 
     37 N         -52.0085  -24.8405   16.0928 N.am      10 UNK        -0.4242 
     38 C         -52.0242  -26.1210   16.5024 C.2       10 UNK         0.5072 
     39 O         -53.0417  -26.8169   16.5156 O.2       10 UNK        -0.5224 
     40 CA        -50.6732  -26.7403   16.9173 C.3       9 UNK         0.0343 
     41 CB        -50.5920  -28.2329   16.5462 C.3       9 UNK        -0.2003 
     42 N         -49.5592  -26.0378   16.2775 N.am      9 UNK        -0.4272 
     43 C         -48.7253  -25.1735   16.8740 C.2       9 UNK         0.4988 
     44 O         -48.7231  -24.9475   18.0840 O.2       9 UNK        -0.5108 
     45 CA        -47.7505  -24.3968   15.9638 C.3       8 UNK         0.0248 
     46 CB        -46.3682  -25.0685   15.9660 C.3       8 UNK        -0.2001 
     47 N         -48.2247  -24.2598   14.5805 N.am      8 UNK        -0.4140 
     48 C         -49.3303  -23.5854   14.2198 C.2       8 UNK         0.5028 
     49 O         -49.9942  -22.9125   15.0075 O.2       8 UNK        -0.5428 
     50 CA        -49.8363  -23.7418   12.7703 C.3       7 UNK         0.0264 
     51 CB        -49.4297  -22.5270   11.9234 C.3       7 UNK        -0.1988 
     52 N         -49.3796  -24.9723   12.1165 N.am      7 UNK        -0.4454 
     53 C         -49.6274  -26.2170   12.5533 C.2       7 UNK         0.5027 
     54 O         -50.4117  -26.4623   13.4719 O.2       7 UNK        -0.5083 
     55 CA        -48.8099  -27.3688   11.9316 C.3       6 UNK         0.0844 
     56 C56       -49.7157  -28.3427   11.1476 C.3       14 UNK        -0.0967 
     57 S57       -48.7903  -29.7873   10.5149 S.3       14 UNK        -0.2604 
     58 C58       -50.1172  -30.9897   10.1753 C.3       14 UNK         0.0134 
     59 N         -47.6732  -26.8996   11.1296 N.am      6 UNK        -0.4116 
     60 C         -46.5586  -26.3334   11.6128 C.2       5 UNK         0.5034 
     61 O         -46.4170  -26.0454   12.8020 O.2       5 UNK        -0.5045 
     62 CA        -45.4415  -25.9694   10.6137 C.3       5 UNK         0.0224 
     63 CB        -44.0581  -26.4534   11.0945 C.3       5 UNK        -0.1978 
     64 N         -45.7108  -26.3815    9.2272 N.am      5 UNK        -0.4737 
     65 C         -45.7713  -27.6216    8.7148 C.2       4 UNK         0.5027 
     66 O         -45.4909  -28.6374    9.3492 O.2       4 UNK        -0.5211 
     67 CA        -46.2756  -27.7639    7.2654 C.3       4 UNK         0.0297 
     68 CB        -47.5423  -28.6348    7.2228 C.3       4 UNK        -0.1993 
     69 N         -46.5891  -26.4675    6.6588 N.am      4 UNK        -0.4486 
     70 C         -45.7667  -25.7783    5.8552 C.2       3 UNK         0.4961 
     71 O         -44.6754  -26.1963    5.4681 O.2       3 UNK        -0.5105 
     72 CA        -46.2240  -24.3699    5.4271 C.3       3 UNK         0.0299 
     73 CB        -46.9728  -24.4357    4.0862 C.3       3 UNK        -0.1972 
     74 N         -47.0719  -23.6995    6.4176 N.am      3 UNK        -0.4305 
     75 C         -46.7029  -23.3796    7.6672 C.2       2 UNK         0.5006 
     76 O         -45.5704  -23.5593    8.1121 O.2       2 UNK        -0.5106 
     77 CA        -47.7905  -22.8278    8.6047 C.3       2 UNK         0.0296 
     78 CB        -47.7280  -21.2938    8.6636 C.3       2 UNK        -0.2002 
     79 N         -49.1466  -23.2444    8.2374 N.am      2 UNK        -0.4032 
     80 C         -49.6048  -24.5036    8.2178 C.2       1 UNK         0.5000 
     81 O         -48.9225  -25.4680    8.5764 O.2       1 UNK        -0.5238 
     82 H82       -51.6849  -23.0877    4.0496 H         1 UNK         0.0889 
     83 H83       -50.8817  -21.5652    4.4399 H         1 UNK         0.0889 
     84 H84       -52.6225  -21.7333    4.6828 H         1 UNK         0.0889 
     85 H85       -51.2985  -24.6591    5.5953 H         1 UNK         0.3028 
     86 H86       -51.6895  -24.2094    8.4092 H         1 UNK         0.0864 
     87 H87       -52.5805  -26.2064    7.4971 H         1 UNK         0.0720 
     88 H88       -51.2916  -26.6868    8.5556 H         1 UNK         0.0720 
     89 H89       -51.4969  -29.2990    5.4377 H         1 UNK         0.0814 
     90 H90       -52.8487  -28.2199    5.6856 H         1 UNK         0.0814 
     91 H91       -50.1569  -29.9993    7.6340 H         1 UNK         0.1469 
     92 H92       -52.6208  -30.5033   11.0989 H         1 UNK         0.1381 
     93 H93       -54.1738  -28.4944    7.6460 H         1 UNK         0.1206 
     94 H94       -54.6449  -29.0461   11.2143 H         1 UNK         0.0813 
     95 H95       -55.3332  -28.3468    9.7766 H         1 UNK         0.0813 
     96 H96       -54.4891  -31.5836   11.6604 H         1 UNK         0.0638 
     97 H97       -55.6930  -32.7114   11.1153 H         1 UNK         0.0638 
     98 H98       -57.4398  -31.4064   12.4302 H         1 UNK         0.0568 
     99 H99       -55.7189  -33.1699   15.5972 H         1 UNK         0.3450 
    100 H100      -55.4604  -31.4816   15.2412 H         1 UNK         0.3450 
    101 H101      -55.1422  -29.7619   13.2370 H         1 UNK         0.2987 
    102 H102      -57.2428  -27.3325   14.5877 H         1 UNK         0.0766 
    103 H103      -55.9675  -27.3423   16.7070 H         1 UNK         0.0798 
    104 H104      -55.4045  -28.9835   16.4033 H         1 UNK         0.0798 
    105 H105      -57.1111  -28.6739   16.6982 H         1 UNK         0.0798 
    106 H106      -54.4176  -27.4647   14.7235 H         1 UNK         0.3198 
    107 H107      -53.1121  -27.1086   12.3697 H         1 UNK         0.0843 
    108 H108      -54.5403  -24.5970   11.3537 H         1 UNK         0.0831 
    109 H109      -54.1622  -26.0306   10.4094 H         1 UNK         0.0831 
    110 H110      -52.8610  -25.0247   11.0240 H         1 UNK         0.0831 
    111 H111      -52.3259  -25.8306   13.9843 H         1 UNK         0.3133 
    112 H112      -52.7097  -23.0471   15.3725 H         1 UNK         0.0566 
    113 H113      -53.6418  -23.4131   17.6765 H         1 UNK         0.0814 
    114 H114      -54.8972  -23.0561   16.5048 H         1 UNK         0.0814 
    115 H115      -54.6622  -24.7085   17.0512 H         1 UNK         0.0814 
    116 H116      -51.1148  -24.3618   16.0724 H         1 UNK         0.3091 
    117 H117      -50.6037  -26.6549   18.0034 H         1 UNK         0.0702 
    118 H118      -49.6310  -28.6599   16.8329 H         1 UNK         0.0785 
    119 H119      -50.7221  -28.3894   15.4745 H         1 UNK         0.0785 
    120 H120      -51.3649  -28.8084   17.0573 H         1 UNK         0.0785 
    121 H121      -49.5158  -26.1406   15.2696 H         1 UNK         0.2998 
    122 H122      -47.6435  -23.3925   16.3791 H         1 UNK         0.0697 
    123 H123      -46.4124  -26.0839   15.5700 H         1 UNK         0.0825 
    124 H124      -45.9657  -25.1307   16.9781 H         1 UNK         0.0825 
    125 H125      -45.6515  -24.5069   15.3664 H         1 UNK         0.0825 
    126 H126      -47.7145  -24.7863   13.8790 H         1 UNK         0.3029 
    127 H127      -50.9270  -23.7776   12.8128 H         1 UNK         0.0897 
    128 H128      -48.3472  -22.4521   11.8150 H         1 UNK         0.0792 
    129 H129      -49.7741  -21.5994   12.3831 H         1 UNK         0.0792 
    130 H130      -49.8720  -22.5719   10.9287 H         1 UNK         0.0792 
    131 H131      -48.7425  -24.8696   11.3402 H         1 UNK         0.3086 
    132 H132      -48.3938  -27.9239   12.7753 H         1 UNK         0.0583 
    133 H133      -50.5249  -28.7031   11.7862 H         1 UNK         0.1020 
    134 H134      -50.1868  -27.8345   10.3046 H         1 UNK         0.1020 
    135 H135      -49.7117  -31.8116    9.5839 H         1 UNK         0.0694 
    136 H136      -50.4498  -31.4235   11.1197 H         1 UNK         0.0694 
    137 H137      -47.7342  -27.0632   10.1343 H         1 UNK         0.2989 
    138 H138      -45.4122  -24.8788   10.5952 H         1 UNK         0.1055 
    139 H139      -43.8013  -26.0061   12.0557 H         1 UNK         0.0806 
    140 H140      -43.2738  -26.1763   10.3902 H         1 UNK         0.0806 
    141 H141      -44.0263  -27.5351   11.2264 H         1 UNK         0.0806 
    142 H142      -45.9069  -25.6137    8.5958 H         1 UNK         0.3061 
    143 H143      -45.4942  -28.2701    6.6949 H         1 UNK         0.0734 
    144 H144      -47.9066  -28.7596    6.2031 H         1 UNK         0.0832 
    145 H145      -47.3490  -29.6316    7.6216 H         1 UNK         0.0832 
    146 H146      -48.3481  -28.1989    7.8152 H         1 UNK         0.0832 
    147 H147      -47.4655  -26.0470    6.9452 H         1 UNK         0.3156 
    148 H148      -45.3285  -23.7599    5.2916 H         1 UNK         0.0589 
    149 H149      -47.8939  -25.0151    4.1649 H         1 UNK         0.0808 
    150 H150      -47.2304  -23.4401    3.7244 H         1 UNK         0.0808 
    151 H151      -46.3568  -24.9070    3.3189 H         1 UNK         0.0808 
    152 H152      -48.0222  -23.5042    6.1400 H         1 UNK         0.3098 
    153 H153      -47.5816  -23.2200    9.6013 H         1 UNK         0.0720 
    154 H154      -48.4359  -20.8945    9.3901 H         1 UNK         0.0791 
    155 H155      -47.9517  -20.8433    7.6957 H         1 UNK         0.0791 
    156 H156      -46.7348  -20.9539    8.9609 H         1 UNK         0.0791 
    157 H157      -49.7883  -22.5190    7.9239 H         1 UNK         0.3028 
@<TRIPOS>BOND
     1    1    2 1    
     2    1   82 1    
     3    1   83 1    
     4    1   84 1    
     5    2    3 2    
     6    2    4 am   BACKBONE|DICT|INTERRES
     7    4    5 1    
     8    4   85 1    
     9    5    6 1    
    10    5   80 1    
    11    5   86 1    
    12    6    7 1    
    13    6   87 1    
    14    6   88 1    
    15    7    8 1    
    16    8    9 1    
    17    8   89 1    
    18    8   90 1    
    19    9   10 ar   
    20    9   14 ar   
    21   10   11 ar   
    22   10   91 1    
    23   11   12 ar   
    24   11   58 1    
    25   12   13 ar   
    26   12   92 1    
    27   13   14 ar   
    28   13   15 1    
    29   14   93 1    
    30   15   16 1    
    31   15   94 1    
    32   15   95 1    
    33   16   17 1    
    34   17   18 1    
    35   17   96 1    
    36   17   97 1    
    37   18   19 1    
    38   18   22 1    
    39   18   98 1    
    40   19   20 am   BACKBONE|DICT|INTERRES
    41   19   21 2    
    42   20   99 1    
    43   20  100 1    
    44   22   23 am   BACKBONE|DICT|INTERRES
    45   22  101 1    
    46   23   24 2    
    47   23   25 1    
    48   25   26 1    
    49   25   27 1    
    50   25  102 1    
    51   26  103 1    
    52   26  104 1    
    53   26  105 1    
    54   27   28 am   BACKBONE|DICT|INTERRES
    55   27  106 1    
    56   28   29 2    
    57   28   30 1    
    58   30   31 1    
    59   30   32 1    
    60   30  107 1    
    61   31  108 1    
    62   31  109 1    
    63   31  110 1    
    64   32   33 am   BACKBONE|DICT|INTERRES
    65   32  111 1    
    66   33   34 2    
    67   33   35 1    
    68   35   36 1    
    69   35   37 1    
    70   35  112 1    
    71   36  113 1    
    72   36  114 1    
    73   36  115 1    
    74   37   38 am   BACKBONE|DICT|INTERRES
    75   37  116 1    
    76   38   39 2    
    77   38   40 1    
    78   40   41 1    
    79   40   42 1    
    80   40  117 1    
    81   41  118 1    
    82   41  119 1    
    83   41  120 1    
    84   42   43 am   BACKBONE|DICT|INTERRES
    85   42  121 1    
    86   43   44 2    
    87   43   45 1    
    88   45   46 1    
    89   45   47 1    
    90   45  122 1    
    91   46  123 1    
    92   46  124 1    
    93   46  125 1    
    94   47   48 am   BACKBONE|DICT|INTERRES
    95   47  126 1    
    96   48   49 2    
    97   48   50 1    
    98   50   51 1    
    99   50   52 1    
   100   50  127 1    
   101   51  128 1    
   102   51  129 1    
   103   51  130 1    
   104   52   53 am   BACKBONE|DICT|INTERRES
   105   52  131 1    
   106   53   54 2    
   107   53   55 1    
   108   55   56 1    
   109   55   59 1    
   110   55  132 1    
   111   56   57 1    
   112   56  133 1    
   113   56  134 1    
   114   57   58 1    
   115   58  135 1    
   116   58  136 1    
   117   59   60 am   BACKBONE|DICT|INTERRES
   118   59  137 1    
   119   60   61 2    
   120   60   62 1    
   121   62   63 1    
   122   62   64 1    
   123   62  138 1    
   124   63  139 1    
   125   63  140 1    
   126   63  141 1    
   127   64   65 am   BACKBONE|DICT|INTERRES
   128   64  142 1    
   129   65   66 2    
   130   65   67 1    
   131   67   68 1    
   132   67   69 1    
   133   67  143 1    
   134   68  144 1    
   135   68  145 1    
   136   68  146 1    
   137   69   70 am   BACKBONE|DICT|INTERRES
   138   69  147 1    
   139   70   71 2    
   140   70   72 1    
   141   72   73 1    
   142   72   74 1    
   143   72  148 1    
   144   73  149 1    
   145   73  150 1    
   146   73  151 1    
   147   74   75 am   BACKBONE|DICT|INTERRES
   148   74  152 1    
   149   75   76 2    
   150   75   77 1    
   151   77   78 1    
   152   77   79 1    
   153   77  153 1    
   154   78  154 1    
   155   78  155 1    
   156   78  156 1    
   157   79   80 am   BACKBONE|DICT|INTERRES
   158   79  157 1    
   159   80   81 2    
@<TRIPOS>SUBSTRUCTURE
     1 UNK         1 GROUP             0       ****    0 ROOT    
