@<TRIPOS>MOLECULE
3R207
157   159    1
SMALL
USER_CHARGES


@<TRIPOS>ATOM
      1 CA        -45.8650  -31.3623    3.1608 C.3       0 UNK        -0.1975 
      2 C         -46.6376  -30.0517    3.1957 C.2       0 UNK         0.4852 
      3 O         -46.4542  -29.2104    2.3143 O.2       0 UNK        -0.5216 
      4 N         -47.5059  -29.8780    4.1999 N.am      1 UNK        -0.4461 
      5 CA        -48.2897  -28.6599    4.4262 C.3       1 UNK         0.0864 
      6 C6        -49.4394  -28.9013    5.4297 C.3       14 UNK        -0.0898 
      7 S7        -50.7866  -29.9018    4.7188 S.3       14 UNK        -0.2598 
      8 C8        -51.4903  -30.6928    6.2107 C.3       14 UNK         0.0286 
      9 C9        -51.7979  -29.7319    7.3605 C.ar      14 UNK        -0.0844 
     10 C10       -52.2750  -28.4360    7.1287 C.ar      14 UNK        -0.0881 
     11 C11       -52.4926  -27.5536    8.1893 C.ar      14 UNK        -0.0643 
     12 C12       -52.2948  -27.9997    9.4986 C.ar      14 UNK        -0.0930 
     13 C13       -51.8313  -29.2946    9.7548 C.ar      14 UNK        -0.0827 
     14 C14       -51.5847  -30.1514    8.6778 C.ar      14 UNK        -0.1249 
     15 C15       -51.5165  -29.7681   11.1738 C.3       14 UNK         0.0141 
     16 S16       -52.5771  -29.0537   12.4748 S.3       14 UNK        -0.2313 
     17 C17       -54.1487  -29.9250   12.1731 C.3       14 UNK        -0.0915 
     18 CA        -55.2553  -29.5171   13.1820 C.3       13 UNK         0.0968 
     19 C         -56.6050  -30.2123   12.8404 C.2       13 UNK         0.5732 
     20 N         -57.1547  -31.0629   13.6993 N.am      13 UNK        -0.7310 
     21 O         -57.1690  -29.9681   11.7766 O.2       13 UNK        -0.5035 
     22 N         -54.8062  -29.6884   14.5749 N.am      13 UNK        -0.4233 
     23 C         -55.3220  -29.0574   15.6365 C.2       13 UNK         0.4989 
     24 O         -56.2660  -28.2701   15.5687 O.2       13 UNK        -0.4996 
     25 CA        -54.6888  -29.3450   17.0074 C.3       12 UNK         0.0216 
     26 CB        -53.5108  -30.3428   16.9702 C.3       12 UNK        -0.1964 
     27 N         -54.2192  -28.0864   17.5818 N.am      12 UNK        -0.4276 
     28 C         -54.5529  -27.6034   18.7844 C.2       12 UNK         0.5020 
     29 O         -55.3358  -28.1598   19.5561 O.2       12 UNK        -0.5489 
     30 CA        -53.8930  -26.2848   19.2164 C.3       11 UNK         0.0294 
     31 CB        -52.4683  -26.5472   19.7337 C.3       11 UNK        -0.2019 
     32 N         -53.8326  -25.3157   18.1197 N.am      11 UNK        -0.4493 
     33 C         -54.5184  -24.1636   18.0728 C.2       11 UNK         0.4932 
     34 O         -55.2926  -23.7907   18.9549 O.2       11 UNK        -0.5029 
     35 CA        -54.3013  -23.2533   16.8467 C.3       10 UNK         0.0280 
     36 CB        -53.2827  -22.1494   17.1737 C.3       10 UNK        -0.1976 
     37 N         -53.8460  -23.9839   15.6642 N.am      10 UNK        -0.4242 
     38 C         -54.6048  -24.8268   14.9498 C.2       10 UNK         0.5072 
     39 O         -55.8190  -24.9491   15.1107 O.2       10 UNK        -0.5224 
     40 CA        -53.8923  -25.7026   13.9012 C.3       9 UNK         0.0343 
     41 CB        -54.2916  -25.2912   12.4755 C.3       9 UNK        -0.2003 
     42 N         -52.4282  -25.7251   14.0256 N.am      9 UNK        -0.4272 
     43 C         -51.7644  -26.2761   15.0555 C.2       9 UNK         0.4988 
     44 O         -52.3330  -26.7654   16.0325 O.2       9 UNK        -0.5108 
     45 CA        -50.2266  -26.2625   15.0336 C.3       8 UNK         0.0248 
     46 CB        -49.6842  -27.6731   14.7556 C.3       8 UNK        -0.2001 
     47 N         -49.6640  -25.3163   14.0672 N.am      8 UNK        -0.4140 
     48 C         -49.6157  -23.9877   14.2567 C.2       8 UNK         0.5028 
     49 O         -50.0165  -23.4355   15.2823 O.2       8 UNK        -0.5428 
     50 CA        -49.0633  -23.1186   13.1071 C.3       7 UNK         0.0264 
     51 CB        -47.5623  -22.8584   13.3113 C.3       7 UNK        -0.1988 
     52 N         -49.2827  -23.6864   11.7719 N.am      7 UNK        -0.4454 
     53 C         -50.4871  -23.9897   11.2670 C.2       7 UNK         0.5027 
     54 O         -51.5397  -23.6928   11.8308 O.2       7 UNK        -0.5083 
     55 CA        -50.5602  -24.8441    9.9857 C.3       6 UNK         0.0844 
     56 C56       -51.1286  -24.0587    8.7826 C.3       14 UNK        -0.0967 
     57 S57       -51.4948  -25.1147    7.3359 S.3       14 UNK        -0.2604 
     58 C58       -52.9134  -26.1169    7.9050 C.3       14 UNK         0.0134 
     59 N         -49.3410  -25.6010    9.6751 N.am      6 UNK        -0.4116 
     60 C         -48.8529  -26.5847   10.4473 C.2       5 UNK         0.5034 
     61 O         -49.2996  -26.8673   11.5585 O.2       5 UNK        -0.5045 
     62 CA        -47.6540  -27.3686    9.9032 C.3       5 UNK         0.0224 
     63 CB        -48.0841  -28.2814    8.7465 C.3       5 UNK        -0.1978 
     64 N         -46.6091  -26.4529    9.4525 N.am      5 UNK        -0.4737 
     65 C         -45.6594  -25.9501   10.2536 C.2       4 UNK         0.5027 
     66 O         -45.4885  -26.3042   11.4201 O.2       4 UNK        -0.5211 
     67 CA        -44.7593  -24.8459    9.6680 C.3       4 UNK         0.0297 
     68 CB        -43.5072  -25.4599    9.0217 C.3       4 UNK        -0.1993 
     69 N         -45.4425  -23.9963    8.6892 N.am      4 UNK        -0.4486 
     70 C         -46.5217  -23.2431    8.9456 C.2       3 UNK         0.4961 
     71 O         -47.0258  -23.1251   10.0607 O.2       3 UNK        -0.5105 
     72 CA        -47.1862  -22.5413    7.7494 C.3       3 UNK         0.0299 
     73 CB        -46.6669  -21.1010    7.6187 C.3       3 UNK        -0.1972 
     74 N         -47.0181  -23.2398    6.4697 N.am      3 UNK        -0.4305 
     75 C         -47.4123  -24.4945    6.2058 C.2       2 UNK         0.5006 
     76 O         -47.9505  -25.2281    7.0396 O.2       2 UNK        -0.5106 
     77 CA        -47.1438  -24.9795    4.7688 C.3       2 UNK         0.0296 
     78 CB        -45.6358  -24.9715    4.4305 C.3       2 UNK        -0.2002 
     79 N         -47.7540  -26.2801    4.4631 N.am      2 UNK        -0.4032 
     80 C         -47.3960  -27.4960    4.9045 C.2       1 UNK         0.5000 
     81 O         -46.4426  -27.7224    5.6558 O.2       1 UNK        -0.5238 
     82 H82       -46.1355  -32.0174    3.9889 H         1 UNK         0.0889 
     83 H83       -44.7944  -31.1677    3.2183 H         1 UNK         0.0889 
     84 H84       -46.0663  -31.8920    2.2301 H         1 UNK         0.0889 
     85 H85       -47.6036  -30.5956    4.9030 H         1 UNK         0.3028 
     86 H86       -48.7265  -28.3686    3.4679 H         1 UNK         0.0864 
     87 H87       -49.0637  -29.3925    6.3283 H         1 UNK         0.0720 
     88 H88       -49.8765  -27.9548    5.7551 H         1 UNK         0.0720 
     89 H89       -50.7917  -31.4625    6.5425 H         1 UNK         0.0814 
     90 H90       -52.4089  -31.2105    5.9327 H         1 UNK         0.0814 
     91 H91       -52.4391  -28.0931    6.1166 H         1 UNK         0.1469 
     92 H92       -52.4843  -27.3343   10.3251 H         1 UNK         0.1381 
     93 H93       -51.2078  -31.1475    8.8663 H         1 UNK         0.1206 
     94 H94       -51.5744  -30.8558   11.2353 H         1 UNK         0.0813 
     95 H95       -50.4825  -29.5012   11.3957 H         1 UNK         0.0813 
     96 H96       -53.9649  -30.9998   12.2205 H         1 UNK         0.0638 
     97 H97       -54.4628  -29.7074   11.1503 H         1 UNK         0.0638 
     98 H98       -55.4422  -28.4523   13.0338 H         1 UNK         0.0568 
     99 H99       -56.7037  -31.2695   14.5754 H         1 UNK         0.3450 
    100 H100      -58.0314  -31.5015   13.4659 H         1 UNK         0.3450 
    101 H101      -54.0271  -30.3145   14.7108 H         1 UNK         0.2987 
    102 H102      -55.4796  -29.7757   17.6248 H         1 UNK         0.0766 
    103 H103      -53.8185  -31.3120   16.5754 H         1 UNK         0.0798 
    104 H104      -53.1242  -30.5216   17.9739 H         1 UNK         0.0798 
    105 H105      -52.6814  -29.9747   16.3638 H         1 UNK         0.0798 
    106 H106      -53.5639  -27.5613   17.0028 H         1 UNK         0.3198 
    107 H107      -54.4803  -25.8849   20.0460 H         1 UNK         0.0843 
    108 H108      -52.0123  -25.6334   20.1150 H         1 UNK         0.0831 
    109 H109      -51.8186  -26.9444   18.9524 H         1 UNK         0.0831 
    110 H110      -52.4765  -27.2701   20.5508 H         1 UNK         0.0831 
    111 H111      -53.2427  -25.5653   17.3333 H         1 UNK         0.3133 
    112 H112      -55.2564  -22.7791   16.6114 H         1 UNK         0.0566 
    113 H113      -53.1722  -21.4522   16.3429 H         1 UNK         0.0814 
    114 H114      -52.2977  -22.5614   17.3985 H         1 UNK         0.0814 
    115 H115      -53.5999  -21.5696   18.0416 H         1 UNK         0.0814 
    116 H116      -52.8623  -23.9229   15.4405 H         1 UNK         0.3091 
    117 H117      -54.2390  -26.7237   14.0613 H         1 UNK         0.0702 
    118 H118      -53.7953  -25.9086   11.7276 H         1 UNK         0.0785 
    119 H119      -54.0473  -24.2483   12.2728 H         1 UNK         0.0785 
    120 H120      -55.3661  -25.4053   12.3268 H         1 UNK         0.0785 
    121 H121      -51.9048  -25.2835   13.2796 H         1 UNK         0.2998 
    122 H122      -49.8938  -25.9700   16.0318 H         1 UNK         0.0697 
    123 H123      -50.0126  -28.0494   13.7869 H         1 UNK         0.0825 
    124 H124      -50.0322  -28.3799   15.5102 H         1 UNK         0.0825 
    125 H125      -48.5945  -27.6917   14.7709 H         1 UNK         0.0825 
    126 H126      -49.3556  -25.7075   13.1811 H         1 UNK         0.3029 
    127 H127      -49.5864  -22.1609   13.1471 H         1 UNK         0.0897 
    128 H128      -46.9762  -23.7719   13.2003 H         1 UNK         0.0792 
    129 H129      -47.3642  -22.4593   14.3071 H         1 UNK         0.0792 
    130 H130      -47.1859  -22.1301   12.5929 H         1 UNK         0.0792 
    131 H131      -48.4544  -23.8659   11.2109 H         1 UNK         0.3086 
    132 H132      -51.3081  -25.5888   10.2369 H         1 UNK         0.0583 
    133 H133      -52.0473  -23.5373    9.0598 H         1 UNK         0.1020 
    134 H134      -50.4267  -23.2842    8.4721 H         1 UNK         0.1020 
    135 H135      -53.3731  -25.6639    8.7847 H         1 UNK         0.0694 
    136 H136      -53.6788  -26.1132    7.1276 H         1 UNK         0.0694 
    137 H137      -48.9252  -25.4399    8.7623 H         1 UNK         0.2989 
    138 H138      -47.2692  -28.0008   10.7069 H         1 UNK         0.1055 
    139 H139      -48.5177  -27.7095    7.9263 H         1 UNK         0.0806 
    140 H140      -47.2411  -28.8475    8.3501 H         1 UNK         0.0806 
    141 H141      -48.8364  -28.9995    9.0749 H         1 UNK         0.0806 
    142 H142      -46.7119  -26.0793    8.5151 H         1 UNK         0.3061 
    143 H143      -44.4428  -24.2073   10.4955 H         1 UNK         0.0734 
    144 H144      -43.7609  -26.0917    8.1692 H         1 UNK         0.0832 
    145 H145      -42.8174  -24.6891    8.6776 H         1 UNK         0.0832 
    146 H146      -42.9653  -26.0808    9.7367 H         1 UNK         0.0832 
    147 H147      -45.1028  -24.0298    7.7395 H         1 UNK         0.3156 
    148 H148      -48.2565  -22.4970    7.9558 H         1 UNK         0.0589 
    149 H149      -47.2030  -20.5530    6.8436 H         1 UNK         0.0808 
    150 H150      -46.8022  -20.5517    8.5518 H         1 UNK         0.0808 
    151 H151      -45.6036  -21.0743    7.3769 H         1 UNK         0.0808 
    152 H152      -46.5923  -22.7060    5.7254 H         1 UNK         0.3098 
    153 H153      -47.6369  -24.2670    4.1057 H         1 UNK         0.0720 
    154 H154      -45.2288  -23.9602    4.4427 H         1 UNK         0.0791 
    155 H155      -45.4520  -25.3752    3.4346 H         1 UNK         0.0791 
    156 H156      -45.0544  -25.5608    5.1405 H         1 UNK         0.0791 
    157 H157      -48.5809  -26.2244    3.8850 H         1 UNK         0.3028 
@<TRIPOS>BOND
     1    1    2 1    
     2    1   82 1    
     3    1   83 1    
     4    1   84 1    
     5    2    3 2    
     6    2    4 am   BACKBONE|DICT|INTERRES
     7    4    5 1    
     8    4   85 1    
     9    5    6 1    
    10    5   80 1    
    11    5   86 1    
    12    6    7 1    
    13    6   87 1    
    14    6   88 1    
    15    7    8 1    
    16    8    9 1    
    17    8   89 1    
    18    8   90 1    
    19    9   10 ar   
    20    9   14 ar   
    21   10   11 ar   
    22   10   91 1    
    23   11   12 ar   
    24   11   58 1    
    25   12   13 ar   
    26   12   92 1    
    27   13   14 ar   
    28   13   15 1    
    29   14   93 1    
    30   15   16 1    
    31   15   94 1    
    32   15   95 1    
    33   16   17 1    
    34   17   18 1    
    35   17   96 1    
    36   17   97 1    
    37   18   19 1    
    38   18   22 1    
    39   18   98 1    
    40   19   20 am   BACKBONE|DICT|INTERRES
    41   19   21 2    
    42   20   99 1    
    43   20  100 1    
    44   22   23 am   BACKBONE|DICT|INTERRES
    45   22  101 1    
    46   23   24 2    
    47   23   25 1    
    48   25   26 1    
    49   25   27 1    
    50   25  102 1    
    51   26  103 1    
    52   26  104 1    
    53   26  105 1    
    54   27   28 am   BACKBONE|DICT|INTERRES
    55   27  106 1    
    56   28   29 2    
    57   28   30 1    
    58   30   31 1    
    59   30   32 1    
    60   30  107 1    
    61   31  108 1    
    62   31  109 1    
    63   31  110 1    
    64   32   33 am   BACKBONE|DICT|INTERRES
    65   32  111 1    
    66   33   34 2    
    67   33   35 1    
    68   35   36 1    
    69   35   37 1    
    70   35  112 1    
    71   36  113 1    
    72   36  114 1    
    73   36  115 1    
    74   37   38 am   BACKBONE|DICT|INTERRES
    75   37  116 1    
    76   38   39 2    
    77   38   40 1    
    78   40   41 1    
    79   40   42 1    
    80   40  117 1    
    81   41  118 1    
    82   41  119 1    
    83   41  120 1    
    84   42   43 am   BACKBONE|DICT|INTERRES
    85   42  121 1    
    86   43   44 2    
    87   43   45 1    
    88   45   46 1    
    89   45   47 1    
    90   45  122 1    
    91   46  123 1    
    92   46  124 1    
    93   46  125 1    
    94   47   48 am   BACKBONE|DICT|INTERRES
    95   47  126 1    
    96   48   49 2    
    97   48   50 1    
    98   50   51 1    
    99   50   52 1    
   100   50  127 1    
   101   51  128 1    
   102   51  129 1    
   103   51  130 1    
   104   52   53 am   BACKBONE|DICT|INTERRES
   105   52  131 1    
   106   53   54 2    
   107   53   55 1    
   108   55   56 1    
   109   55   59 1    
   110   55  132 1    
   111   56   57 1    
   112   56  133 1    
   113   56  134 1    
   114   57   58 1    
   115   58  135 1    
   116   58  136 1    
   117   59   60 am   BACKBONE|DICT|INTERRES
   118   59  137 1    
   119   60   61 2    
   120   60   62 1    
   121   62   63 1    
   122   62   64 1    
   123   62  138 1    
   124   63  139 1    
   125   63  140 1    
   126   63  141 1    
   127   64   65 am   BACKBONE|DICT|INTERRES
   128   64  142 1    
   129   65   66 2    
   130   65   67 1    
   131   67   68 1    
   132   67   69 1    
   133   67  143 1    
   134   68  144 1    
   135   68  145 1    
   136   68  146 1    
   137   69   70 am   BACKBONE|DICT|INTERRES
   138   69  147 1    
   139   70   71 2    
   140   70   72 1    
   141   72   73 1    
   142   72   74 1    
   143   72  148 1    
   144   73  149 1    
   145   73  150 1    
   146   73  151 1    
   147   74   75 am   BACKBONE|DICT|INTERRES
   148   74  152 1    
   149   75   76 2    
   150   75   77 1    
   151   77   78 1    
   152   77   79 1    
   153   77  153 1    
   154   78  154 1    
   155   78  155 1    
   156   78  156 1    
   157   79   80 am   BACKBONE|DICT|INTERRES
   158   79  157 1    
   159   80   81 2    
@<TRIPOS>SUBSTRUCTURE
     1 UNK         1 GROUP             0       ****    0 ROOT    
