@<TRIPOS>MOLECULE
3R207
157   159    1
SMALL
USER_CHARGES


@<TRIPOS>ATOM
      1 CA        -44.7114  -26.1779   10.5144 C.3       0 UNK        -0.1975 
      2 C         -45.5443  -27.2942    9.9001 C.2       0 UNK         0.4852 
      3 O         -45.1229  -28.4511    9.9302 O.2       0 UNK        -0.5216 
      4 N         -46.7158  -26.9578    9.3481 N.am      1 UNK        -0.4461 
      5 CA        -47.6148  -27.8698    8.6452 C.3       1 UNK         0.0864 
      6 C6        -48.9667  -28.0472    9.3847 C.3       14 UNK        -0.0898 
      7 S7        -49.7725  -29.6335    8.9933 S.3       14 UNK        -0.2598 
      8 C8        -50.8024  -29.2194    7.5469 C.3       14 UNK         0.0286 
      9 C9        -52.0227  -28.3779    7.8964 C.ar      14 UNK        -0.0844 
     10 C10       -52.0803  -27.0250    7.5429 C.ar      14 UNK        -0.0881 
     11 C11       -53.2421  -26.2789    7.7754 C.ar      14 UNK        -0.0643 
     12 C12       -54.3439  -26.9008    8.3724 C.ar      14 UNK        -0.0930 
     13 C13       -54.3004  -28.2517    8.7387 C.ar      14 UNK        -0.0827 
     14 C14       -53.1316  -28.9799    8.4982 C.ar      14 UNK        -0.1249 
     15 C15       -55.5275  -28.9759    9.2942 C.3       14 UNK         0.0141 
     16 S16       -56.6256  -27.9481   10.3297 S.3       14 UNK        -0.2313 
     17 C17       -55.8356  -28.0820   11.9648 C.3       14 UNK        -0.0915 
     18 CA        -56.6521  -28.9795   12.9344 C.3       13 UNK         0.0968 
     19 C         -56.3186  -30.4841   12.7607 C.2       13 UNK         0.5732 
     20 N         -57.1023  -31.2081   11.9733 N.am      13 UNK        -0.7310 
     21 O         -55.3377  -30.9918   13.2997 O.2       13 UNK        -0.5035 
     22 N         -56.4695  -28.5536   14.3265 N.am      13 UNK        -0.4233 
     23 C         -57.4146  -28.6379   15.2719 C.2       13 UNK         0.4989 
     24 O         -58.5469  -29.0796   15.0652 O.2       13 UNK        -0.4996 
     25 CA        -57.0511  -28.1000   16.6701 C.3       12 UNK         0.0216 
     26 CB        -58.0653  -28.5018   17.7637 C.3       12 UNK        -0.1964 
     27 N         -55.6783  -28.4157   17.0756 N.am      12 UNK        -0.4276 
     28 C         -55.1468  -29.6268   17.3103 C.2       12 UNK         0.5020 
     29 O         -55.7867  -30.6777   17.2522 O.2       12 UNK        -0.5489 
     30 CA        -53.6476  -29.6847   17.6708 C.3       11 UNK         0.0294 
     31 CB        -52.9139  -30.7444   16.8283 C.3       11 UNK        -0.2019 
     32 N         -52.9888  -28.3913   17.4744 N.am      11 UNK        -0.4493 
     33 C         -52.7485  -27.4835   18.4309 C.2       11 UNK         0.4932 
     34 O         -52.9761  -27.6729   19.6255 O.2       11 UNK        -0.5029 
     35 CA        -52.1868  -26.1195   17.9820 C.3       10 UNK         0.0280 
     36 CB        -50.6701  -26.0597   18.2214 C.3       10 UNK        -0.1976 
     37 N         -52.4748  -25.8049   16.5773 N.am      10 UNK        -0.4242 
     38 C         -53.7020  -25.5382   16.0984 C.2       10 UNK         0.5072 
     39 O         -54.7069  -25.4795   16.8071 O.2       10 UNK        -0.5224 
     40 CA        -53.8616  -25.3972   14.5711 C.3       9 UNK         0.0343 
     41 CB        -53.7367  -23.9261   14.1491 C.3       9 UNK        -0.2003 
     42 N         -52.9100  -26.2123   13.8092 N.am      9 UNK        -0.4272 
     43 C         -52.8067  -27.5471   13.9147 C.2       9 UNK         0.4988 
     44 O         -53.6013  -28.2229   14.5665 O.2       9 UNK        -0.5108 
     45 CA        -51.6038  -28.2516   13.2578 C.3       8 UNK         0.0248 
     46 CB        -52.0425  -29.0275   12.0082 C.3       8 UNK        -0.2001 
     47 N         -50.4959  -27.3601   12.9079 N.am      8 UNK        -0.4140 
     48 C         -49.8074  -26.5919   13.7649 C.2       8 UNK         0.5028 
     49 O         -49.9903  -26.5935   14.9826 O.2       8 UNK        -0.5428 
     50 CA        -48.8008  -25.6002   13.1545 C.3       7 UNK         0.0264 
     51 CB        -47.3853  -26.1972   13.1643 C.3       7 UNK        -0.1988 
     52 N         -49.1272  -25.1591   11.7921 N.am      7 UNK        -0.4454 
     53 C         -50.2699  -24.5810   11.3939 C.2       7 UNK         0.5027 
     54 O         -51.2244  -24.3748   12.1447 O.2       7 UNK        -0.5083 
     55 CA        -50.3490  -24.1775    9.9065 C.3       6 UNK         0.0844 
     56 C56       -51.7937  -23.8445    9.4599 C.3       14 UNK        -0.0967 
     57 S57       -51.9074  -23.7832    7.6414 S.3       14 UNK        -0.2604 
     58 C58       -53.3685  -24.8262    7.3157 C.3       14 UNK         0.0134 
     59 N         -49.4184  -23.0816    9.6156 N.am      6 UNK        -0.4116 
     60 C         -48.0926  -23.2128    9.4935 C.2       5 UNK         0.5034 
     61 O         -47.4998  -24.2896    9.6002 O.2       5 UNK        -0.5045 
     62 CA        -47.2893  -21.9262    9.2890 C.3       5 UNK         0.0224 
     63 CB        -47.0800  -21.2119   10.6396 C.3       5 UNK        -0.1978 
     64 N         -46.0000  -22.2627    8.6889 N.am      5 UNK        -0.4737 
     65 C         -45.1498  -21.4017    8.1236 C.2       4 UNK         0.5027 
     66 O         -45.3674  -20.1939    8.0219 O.2       4 UNK        -0.5211 
     67 CA        -43.8369  -21.9755    7.5654 C.3       4 UNK         0.0297 
     68 CB        -42.9407  -22.5525    8.6817 C.3       4 UNK        -0.1993 
     69 N         -44.0382  -22.9271    6.4648 N.am      4 UNK        -0.4486 
     70 C         -44.5582  -24.1602    6.5128 C.2       3 UNK         0.4961 
     71 O         -44.9357  -24.7201    7.5455 O.2       3 UNK        -0.5105 
     72 CA        -44.6542  -24.8947    5.1704 C.3       3 UNK         0.0299 
     73 CB        -43.2760  -25.4055    4.7141 C.3       3 UNK        -0.1972 
     74 N         -45.5608  -26.0255    5.3245 N.am      3 UNK        -0.4305 
     75 C         -46.4313  -26.4708    4.4122 C.2       2 UNK         0.5006 
     76 O         -46.5291  -25.9975    3.2788 O.2       2 UNK        -0.5106 
     77 CA        -47.3438  -27.6509    4.8084 C.3       2 UNK         0.0296 
     78 CB        -47.0225  -28.8931    3.9593 C.3       2 UNK        -0.2002 
     79 N         -47.2758  -28.0209    6.2269 N.am      2 UNK        -0.4032 
     80 C         -47.8011  -27.3053    7.2301 C.2       1 UNK         0.5000 
     81 O         -48.4012  -26.2408    7.0716 O.2       1 UNK        -0.5238 
     82 H82       -44.4789  -26.4080   11.5536 H         1 UNK         0.0889 
     83 H83       -45.2262  -25.2186   10.4862 H         1 UNK         0.0889 
     84 H84       -43.7746  -26.0701    9.9686 H         1 UNK         0.0889 
     85 H85       -46.9744  -25.9715    9.2938 H         1 UNK         0.3028 
     86 H86       -47.1424  -28.8512    8.5628 H         1 UNK         0.0864 
     87 H87       -48.7909  -28.0553   10.4611 H         1 UNK         0.0720 
     88 H88       -49.6576  -27.2255    9.2034 H         1 UNK         0.0720 
     89 H89       -51.1404  -30.1522    7.0933 H         1 UNK         0.0814 
     90 H90       -50.2004  -28.7276    6.7833 H         1 UNK         0.0814 
     91 H91       -51.2330  -26.5599    7.0565 H         1 UNK         0.1469 
     92 H92       -55.2537  -26.3355    8.5180 H         1 UNK         0.1381 
     93 H93       -53.0926  -30.0316    8.7485 H         1 UNK         0.1206 
     94 H94       -55.2276  -29.8590    9.8607 H         1 UNK         0.0813 
     95 H95       -56.1089  -29.3427    8.4475 H         1 UNK         0.0813 
     96 H96       -55.7714  -27.0653   12.3551 H         1 UNK         0.0638 
     97 H97       -54.8066  -28.4233   11.8613 H         1 UNK         0.0638 
     98 H98       -57.7086  -28.8430   12.6934 H         1 UNK         0.0568 
     99 H99       -57.8994  -30.7973   11.5130 H         1 UNK         0.3450 
    100 H100      -56.8937  -32.1849   11.8400 H         1 UNK         0.3450 
    101 H101      -55.5186  -28.3070   14.5852 H         1 UNK         0.2987 
    102 H102      -57.0892  -27.0132   16.5828 H         1 UNK         0.0766 
    103 H103      -59.0624  -28.1277   17.5282 H         1 UNK         0.0798 
    104 H104      -57.7876  -28.0890   18.7335 H         1 UNK         0.0798 
    105 H105      -58.1431  -29.5843   17.8689 H         1 UNK         0.0798 
    106 H106      -55.0657  -27.6124   17.1507 H         1 UNK         0.3198 
    107 H107      -53.5807  -29.9806   18.7199 H         1 UNK         0.0843 
    108 H108      -53.0148  -30.5528   15.7593 H         1 UNK         0.0831 
    109 H109      -53.3164  -31.7405   17.0166 H         1 UNK         0.0831 
    110 H110      -51.8507  -30.7765   17.0663 H         1 UNK         0.0831 
    111 H111      -52.8159  -28.1399   16.5080 H         1 UNK         0.3133 
    112 H112      -52.6569  -25.3514   18.5997 H         1 UNK         0.0566 
    113 H113      -50.2587  -25.0917   17.9348 H         1 UNK         0.0814 
    114 H114      -50.1416  -26.8293   17.6575 H         1 UNK         0.0814 
    115 H115      -50.4360  -26.2121   19.2759 H         1 UNK         0.0814 
    116 H116      -51.6962  -25.8846   15.9293 H         1 UNK         0.3091 
    117 H117      -54.8661  -25.7397   14.3151 H         1 UNK         0.0702 
    118 H118      -53.9223  -23.8032   13.0818 H         1 UNK         0.0785 
    119 H119      -52.7437  -23.5285   14.3632 H         1 UNK         0.0785 
    120 H120      -54.4602  -23.3041   14.6781 H         1 UNK         0.0785 
    121 H121      -52.2352  -25.7041   13.2450 H         1 UNK         0.2998 
    122 H122      -51.2241  -28.9700   13.9871 H         1 UNK         0.0697 
    123 H123      -52.3945  -28.3597   11.2212 H         1 UNK         0.0825 
    124 H124      -52.8513  -29.7216   12.2414 H         1 UNK         0.0825 
    125 H125      -51.2237  -29.6221   11.6047 H         1 UNK         0.0825 
    126 H126      -50.2822  -27.2749   11.9264 H         1 UNK         0.3029 
    127 H127      -48.8037  -24.7122   13.7900 H         1 UNK         0.0897 
    128 H128      -47.3111  -27.0721   12.5173 H         1 UNK         0.0792 
    129 H129      -47.1005  -26.5104   14.1699 H         1 UNK         0.0792 
    130 H130      -46.6457  -25.4679   12.8335 H         1 UNK         0.0792 
    131 H131      -48.3792  -25.2015   11.1073 H         1 UNK         0.3086 
    132 H132      -50.0286  -25.0467    9.3314 H         1 UNK         0.0583 
    133 H133      -52.4940  -24.5947    9.8328 H         1 UNK         0.1020 
    134 H134      -52.1256  -22.8918    9.8767 H         1 UNK         0.1020 
    135 H135      -54.2328  -24.3510    7.7827 H         1 UNK         0.0694 
    136 H136      -53.5613  -24.8228    6.2423 H         1 UNK         0.0694 
    137 H137      -49.8286  -22.1623    9.5427 H         1 UNK         0.2989 
    138 H138      -47.8384  -21.2765    8.6038 H         1 UNK         0.1055 
    139 H139      -46.5087  -21.8294   11.3342 H         1 UNK         0.0806 
    140 H140      -48.0329  -20.9803   11.1171 H         1 UNK         0.0806 
    141 H141      -46.5483  -20.2683   10.5179 H         1 UNK         0.0806 
    142 H142      -45.7833  -23.2573    8.6550 H         1 UNK         0.3061 
    143 H143      -43.2937  -21.1365    7.1270 H         1 UNK         0.0734 
    144 H144      -43.4066  -23.3912    9.1991 H         1 UNK         0.0832 
    145 H145      -41.9854  -22.8949    8.2843 H         1 UNK         0.0832 
    146 H146      -42.7249  -21.7929    9.4340 H         1 UNK         0.0832 
    147 H147      -43.7845  -22.5703    5.5533 H         1 UNK         0.3156 
    148 H148      -45.0521  -24.1974    4.4299 H         1 UNK         0.0589 
    149 H149      -42.8392  -26.0888    5.4436 H         1 UNK         0.0808 
    150 H150      -43.3453  -25.9328    3.7625 H         1 UNK         0.0808 
    151 H151      -42.5740  -24.5824    4.5759 H         1 UNK         0.0808 
    152 H152      -45.5986  -26.3964    6.2650 H         1 UNK         0.3098 
    153 H153      -48.3692  -27.3461    4.5880 H         1 UNK         0.0720 
    154 H154      -47.7099  -29.7113    4.1753 H         1 UNK         0.0791 
    155 H155      -46.0068  -29.2500    4.1345 H         1 UNK         0.0791 
    156 H156      -47.1108  -28.6738    2.8942 H         1 UNK         0.0791 
    157 H157      -46.7848  -28.8772    6.4427 H         1 UNK         0.3028 
@<TRIPOS>BOND
     1    1    2 1    
     2    1   82 1    
     3    1   83 1    
     4    1   84 1    
     5    2    3 2    
     6    2    4 am   BACKBONE|DICT|INTERRES
     7    4    5 1    
     8    4   85 1    
     9    5    6 1    
    10    5   80 1    
    11    5   86 1    
    12    6    7 1    
    13    6   87 1    
    14    6   88 1    
    15    7    8 1    
    16    8    9 1    
    17    8   89 1    
    18    8   90 1    
    19    9   10 ar   
    20    9   14 ar   
    21   10   11 ar   
    22   10   91 1    
    23   11   12 ar   
    24   11   58 1    
    25   12   13 ar   
    26   12   92 1    
    27   13   14 ar   
    28   13   15 1    
    29   14   93 1    
    30   15   16 1    
    31   15   94 1    
    32   15   95 1    
    33   16   17 1    
    34   17   18 1    
    35   17   96 1    
    36   17   97 1    
    37   18   19 1    
    38   18   22 1    
    39   18   98 1    
    40   19   20 am   BACKBONE|DICT|INTERRES
    41   19   21 2    
    42   20   99 1    
    43   20  100 1    
    44   22   23 am   BACKBONE|DICT|INTERRES
    45   22  101 1    
    46   23   24 2    
    47   23   25 1    
    48   25   26 1    
    49   25   27 1    
    50   25  102 1    
    51   26  103 1    
    52   26  104 1    
    53   26  105 1    
    54   27   28 am   BACKBONE|DICT|INTERRES
    55   27  106 1    
    56   28   29 2    
    57   28   30 1    
    58   30   31 1    
    59   30   32 1    
    60   30  107 1    
    61   31  108 1    
    62   31  109 1    
    63   31  110 1    
    64   32   33 am   BACKBONE|DICT|INTERRES
    65   32  111 1    
    66   33   34 2    
    67   33   35 1    
    68   35   36 1    
    69   35   37 1    
    70   35  112 1    
    71   36  113 1    
    72   36  114 1    
    73   36  115 1    
    74   37   38 am   BACKBONE|DICT|INTERRES
    75   37  116 1    
    76   38   39 2    
    77   38   40 1    
    78   40   41 1    
    79   40   42 1    
    80   40  117 1    
    81   41  118 1    
    82   41  119 1    
    83   41  120 1    
    84   42   43 am   BACKBONE|DICT|INTERRES
    85   42  121 1    
    86   43   44 2    
    87   43   45 1    
    88   45   46 1    
    89   45   47 1    
    90   45  122 1    
    91   46  123 1    
    92   46  124 1    
    93   46  125 1    
    94   47   48 am   BACKBONE|DICT|INTERRES
    95   47  126 1    
    96   48   49 2    
    97   48   50 1    
    98   50   51 1    
    99   50   52 1    
   100   50  127 1    
   101   51  128 1    
   102   51  129 1    
   103   51  130 1    
   104   52   53 am   BACKBONE|DICT|INTERRES
   105   52  131 1    
   106   53   54 2    
   107   53   55 1    
   108   55   56 1    
   109   55   59 1    
   110   55  132 1    
   111   56   57 1    
   112   56  133 1    
   113   56  134 1    
   114   57   58 1    
   115   58  135 1    
   116   58  136 1    
   117   59   60 am   BACKBONE|DICT|INTERRES
   118   59  137 1    
   119   60   61 2    
   120   60   62 1    
   121   62   63 1    
   122   62   64 1    
   123   62  138 1    
   124   63  139 1    
   125   63  140 1    
   126   63  141 1    
   127   64   65 am   BACKBONE|DICT|INTERRES
   128   64  142 1    
   129   65   66 2    
   130   65   67 1    
   131   67   68 1    
   132   67   69 1    
   133   67  143 1    
   134   68  144 1    
   135   68  145 1    
   136   68  146 1    
   137   69   70 am   BACKBONE|DICT|INTERRES
   138   69  147 1    
   139   70   71 2    
   140   70   72 1    
   141   72   73 1    
   142   72   74 1    
   143   72  148 1    
   144   73  149 1    
   145   73  150 1    
   146   73  151 1    
   147   74   75 am   BACKBONE|DICT|INTERRES
   148   74  152 1    
   149   75   76 2    
   150   75   77 1    
   151   77   78 1    
   152   77   79 1    
   153   77  153 1    
   154   78  154 1    
   155   78  155 1    
   156   78  156 1    
   157   79   80 am   BACKBONE|DICT|INTERRES
   158   79  157 1    
   159   80   81 2    
@<TRIPOS>SUBSTRUCTURE
     1 UNK         1 GROUP             0       ****    0 ROOT    
