@<TRIPOS>MOLECULE
3R207
157   159    1
SMALL
USER_CHARGES


@<TRIPOS>ATOM
      1 CA        -48.5635  -27.6959    3.4336 C.3       0 UNK        -0.1975 
      2 C         -49.5568  -26.6581    3.9346 C.2       0 UNK         0.4852 
      3 O         -49.2650  -25.4620    3.8931 O.2       0 UNK        -0.5216 
      4 N         -50.7305  -27.1053    4.3988 N.am      1 UNK        -0.4461 
      5 CA        -51.7620  -26.2678    5.0173 C.3       1 UNK         0.0864 
      6 C6        -53.1478  -26.9697    5.0458 C.3       14 UNK        -0.0898 
      7 S7        -53.1280  -28.6707    5.7142 S.3       14 UNK        -0.2598 
      8 C8        -53.8948  -28.4281    7.3457 C.3       14 UNK         0.0286 
      9 C9        -53.4820  -29.5338    8.3028 C.ar      14 UNK        -0.0844 
     10 C10       -52.2049  -29.5027    8.8638 C.ar      14 UNK        -0.0881 
     11 C11       -51.7962  -30.4779    9.7817 C.ar      14 UNK        -0.0643 
     12 C12       -52.6804  -31.5157   10.0946 C.ar      14 UNK        -0.0930 
     13 C13       -53.9591  -31.5708    9.5289 C.ar      14 UNK        -0.0827 
     14 C14       -54.3579  -30.5701    8.6371 C.ar      14 UNK        -0.1249 
     15 C15       -54.8977  -32.7270    9.8537 C.3       14 UNK         0.0141 
     16 S16       -56.0034  -32.3657   11.2582 S.3       14 UNK        -0.2313 
     17 C17       -54.8608  -32.4738   12.6816 C.3       14 UNK        -0.0915 
     18 CA        -54.6534  -31.1247   13.4239 C.3       13 UNK         0.0968 
     19 C         -53.6030  -31.2807   14.5606 C.2       13 UNK         0.5732 
     20 N         -52.4518  -30.6233   14.4963 N.am      13 UNK        -0.7310 
     21 O         -53.8380  -32.0166   15.5161 O.2       13 UNK        -0.5035 
     22 N         -54.3997  -30.0181   12.4890 N.am      13 UNK        -0.4233 
     23 C         -54.5774  -28.7229   12.7651 C.2       13 UNK         0.4989 
     24 O         -54.9004  -28.2810   13.8691 O.2       13 UNK        -0.4996 
     25 CA        -54.4280  -27.7762   11.5748 C.3       12 UNK         0.0216 
     26 CB        -55.6948  -27.8076   10.6955 C.3       12 UNK        -0.1964 
     27 N         -54.1748  -26.4138   12.0358 N.am      12 UNK        -0.4276 
     28 C         -53.6200  -25.4636   11.2799 C.2       12 UNK         0.5020 
     29 O         -53.2484  -25.6632   10.1240 O.2       12 UNK        -0.5489 
     30 CA        -53.4479  -24.0515   11.8672 C.3       11 UNK         0.0294 
     31 CB        -54.6748  -23.1727   11.5531 C.3       11 UNK        -0.2019 
     32 N         -53.0824  -23.9762   13.2894 N.am      11 UNK        -0.4493 
     33 C         -53.8154  -24.2687   14.3703 C.2       11 UNK         0.4932 
     34 O         -54.9398  -24.7700   14.3330 O.2       11 UNK        -0.5029 
     35 CA        -53.1564  -23.9102   15.7116 C.3       10 UNK         0.0280 
     36 CB        -54.1273  -23.9518   16.9125 C.3       10 UNK        -0.1976 
     37 N         -51.9406  -24.6977   15.9403 N.am      10 UNK        -0.4242 
     38 C         -51.8431  -25.9936   16.2770 C.2       10 UNK         0.5072 
     39 O         -52.8152  -26.7179   16.4914 O.2       10 UNK        -0.5224 
     40 CA        -50.4290  -26.6001   16.4257 C.3       9 UNK         0.0343 
     41 CB        -50.3471  -27.9929   15.7760 C.3       9 UNK        -0.2003 
     42 N         -49.3576  -25.7611   15.8820 N.am      9 UNK        -0.4272 
     43 C         -48.7918  -24.7151   16.4995 C.2       9 UNK         0.4988 
     44 O         -49.0731  -24.3649   17.6456 O.2       9 UNK        -0.5108 
     45 CA        -47.7770  -23.8867   15.6869 C.3       8 UNK         0.0248 
     46 CB        -46.3526  -24.4248   15.8933 C.3       8 UNK        -0.2001 
     47 N         -48.0730  -23.8273   14.2506 N.am      8 UNK        -0.4140 
     48 C         -49.2032  -23.3394   13.7155 C.2       8 UNK         0.5028 
     49 O         -50.1348  -22.8648   14.3675 O.2       8 UNK        -0.5428 
     50 CA        -49.3568  -23.4873   12.1952 C.3       7 UNK         0.0264 
     51 CB        -48.5056  -22.4476   11.4495 C.3       7 UNK        -0.1988 
     52 N         -49.0434  -24.8483   11.7479 N.am      7 UNK        -0.4454 
     53 C         -49.7292  -25.9385   12.1313 C.2       7 UNK         0.5027 
     54 O         -50.7365  -25.8992   12.8342 O.2       7 UNK        -0.5083 
     55 CA        -49.1767  -27.3083   11.7055 C.3       6 UNK         0.0844 
     56 C56       -49.7299  -27.7010   10.3201 C.3       14 UNK        -0.0967 
     57 S57       -49.1663  -29.3455    9.7606 S.3       14 UNK        -0.2604 
     58 C58       -50.4312  -30.4542   10.4765 C.3       14 UNK         0.0134 
     59 N         -47.7155  -27.3403   11.7931 N.am      6 UNK        -0.4116 
     60 C         -47.0454  -27.3565   12.9546 C.2       5 UNK         0.5034 
     61 O         -47.5915  -27.3763   14.0564 O.2       5 UNK        -0.5045 
     62 CA        -45.5107  -27.3064   12.8910 C.3       5 UNK         0.0224 
     63 CB        -44.9293  -28.7277   12.8328 C.3       5 UNK        -0.1978 
     64 N         -44.9944  -26.5221   11.7681 N.am      5 UNK        -0.4737 
     65 C         -45.2121  -25.2142   11.5757 C.2       4 UNK         0.5027 
     66 O         -45.8773  -24.5161   12.3436 O.2       4 UNK        -0.5211 
     67 CA        -44.6069  -24.5817   10.3045 C.3       4 UNK         0.0297 
     68 CB        -43.7173  -25.5454    9.4854 C.3       4 UNK        -0.1993 
     69 N         -45.6128  -23.9795    9.4196 N.am      4 UNK        -0.4486 
     70 C         -46.7442  -24.5399    8.9688 C.2       3 UNK         0.4961 
     71 O         -47.1713  -25.6410    9.3253 O.2       3 UNK        -0.5105 
     72 CA        -47.5196  -23.7314    7.9239 C.3       3 UNK         0.0299 
     73 CB        -46.9765  -24.0065    6.5114 C.3       3 UNK        -0.1972 
     74 N         -48.9301  -24.1030    7.9741 N.am      3 UNK        -0.4305 
     75 C         -49.9582  -23.2563    7.8696 C.2       2 UNK         0.5006 
     76 O         -49.8340  -22.0482    7.6597 O.2       2 UNK        -0.5106 
     77 CA        -51.3610  -23.8710    8.0057 C.3       2 UNK         0.0296 
     78 CB        -52.4323  -22.8176    8.3456 C.3       2 UNK        -0.2002 
     79 N         -51.7465  -24.5601    6.7744 N.am      2 UNK        -0.4032 
     80 C         -51.3137  -25.7741    6.4107 C.2       1 UNK         0.5000 
     81 O         -50.5925  -26.4819    7.1206 O.2       1 UNK        -0.5238 
     82 H82       -47.6414  -27.6401    4.0114 H         1 UNK         0.0889 
     83 H83       -48.3227  -27.5110    2.3870 H         1 UNK         0.0889 
     84 H84       -48.9558  -28.7093    3.5180 H         1 UNK         0.0889 
     85 H85       -50.9078  -28.0989    4.4470 H         1 UNK         0.3028 
     86 H86       -51.8683  -25.3821    4.3865 H         1 UNK         0.0864 
     87 H87       -53.8823  -26.3653    5.5817 H         1 UNK         0.0720 
     88 H88       -53.5268  -27.0375    4.0250 H         1 UNK         0.0720 
     89 H89       -54.9797  -28.3885    7.2374 H         1 UNK         0.0814 
     90 H90       -53.5890  -27.4673    7.7645 H         1 UNK         0.0814 
     91 H91       -51.5429  -28.7036    8.5646 H         1 UNK         0.1469 
     92 H92       -52.3645  -32.2889   10.7812 H         1 UNK         0.1381 
     93 H93       -55.3457  -30.6032    8.1976 H         1 UNK         0.1206 
     94 H94       -54.3291  -33.6356   10.0581 H         1 UNK         0.0813 
     95 H95       -55.5117  -32.9518    8.9803 H         1 UNK         0.0813 
     96 H96       -53.9061  -32.8835   12.3520 H         1 UNK         0.0638 
     97 H97       -55.2717  -33.2140   13.3706 H         1 UNK         0.0638 
     98 H98       -55.5946  -30.8937   13.9265 H         1 UNK         0.0568 
     99 H99       -51.7810  -30.7384   15.2380 H         1 UNK         0.3450 
    100 H100      -52.2626  -30.0028   13.7281 H         1 UNK         0.3450 
    101 H101      -54.1628  -30.2938   11.5454 H         1 UNK         0.2987 
    102 H102      -53.5702  -28.1126   10.9891 H         1 UNK         0.0766 
    103 H103      -55.5685  -27.2100    9.7927 H         1 UNK         0.0798 
    104 H104      -56.5635  -27.4244   11.2321 H         1 UNK         0.0798 
    105 H105      -55.9318  -28.8229   10.3756 H         1 UNK         0.0798 
    106 H106      -54.4572  -26.1984   12.9896 H         1 UNK         0.3198 
    107 H107      -52.6033  -23.6158   11.3341 H         1 UNK         0.0843 
    108 H108      -54.5137  -22.1400   11.8620 H         1 UNK         0.0831 
    109 H109      -55.5754  -23.5362   12.0486 H         1 UNK         0.0831 
    110 H110      -54.8823  -23.1617   10.4825 H         1 UNK         0.0831 
    111 H111      -52.1380  -23.6567   13.4674 H         1 UNK         0.3133 
    112 H112      -52.8200  -22.8760   15.6207 H         1 UNK         0.0566 
    113 H113      -53.6222  -23.6884   17.8417 H         1 UNK         0.0814 
    114 H114      -54.9416  -23.2403   16.7720 H         1 UNK         0.0814 
    115 H115      -54.5831  -24.9334   17.0432 H         1 UNK         0.0814 
    116 H116      -51.0782  -24.2066   15.7323 H         1 UNK         0.3091 
    117 H117      -50.2551  -26.7255   17.4963 H         1 UNK         0.0702 
    118 H118      -49.3579  -28.4333   15.9014 H         1 UNK         0.0785 
    119 H119      -50.5643  -27.9497   14.7087 H         1 UNK         0.0785 
    120 H120      -51.0633  -28.6790   16.2290 H         1 UNK         0.0785 
    121 H121      -49.0250  -26.0108   14.9582 H         1 UNK         0.2998 
    122 H122      -47.8133  -22.8633   16.0656 H         1 UNK         0.0697 
    123 H123      -45.6171  -23.8208   15.3615 H         1 UNK         0.0825 
    124 H124      -46.0806  -24.4127   16.9497 H         1 UNK         0.0825 
    125 H125      -46.2568  -25.4532   15.5449 H         1 UNK         0.0825 
    126 H126      -47.3552  -24.1759   13.6199 H         1 UNK         0.3029 
    127 H127      -50.4006  -23.2909   11.9504 H         1 UNK         0.0897 
    128 H128      -48.7077  -22.4604   10.3809 H         1 UNK         0.0792 
    129 H129      -48.7311  -21.4398   11.8010 H         1 UNK         0.0792 
    130 H130      -47.4374  -22.6058   11.5924 H         1 UNK         0.0792 
    131 H131      -48.2069  -24.9776   11.1915 H         1 UNK         0.3086 
    132 H132      -49.5596  -28.0395   12.4208 H         1 UNK         0.0583 
    133 H133      -50.8200  -27.6707   10.3477 H         1 UNK         0.1020 
    134 H134      -49.4327  -26.9744    9.5627 H         1 UNK         0.1020 
    135 H135      -50.0179  -31.4639   10.4641 H         1 UNK         0.0694 
    136 H136      -50.5738  -30.1966   11.5267 H         1 UNK         0.0694 
    137 H137      -47.2066  -27.2652   10.9213 H         1 UNK         0.2989 
    138 H138      -45.1635  -26.8318   13.8112 H         1 UNK         0.1055 
    139 H139      -45.2799  -29.3266   13.6748 H         1 UNK         0.0806 
    140 H140      -43.8402  -28.7144   12.8796 H         1 UNK         0.0806 
    141 H141      -45.2216  -29.2478   11.9195 H         1 UNK         0.0806 
    142 H142      -44.4489  -27.0189   11.0786 H         1 UNK         0.3061 
    143 H143      -43.9736  -23.7648   10.6538 H         1 UNK         0.0734 
    144 H144      -44.2864  -26.3802    9.0738 H         1 UNK         0.0832 
    145 H145      -43.2518  -25.0263    8.6474 H         1 UNK         0.0832 
    146 H146      -42.9056  -25.9528   10.0898 H         1 UNK         0.0832 
    147 H147      -45.3874  -23.0506    9.0908 H         1 UNK         0.3156 
    148 H148      -47.4018  -22.6707    8.1562 H         1 UNK         0.0589 
    149 H149      -47.5125  -23.4243    5.7614 H         1 UNK         0.0808 
    150 H150      -45.9210  -23.7425    6.4347 H         1 UNK         0.0808 
    151 H151      -47.0722  -25.0597    6.2426 H         1 UNK         0.0808 
    152 H152      -49.1146  -25.0904    8.1174 H         1 UNK         0.3098 
    153 H153      -51.3236  -24.5910    8.8251 H         1 UNK         0.0720 
    154 H154      -52.1750  -22.2795    9.2587 H         1 UNK         0.0791 
    155 H155      -53.4036  -23.2852    8.5065 H         1 UNK         0.0791 
    156 H156      -52.5442  -22.0780    7.5519 H         1 UNK         0.0791 
    157 H157      -52.3143  -24.0305    6.1289 H         1 UNK         0.3028 
@<TRIPOS>BOND
     1    1    2 1    
     2    1   82 1    
     3    1   83 1    
     4    1   84 1    
     5    2    3 2    
     6    2    4 am   BACKBONE|DICT|INTERRES
     7    4    5 1    
     8    4   85 1    
     9    5    6 1    
    10    5   80 1    
    11    5   86 1    
    12    6    7 1    
    13    6   87 1    
    14    6   88 1    
    15    7    8 1    
    16    8    9 1    
    17    8   89 1    
    18    8   90 1    
    19    9   10 ar   
    20    9   14 ar   
    21   10   11 ar   
    22   10   91 1    
    23   11   12 ar   
    24   11   58 1    
    25   12   13 ar   
    26   12   92 1    
    27   13   14 ar   
    28   13   15 1    
    29   14   93 1    
    30   15   16 1    
    31   15   94 1    
    32   15   95 1    
    33   16   17 1    
    34   17   18 1    
    35   17   96 1    
    36   17   97 1    
    37   18   19 1    
    38   18   22 1    
    39   18   98 1    
    40   19   20 am   BACKBONE|DICT|INTERRES
    41   19   21 2    
    42   20   99 1    
    43   20  100 1    
    44   22   23 am   BACKBONE|DICT|INTERRES
    45   22  101 1    
    46   23   24 2    
    47   23   25 1    
    48   25   26 1    
    49   25   27 1    
    50   25  102 1    
    51   26  103 1    
    52   26  104 1    
    53   26  105 1    
    54   27   28 am   BACKBONE|DICT|INTERRES
    55   27  106 1    
    56   28   29 2    
    57   28   30 1    
    58   30   31 1    
    59   30   32 1    
    60   30  107 1    
    61   31  108 1    
    62   31  109 1    
    63   31  110 1    
    64   32   33 am   BACKBONE|DICT|INTERRES
    65   32  111 1    
    66   33   34 2    
    67   33   35 1    
    68   35   36 1    
    69   35   37 1    
    70   35  112 1    
    71   36  113 1    
    72   36  114 1    
    73   36  115 1    
    74   37   38 am   BACKBONE|DICT|INTERRES
    75   37  116 1    
    76   38   39 2    
    77   38   40 1    
    78   40   41 1    
    79   40   42 1    
    80   40  117 1    
    81   41  118 1    
    82   41  119 1    
    83   41  120 1    
    84   42   43 am   BACKBONE|DICT|INTERRES
    85   42  121 1    
    86   43   44 2    
    87   43   45 1    
    88   45   46 1    
    89   45   47 1    
    90   45  122 1    
    91   46  123 1    
    92   46  124 1    
    93   46  125 1    
    94   47   48 am   BACKBONE|DICT|INTERRES
    95   47  126 1    
    96   48   49 2    
    97   48   50 1    
    98   50   51 1    
    99   50   52 1    
   100   50  127 1    
   101   51  128 1    
   102   51  129 1    
   103   51  130 1    
   104   52   53 am   BACKBONE|DICT|INTERRES
   105   52  131 1    
   106   53   54 2    
   107   53   55 1    
   108   55   56 1    
   109   55   59 1    
   110   55  132 1    
   111   56   57 1    
   112   56  133 1    
   113   56  134 1    
   114   57   58 1    
   115   58  135 1    
   116   58  136 1    
   117   59   60 am   BACKBONE|DICT|INTERRES
   118   59  137 1    
   119   60   61 2    
   120   60   62 1    
   121   62   63 1    
   122   62   64 1    
   123   62  138 1    
   124   63  139 1    
   125   63  140 1    
   126   63  141 1    
   127   64   65 am   BACKBONE|DICT|INTERRES
   128   64  142 1    
   129   65   66 2    
   130   65   67 1    
   131   67   68 1    
   132   67   69 1    
   133   67  143 1    
   134   68  144 1    
   135   68  145 1    
   136   68  146 1    
   137   69   70 am   BACKBONE|DICT|INTERRES
   138   69  147 1    
   139   70   71 2    
   140   70   72 1    
   141   72   73 1    
   142   72   74 1    
   143   72  148 1    
   144   73  149 1    
   145   73  150 1    
   146   73  151 1    
   147   74   75 am   BACKBONE|DICT|INTERRES
   148   74  152 1    
   149   75   76 2    
   150   75   77 1    
   151   77   78 1    
   152   77   79 1    
   153   77  153 1    
   154   78  154 1    
   155   78  155 1    
   156   78  156 1    
   157   79   80 am   BACKBONE|DICT|INTERRES
   158   79  157 1    
   159   80   81 2    
@<TRIPOS>SUBSTRUCTURE
     1 UNK         1 GROUP             0       ****    0 ROOT    
