@<TRIPOS>MOLECULE
3R207
157   159    1
SMALL
USER_CHARGES


@<TRIPOS>ATOM
      1 CA        -45.5212  -31.1897    4.8240 C.3       0 UNK        -0.1975 
      2 C         -46.4569  -30.1763    4.1819 C.2       0 UNK         0.4852 
      3 O         -46.2734  -29.8271    3.0153 O.2       0 UNK        -0.5216 
      4 N         -47.4582  -29.7026    4.9358 N.am      1 UNK        -0.4461 
      5 CA        -48.4646  -28.7296    4.4867 C.3       1 UNK         0.0864 
      6 C6        -49.6403  -28.6111    5.4863 C.3       14 UNK        -0.0898 
      7 S7        -50.4641  -30.1920    5.8830 S.3       14 UNK        -0.2598 
      8 C8        -50.4753  -30.1611    7.7097 C.3       14 UNK         0.0286 
      9 C9        -51.6383  -29.3612    8.2942 C.ar      14 UNK        -0.0844 
     10 C10       -51.7665  -27.9903    8.0496 C.ar      14 UNK        -0.0881 
     11 C11       -52.8287  -27.2530    8.5839 C.ar      14 UNK        -0.0643 
     12 C12       -53.7561  -27.9019    9.4055 C.ar      14 UNK        -0.0930 
     13 C13       -53.6418  -29.2716    9.6692 C.ar      14 UNK        -0.0827 
     14 C14       -52.5872  -29.9948    9.1017 C.ar      14 UNK        -0.1249 
     15 C15       -54.6821  -29.9784   10.5289 C.3       14 UNK         0.0141 
     16 S16       -53.9404  -30.7902   11.9801 S.3       14 UNK        -0.2313 
     17 C17       -55.4342  -31.3664   12.8586 C.3       14 UNK        -0.0915 
     18 CA        -55.7040  -30.6311   14.2037 C.3       13 UNK         0.0968 
     19 C         -54.6890  -30.9776   15.3270 C.2       13 UNK         0.5732 
     20 N         -54.5725  -32.2466   15.6932 N.am      13 UNK        -0.7310 
     21 O         -54.0151  -30.1080   15.8802 O.2       13 UNK        -0.5035 
     22 N         -55.8175  -29.1794   14.0545 N.am      13 UNK        -0.4233 
     23 C         -56.8387  -28.5065   13.5190 C.2       13 UNK         0.4989 
     24 O         -57.8209  -29.0383   12.9984 O.2       13 UNK        -0.4996 
     25 CA        -56.7297  -26.9732   13.6069 C.3       12 UNK         0.0216 
     26 CB        -58.0163  -26.2337   13.1802 C.3       12 UNK        -0.1964 
     27 N         -56.2647  -26.5469   14.9343 N.am      12 UNK        -0.4276 
     28 C         -56.9022  -26.6849   16.1097 C.2       12 UNK         0.5020 
     29 O         -58.0564  -27.1019   16.2153 O.2       12 UNK        -0.5489 
     30 CA        -56.1271  -26.3430   17.4012 C.3       11 UNK         0.0294 
     31 CB        -56.0284  -27.5787   18.3134 C.3       11 UNK        -0.2019 
     32 N         -54.7740  -25.8353   17.1648 N.am      11 UNK        -0.4493 
     33 C         -54.4697  -24.5953   16.7602 C.2       11 UNK         0.4932 
     34 O         -55.3015  -23.6977   16.6272 O.2       11 UNK        -0.5029 
     35 CA        -52.9941  -24.3136   16.4171 C.3       10 UNK         0.0280 
     36 CB        -52.3081  -23.5765   17.5781 C.3       10 UNK        -0.1976 
     37 N         -52.1962  -25.4959   16.0640 N.am      10 UNK        -0.4242 
     38 C         -52.4460  -26.3579   15.0674 C.2       10 UNK         0.5072 
     39 O         -53.4691  -26.3219   14.3803 O.2       10 UNK        -0.5224 
     40 CA        -51.3863  -27.4496   14.8166 C.3       9 UNK         0.0343 
     41 CB        -51.7243  -28.3163   13.5909 C.3       9 UNK        -0.2003 
     42 N         -50.0450  -26.8859   14.6425 N.am      9 UNK        -0.4272 
     43 C         -49.2366  -26.4796   15.6308 C.2       9 UNK         0.4988 
     44 O         -49.5332  -26.5556   16.8241 O.2       9 UNK        -0.5108 
     45 CA        -47.9018  -25.8351   15.2207 C.3       8 UNK         0.0248 
     46 CB        -46.9134  -26.8890   14.6951 C.3       8 UNK        -0.2001 
     47 N         -48.0856  -24.7777   14.2240 N.am      8 UNK        -0.4140 
     48 C         -48.7124  -23.6148   14.4605 C.2       8 UNK         0.5028 
     49 O         -49.1134  -23.2646   15.5707 O.2       8 UNK        -0.5428 
     50 CA        -48.9526  -22.6902   13.2546 C.3       7 UNK         0.0264 
     51 CB        -47.7144  -21.8254   12.9705 C.3       7 UNK        -0.1988 
     52 N         -49.3334  -23.4235   12.0454 N.am      7 UNK        -0.4454 
     53 C         -50.4735  -24.1177   11.9045 C.2       7 UNK         0.5027 
     54 O         -51.3632  -24.1482   12.7533 O.2       7 UNK        -0.5083 
     55 CA        -50.6459  -24.9197   10.5988 C.3       6 UNK         0.0844 
     56 C56       -51.2513  -24.0093    9.5040 C.3       14 UNK        -0.0967 
     57 S57       -51.5030  -24.8443    7.9066 S.3       14 UNK        -0.2604 
     58 C58       -53.0415  -25.7837    8.2147 C.3       14 UNK         0.0134 
     59 N         -49.3942  -25.5679   10.1913 N.am      6 UNK        -0.4116 
     60 C         -48.7780  -26.5312   10.8925 C.2       5 UNK         0.5034 
     61 O         -49.2255  -27.0218   11.9270 O.2       5 UNK        -0.5045 
     62 CA        -47.3933  -26.9757   10.4013 C.3       5 UNK         0.0224 
     63 CB        -47.5101  -28.0509    9.3112 C.3       5 UNK        -0.1978 
     64 N         -46.6062  -25.8407    9.9161 N.am      5 UNK        -0.4737 
     65 C         -46.0749  -24.9114   10.7252 C.2       4 UNK         0.5027 
     66 O         -46.1563  -24.9558   11.9524 O.2       4 UNK        -0.5211 
     67 CA        -45.3730  -23.7118   10.0632 C.3       4 UNK         0.0297 
     68 CB        -43.8821  -24.0157    9.8499 C.3       4 UNK        -0.1993 
     69 N         -45.9775  -23.3191    8.7884 N.am      4 UNK        -0.4486 
     70 C         -47.2371  -22.8850    8.6382 C.2       3 UNK         0.4961 
     71 O         -48.0070  -22.6913    9.5785 O.2       3 UNK        -0.5105 
     72 CA        -47.7418  -22.6877    7.1958 C.3       3 UNK         0.0299 
     73 CB        -47.5940  -21.2178    6.7737 C.3       3 UNK        -0.1972 
     74 N         -47.0847  -23.5528    6.2048 N.am      3 UNK        -0.4305 
     75 C         -47.0992  -24.8928    6.2348 C.2       2 UNK         0.5006 
     76 O         -47.6479  -25.5479    7.1246 O.2       2 UNK        -0.5106 
     77 CA        -46.3035  -25.6183    5.1374 C.3       2 UNK         0.0296 
     78 CB        -44.8139  -25.6817    5.5154 C.3       2 UNK        -0.2002 
     79 N         -46.8064  -26.9819    4.9796 N.am      2 UNK        -0.4032 
     80 C         -47.8822  -27.3173    4.2546 C.2       1 UNK         0.5000 
     81 O         -48.4415  -26.5532    3.4651 O.2       1 UNK        -0.5238 
     82 H82       -45.5396  -32.1241    4.2637 H         1 UNK         0.0889 
     83 H83       -45.8001  -31.4075    5.8549 H         1 UNK         0.0889 
     84 H84       -44.4995  -30.8109    4.8219 H         1 UNK         0.0889 
     85 H85       -47.5821  -30.0551    5.8740 H         1 UNK         0.3028 
     86 H86       -48.8611  -29.0785    3.5306 H         1 UNK         0.0864 
     87 H87       -49.2714  -28.1587    6.4075 H         1 UNK         0.0720 
     88 H88       -50.4042  -27.9346    5.0970 H         1 UNK         0.0720 
     89 H89       -50.5207  -31.1940    8.0582 H         1 UNK         0.0814 
     90 H90       -49.5321  -29.7664    8.0839 H         1 UNK         0.0814 
     91 H91       -51.0518  -27.4898    7.4195 H         1 UNK         0.1469 
     92 H92       -54.5859  -27.3441    9.8176 H         1 UNK         0.1381 
     93 H93       -52.5056  -31.0551    9.2989 H         1 UNK         0.1206 
     94 H94       -55.4427  -29.2737   10.8679 H         1 UNK         0.0813 
     95 H95       -55.1974  -30.7253    9.9234 H         1 UNK         0.0813 
     96 H96       -55.3389  -32.4411   13.0194 H         1 UNK         0.0638 
     97 H97       -56.2999  -31.2550   12.2044 H         1 UNK         0.0638 
     98 H98       -56.6681  -30.9759   14.5819 H         1 UNK         0.0568 
     99 H99       -53.9196  -32.4838   16.4233 H         1 UNK         0.3450 
    100 H100      -55.1202  -32.9709   15.2560 H         1 UNK         0.3450 
    101 H101      -55.0589  -28.6676   14.4856 H         1 UNK         0.2987 
    102 H102      -55.9431  -26.6868   12.9067 H         1 UNK         0.0766 
    103 H103      -57.8977  -25.1533   13.2613 H         1 UNK         0.0798 
    104 H104      -58.8756  -26.5241   13.7850 H         1 UNK         0.0798 
    105 H105      -58.2642  -26.4559   12.1416 H         1 UNK         0.0798 
    106 H106      -55.2956  -26.2351   14.9526 H         1 UNK         0.3198 
    107 H107      -56.6998  -25.5749   17.9256 H         1 UNK         0.0843 
    108 H108      -55.4805  -28.3915   17.8341 H         1 UNK         0.0831 
    109 H109      -57.0186  -27.9601   18.5669 H         1 UNK         0.0831 
    110 H110      -55.5275  -27.3418   19.2523 H         1 UNK         0.0831 
    111 H111      -54.0196  -26.5016   17.2466 H         1 UNK         0.3133 
    112 H112      -52.9877  -23.6568   15.5448 H         1 UNK         0.0566 
    113 H113      -51.2957  -23.2719   17.3116 H         1 UNK         0.0814 
    114 H114      -52.8556  -22.6718   17.8465 H         1 UNK         0.0814 
    115 H115      -52.2475  -24.1992   18.4716 H         1 UNK         0.0814 
    116 H116      -51.3254  -25.6246   16.5696 H         1 UNK         0.3091 
    117 H117      -51.3832  -28.1031   15.6915 H         1 UNK         0.0702 
    118 H118      -52.6852  -28.8117   13.7246 H         1 UNK         0.0785 
    119 H119      -51.7884  -27.7214   12.6785 H         1 UNK         0.0785 
    120 H120      -50.9782  -29.0947   13.4317 H         1 UNK         0.0785 
    121 H121      -49.7277  -26.7915   13.6792 H         1 UNK         0.2998 
    122 H122      -47.4642  -25.3803   16.1119 H         1 UNK         0.0697 
    123 H123      -47.2797  -27.3779   13.7924 H         1 UNK         0.0825 
    124 H124      -46.7408  -27.6668   15.4400 H         1 UNK         0.0825 
    125 H125      -45.9465  -26.4424   14.4619 H         1 UNK         0.0825 
    126 H126      -47.7102  -24.9494   13.2969 H         1 UNK         0.3029 
    127 H127      -49.7799  -22.0245   13.5103 H         1 UNK         0.0897 
    128 H128      -47.8872  -21.1449   12.1362 H         1 UNK         0.0792 
    129 H129      -46.8422  -22.4334   12.7317 H         1 UNK         0.0792 
    130 H130      -47.4584  -21.2171   13.8389 H         1 UNK         0.0792 
    131 H131      -48.6981  -23.3678   11.2532 H         1 UNK         0.3086 
    132 H132      -51.3644  -25.7165   10.8046 H         1 UNK         0.0583 
    133 H133      -52.2053  -23.5942    9.8354 H         1 UNK         0.1020 
    134 H134      -50.6057  -23.1484    9.3215 H         1 UNK         0.1020 
    135 H135      -53.6322  -25.2796    8.9809 H         1 UNK         0.0694 
    136 H136      -53.6400  -25.7547    7.3035 H         1 UNK         0.0694 
    137 H137      -48.9607  -25.2267    9.3444 H         1 UNK         0.2989 
    138 H138      -46.8653  -27.4164   11.2502 H         1 UNK         0.1055 
    139 H139      -47.9823  -28.9482    9.7125 H         1 UNK         0.0806 
    140 H140      -46.5313  -28.3421    8.9302 H         1 UNK         0.0806 
    141 H141      -48.1139  -27.7124    8.4701 H         1 UNK         0.0806 
    142 H142      -46.5778  -25.7028    8.9122 H         1 UNK         0.3061 
    143 H143      -45.4555  -22.8629   10.7447 H         1 UNK         0.0734 
    144 H144      -43.3505  -23.1474    9.4601 H         1 UNK         0.0832 
    145 H145      -43.4030  -24.2903   10.7909 H         1 UNK         0.0832 
    146 H146      -43.7322  -24.8433    9.1552 H         1 UNK         0.0832 
    147 H147      -45.4152  -23.4396    7.9592 H         1 UNK         0.3156 
    148 H148      -48.8050  -22.9378    7.1914 H         1 UNK         0.0589 
    149 H149      -46.5477  -20.9127    6.7279 H         1 UNK         0.0808 
    150 H150      -48.0411  -21.0378    5.7959 H         1 UNK         0.0808 
    151 H151      -48.0952  -20.5568    7.4825 H         1 UNK         0.0808 
    152 H152      -46.5997  -23.0885    5.4496 H         1 UNK         0.3098 
    153 H153      -46.4118  -25.0754    4.1959 H         1 UNK         0.0720 
    154 H154      -44.6581  -26.1866    6.4701 H         1 UNK         0.0791 
    155 H155      -44.3853  -24.6824    5.6004 H         1 UNK         0.0791 
    156 H156      -44.2373  -26.2142    4.7586 H         1 UNK         0.0791 
    157 H157      -46.4454  -27.6687    5.6245 H         1 UNK         0.3028 
@<TRIPOS>BOND
     1    1    2 1    
     2    1   82 1    
     3    1   83 1    
     4    1   84 1    
     5    2    3 2    
     6    2    4 am   BACKBONE|DICT|INTERRES
     7    4    5 1    
     8    4   85 1    
     9    5    6 1    
    10    5   80 1    
    11    5   86 1    
    12    6    7 1    
    13    6   87 1    
    14    6   88 1    
    15    7    8 1    
    16    8    9 1    
    17    8   89 1    
    18    8   90 1    
    19    9   10 ar   
    20    9   14 ar   
    21   10   11 ar   
    22   10   91 1    
    23   11   12 ar   
    24   11   58 1    
    25   12   13 ar   
    26   12   92 1    
    27   13   14 ar   
    28   13   15 1    
    29   14   93 1    
    30   15   16 1    
    31   15   94 1    
    32   15   95 1    
    33   16   17 1    
    34   17   18 1    
    35   17   96 1    
    36   17   97 1    
    37   18   19 1    
    38   18   22 1    
    39   18   98 1    
    40   19   20 am   BACKBONE|DICT|INTERRES
    41   19   21 2    
    42   20   99 1    
    43   20  100 1    
    44   22   23 am   BACKBONE|DICT|INTERRES
    45   22  101 1    
    46   23   24 2    
    47   23   25 1    
    48   25   26 1    
    49   25   27 1    
    50   25  102 1    
    51   26  103 1    
    52   26  104 1    
    53   26  105 1    
    54   27   28 am   BACKBONE|DICT|INTERRES
    55   27  106 1    
    56   28   29 2    
    57   28   30 1    
    58   30   31 1    
    59   30   32 1    
    60   30  107 1    
    61   31  108 1    
    62   31  109 1    
    63   31  110 1    
    64   32   33 am   BACKBONE|DICT|INTERRES
    65   32  111 1    
    66   33   34 2    
    67   33   35 1    
    68   35   36 1    
    69   35   37 1    
    70   35  112 1    
    71   36  113 1    
    72   36  114 1    
    73   36  115 1    
    74   37   38 am   BACKBONE|DICT|INTERRES
    75   37  116 1    
    76   38   39 2    
    77   38   40 1    
    78   40   41 1    
    79   40   42 1    
    80   40  117 1    
    81   41  118 1    
    82   41  119 1    
    83   41  120 1    
    84   42   43 am   BACKBONE|DICT|INTERRES
    85   42  121 1    
    86   43   44 2    
    87   43   45 1    
    88   45   46 1    
    89   45   47 1    
    90   45  122 1    
    91   46  123 1    
    92   46  124 1    
    93   46  125 1    
    94   47   48 am   BACKBONE|DICT|INTERRES
    95   47  126 1    
    96   48   49 2    
    97   48   50 1    
    98   50   51 1    
    99   50   52 1    
   100   50  127 1    
   101   51  128 1    
   102   51  129 1    
   103   51  130 1    
   104   52   53 am   BACKBONE|DICT|INTERRES
   105   52  131 1    
   106   53   54 2    
   107   53   55 1    
   108   55   56 1    
   109   55   59 1    
   110   55  132 1    
   111   56   57 1    
   112   56  133 1    
   113   56  134 1    
   114   57   58 1    
   115   58  135 1    
   116   58  136 1    
   117   59   60 am   BACKBONE|DICT|INTERRES
   118   59  137 1    
   119   60   61 2    
   120   60   62 1    
   121   62   63 1    
   122   62   64 1    
   123   62  138 1    
   124   63  139 1    
   125   63  140 1    
   126   63  141 1    
   127   64   65 am   BACKBONE|DICT|INTERRES
   128   64  142 1    
   129   65   66 2    
   130   65   67 1    
   131   67   68 1    
   132   67   69 1    
   133   67  143 1    
   134   68  144 1    
   135   68  145 1    
   136   68  146 1    
   137   69   70 am   BACKBONE|DICT|INTERRES
   138   69  147 1    
   139   70   71 2    
   140   70   72 1    
   141   72   73 1    
   142   72   74 1    
   143   72  148 1    
   144   73  149 1    
   145   73  150 1    
   146   73  151 1    
   147   74   75 am   BACKBONE|DICT|INTERRES
   148   74  152 1    
   149   75   76 2    
   150   75   77 1    
   151   77   78 1    
   152   77   79 1    
   153   77  153 1    
   154   78  154 1    
   155   78  155 1    
   156   78  156 1    
   157   79   80 am   BACKBONE|DICT|INTERRES
   158   79  157 1    
   159   80   81 2    
@<TRIPOS>SUBSTRUCTURE
     1 UNK         1 GROUP             0       ****    0 ROOT    
