@<TRIPOS>MOLECULE
3R207
157   159    1
SMALL
USER_CHARGES


@<TRIPOS>ATOM
      1 CA        -50.0991  -29.1615    8.8095 C.3       0 UNK        -0.1975 
      2 C         -49.5420  -29.1208    7.3941 C.2       0 UNK         0.4852 
      3 O         -48.4902  -29.7018    7.1241 O.2       0 UNK        -0.5216 
      4 N         -50.2359  -28.4258    6.4844 N.am      1 UNK        -0.4461 
      5 CA        -49.9154  -28.2771    5.0605 C.3       1 UNK         0.0864 
      6 C6        -51.1613  -27.9137    4.1917 C.3       14 UNK        -0.0898 
      7 S7        -52.6201  -29.0296    4.0780 S.3       14 UNK        -0.2598 
      8 C8        -52.8010  -29.9800    5.6325 C.3       14 UNK         0.0286 
      9 C9        -53.2182  -29.1984    6.8839 C.ar      14 UNK        -0.0844 
     10 C10       -53.2036  -27.7993    6.9488 C.ar      14 UNK        -0.0881 
     11 C11       -53.3650  -27.1385    8.1671 C.ar      14 UNK        -0.0643 
     12 C12       -53.6800  -27.8713    9.3117 C.ar      14 UNK        -0.0930 
     13 C13       -53.7695  -29.2641    9.2534 C.ar      14 UNK        -0.0827 
     14 C14       -53.5259  -29.9203    8.0424 C.ar      14 UNK        -0.1249 
     15 C15       -54.0740  -30.0578   10.5129 C.3       14 UNK         0.0141 
     16 S16       -52.6859  -29.9669   11.6854 S.3       14 UNK        -0.2313 
     17 C17       -53.0932  -31.2762   12.8898 C.3       14 UNK        -0.0915 
     18 CA        -54.5383  -31.2420   13.4560 C.3       13 UNK         0.0968 
     19 C         -54.7356  -32.3929   14.4823 C.2       13 UNK         0.5732 
     20 N         -55.1424  -33.5697   14.0257 N.am      13 UNK        -0.7310 
     21 O         -54.4812  -32.2406   15.6760 O.2       13 UNK        -0.5035 
     22 N         -54.8821  -29.9205   14.0020 N.am      13 UNK        -0.4233 
     23 C         -56.0993  -29.5654   14.4342 C.2       13 UNK         0.4989 
     24 O         -57.0953  -30.2862   14.3564 O.2       13 UNK        -0.4996 
     25 CA        -56.2398  -28.1679   15.0562 C.3       12 UNK         0.0216 
     26 CB        -56.0030  -28.2303   16.5738 C.3       12 UNK        -0.1964 
     27 N         -55.3425  -27.1747   14.4583 N.am      12 UNK        -0.4276 
     28 C         -55.5722  -26.5708   13.2813 C.2       12 UNK         0.5020 
     29 O         -56.5227  -26.8653   12.5545 O.2       12 UNK        -0.5489 
     30 CA        -54.6013  -25.4586   12.8196 C.3       11 UNK         0.0294 
     31 CB        -55.3345  -24.2931   12.1252 C.3       11 UNK        -0.2019 
     32 N         -53.7001  -24.9482   13.8575 N.am      11 UNK        -0.4493 
     33 C         -54.0018  -24.3845   15.0368 C.2       11 UNK         0.4932 
     34 O         -55.1470  -24.1059   15.3949 O.2       11 UNK        -0.5029 
     35 CA        -52.8105  -24.1509   15.9937 C.3       10 UNK         0.0280 
     36 CB        -53.2466  -24.0512   17.4702 C.3       10 UNK        -0.1976 
     37 N         -51.7418  -25.1523   15.8425 N.am      10 UNK        -0.4242 
     38 C         -51.8663  -26.4886   15.9219 C.2       10 UNK         0.5072 
     39 O         -52.9250  -27.0527   16.2015 O.2       10 UNK        -0.5224 
     40 CA        -50.6495  -27.3614   15.5598 C.3       9 UNK         0.0343 
     41 CB        -50.9891  -28.2719   14.3688 C.3       9 UNK        -0.2003 
     42 N         -49.4486  -26.5921   15.2302 N.am      9 UNK        -0.4272 
     43 C         -48.5960  -26.0902   16.1330 C.2       9 UNK         0.4988 
     44 O         -48.7054  -26.2589   17.3479 O.2       9 UNK        -0.5108 
     45 CA        -47.4410  -25.2290   15.5932 C.3       8 UNK         0.0248 
     46 CB        -46.2645  -26.1192   15.1632 C.3       8 UNK        -0.2001 
     47 N         -47.8318  -24.3507   14.4840 N.am      8 UNK        -0.4140 
     48 C         -48.7635  -23.3884   14.5659 C.2       8 UNK         0.5028 
     49 O         -49.3991  -23.1357   15.5897 O.2       8 UNK        -0.5428 
     50 CA        -49.0797  -22.6043   13.2819 C.3       7 UNK         0.0264 
     51 CB        -47.9738  -21.5835   12.9704 C.3       7 UNK        -0.1988 
     52 N         -49.3043  -23.4678   12.1205 N.am      7 UNK        -0.4454 
     53 C         -50.2773  -24.3885   12.0325 C.2       7 UNK         0.5027 
     54 O         -51.1006  -24.6071   12.9198 O.2       7 UNK        -0.5083 
     55 CA        -50.3221  -25.2371   10.7480 C.3       6 UNK         0.0844 
     56 C56       -50.9170  -24.3886    9.5941 C.3       14 UNK        -0.0967 
     57 S57       -51.2945  -25.3503    8.0966 S.3       14 UNK        -0.2604 
     58 C58       -53.0913  -25.6475    8.2499 C.3       14 UNK         0.0134 
     59 N         -49.0029  -25.8163   10.4531 N.am      6 UNK        -0.4116 
     60 C         -48.3025  -26.5889   11.3035 C.2       5 UNK         0.5034 
     61 O         -48.7391  -27.0018   12.3776 O.2       5 UNK        -0.5045 
     62 CA        -46.8379  -26.8879   10.9485 C.3       5 UNK         0.0224 
     63 CB        -46.7081  -28.0887   10.0009 C.3       5 UNK        -0.1978 
     64 N         -46.1675  -25.7194   10.3787 N.am      5 UNK        -0.4737 
     65 C         -45.7975  -24.6468   11.0921 C.2       4 UNK         0.5027 
     66 O         -45.9534  -24.5496   12.3082 O.2       4 UNK        -0.5211 
     67 CA        -45.1809  -23.4713   10.3161 C.3       4 UNK         0.0297 
     68 CB        -43.6664  -23.6707   10.1507 C.3       4 UNK        -0.1993 
     69 N         -45.7980  -23.2770    9.0026 N.am      4 UNK        -0.4486 
     70 C         -47.0704  -22.9002    8.8157 C.2       3 UNK         0.4961 
     71 O         -47.8440  -22.6191    9.7316 O.2       3 UNK        -0.5105 
     72 CA        -47.5781  -22.8890    7.3632 C.3       3 UNK         0.0299 
     73 CB        -47.2563  -21.5460    6.6894 C.3       3 UNK        -0.1972 
     74 N         -47.0595  -23.9928    6.5429 N.am      3 UNK        -0.4305 
     75 C         -47.2508  -25.2913    6.8136 C.2       2 UNK         0.5006 
     76 O         -47.8148  -25.7012    7.8297 O.2       2 UNK        -0.5106 
     77 CA        -46.6919  -26.3120    5.8098 C.3       2 UNK         0.0296 
     78 CB        -45.3845  -26.9271    6.3342 C.3       2 UNK        -0.2002 
     79 N         -47.6781  -27.3718    5.5968 N.am      2 UNK        -0.4032 
     80 C         -48.8020  -27.2102    4.8862 C.2       1 UNK         0.5000 
     81 O         -48.9883  -26.2339    4.1543 O.2       1 UNK        -0.5238 
     82 H82       -50.6771  -28.2664    9.0381 H         1 UNK         0.0889 
     83 H83       -49.2990  -29.2372    9.5422 H         1 UNK         0.0889 
     84 H84       -50.7472  -30.0283    8.9328 H         1 UNK         0.0889 
     85 H85       -51.0751  -27.9499    6.7876 H         1 UNK         0.3028 
     86 H86       -49.5163  -29.2247    4.6933 H         1 UNK         0.0864 
     87 H87       -51.5309  -26.9266    4.4734 H         1 UNK         0.0720 
     88 H88       -50.8356  -27.7956    3.1562 H         1 UNK         0.0720 
     89 H89       -53.5533  -30.7487    5.4501 H         1 UNK         0.0814 
     90 H90       -51.8729  -30.5169    5.8309 H         1 UNK         0.0814 
     91 H91       -52.9784  -27.2056    6.0782 H         1 UNK         0.1469 
     92 H92       -53.8110  -27.3683   10.2584 H         1 UNK         0.1381 
     93 H93       -53.5401  -31.0013    8.0090 H         1 UNK         0.1206 
     94 H94       -54.9761  -29.6597   10.9799 H         1 UNK         0.0813 
     95 H95       -54.2768  -31.1018   10.2692 H         1 UNK         0.0813 
     96 H96       -52.9046  -32.2350   12.4032 H         1 UNK         0.0638 
     97 H97       -52.3675  -31.2058   13.7021 H         1 UNK         0.0638 
     98 H98       -55.2320  -31.4280   12.6347 H         1 UNK         0.0568 
     99 H99       -55.2598  -34.3313   14.6755 H         1 UNK         0.3450 
    100 H100      -55.3414  -33.7119   13.0478 H         1 UNK         0.3450 
    101 H101      -54.1194  -29.2711   14.1132 H         1 UNK         0.2987 
    102 H102      -57.2686  -27.8380   14.8952 H         1 UNK         0.0766 
    103 H103      -56.7236  -28.8946   17.0526 H         1 UNK         0.0798 
    104 H104      -56.1101  -27.2478   17.0342 H         1 UNK         0.0798 
    105 H105      -55.0077  -28.6064   16.8137 H         1 UNK         0.0798 
    106 H106      -54.5305  -26.9059   15.0078 H         1 UNK         0.3198 
    107 H107      -53.9509  -25.9239   12.0789 H         1 UNK         0.0843 
    108 H108      -56.0417  -23.8058   12.7970 H         1 UNK         0.0831 
    109 H109      -55.8966  -24.6417   11.2579 H         1 UNK         0.0831 
    110 H110      -54.6325  -23.5384   11.7707 H         1 UNK         0.0831 
    111 H111      -52.7066  -25.0364   13.6430 H         1 UNK         0.3133 
    112 H112      -52.3721  -23.1938   15.7078 H         1 UNK         0.0566 
    113 H113      -53.7421  -24.9626   17.8068 H         1 UNK         0.0814 
    114 H114      -53.9451  -23.2268   17.6185 H         1 UNK         0.0814 
    115 H115      -52.3928  -23.8722   18.1236 H         1 UNK         0.0814 
    116 H116      -50.8385  -24.7746   15.5790 H         1 UNK         0.3091 
    117 H117      -50.4389  -27.9970   16.4222 H         1 UNK         0.0702 
    118 H118      -50.1495  -28.9158   14.1063 H         1 UNK         0.0785 
    119 H119      -51.2538  -27.6931   13.4825 H         1 UNK         0.0785 
    120 H120      -51.8325  -28.9223   14.6008 H         1 UNK         0.0785 
    121 H121      -49.2590  -26.4535   14.2413 H         1 UNK         0.2998 
    122 H122      -47.1008  -24.5885   16.4094 H         1 UNK         0.0697 
    123 H123      -45.4022  -25.5217   14.8668 H         1 UNK         0.0825 
    124 H124      -46.5322  -26.7606   14.3230 H         1 UNK         0.0825 
    125 H125      -45.9441  -26.7669   15.9804 H         1 UNK         0.0825 
    126 H126      -47.3196  -24.4661   13.6116 H         1 UNK         0.3029 
    127 H127      -50.0059  -22.0527   13.4576 H         1 UNK         0.0897 
    128 H128      -47.8147  -20.9107   13.8142 H         1 UNK         0.0792 
    129 H129      -48.2346  -20.9677   12.1093 H         1 UNK         0.0792 
    130 H130      -47.0217  -22.0688   12.7560 H         1 UNK         0.0792 
    131 H131      -48.6915  -23.3235   11.3212 H         1 UNK         0.3086 
    132 H132      -51.0002  -26.0725   10.9370 H         1 UNK         0.0583 
    133 H133      -51.8244  -23.8737    9.9161 H         1 UNK         0.1020 
    134 H134      -50.2249  -23.5963    9.3084 H         1 UNK         0.1020 
    135 H135      -53.4802  -25.2413    9.1845 H         1 UNK         0.0694 
    136 H136      -53.6131  -25.1284    7.4447 H         1 UNK         0.0694 
    137 H137      -48.5870  -25.5801    9.5552 H         1 UNK         0.2989 
    138 H138      -46.3252  -27.1477   11.8774 H         1 UNK         0.1055 
    139 H139      -47.2308  -27.9258    9.0593 H         1 UNK         0.0806 
    140 H140      -47.1242  -28.9872   10.4576 H         1 UNK         0.0806 
    141 H141      -45.6639  -28.3016    9.7719 H         1 UNK         0.0806 
    142 H142      -46.0888  -25.6861    9.3721 H         1 UNK         0.3061 
    143 H143      -45.3444  -22.5646   10.9026 H         1 UNK         0.0734 
    144 H144      -43.4353  -24.5544    9.5546 H         1 UNK         0.0832 
    145 H145      -43.2020  -22.8091    9.6707 H         1 UNK         0.0832 
    146 H146      -43.1835  -23.7976   11.1208 H         1 UNK         0.0832 
    147 H147      -45.2343  -23.4843    8.1911 H         1 UNK         0.3156 
    148 H148      -48.6642  -22.9973    7.3989 H         1 UNK         0.0589 
    149 H149      -47.7044  -21.4816    5.6977 H         1 UNK         0.0808 
    150 H150      -46.1817  -21.3914    6.5844 H         1 UNK         0.0808 
    151 H151      -47.6496  -20.7130    7.2741 H         1 UNK         0.0808 
    152 H152      -46.5804  -23.7385    5.6905 H         1 UNK         0.3098 
    153 H153      -46.4887  -25.8151    4.8587 H         1 UNK         0.0720 
    154 H154      -44.6280  -26.1588    6.4992 H         1 UNK         0.0791 
    155 H155      -44.9706  -27.6402    5.6210 H         1 UNK         0.0791 
    156 H156      -45.5318  -27.4499    7.2795 H         1 UNK         0.0791 
    157 H157      -47.6375  -28.1755    6.2164 H         1 UNK         0.3028 
@<TRIPOS>BOND
     1    1    2 1    
     2    1   82 1    
     3    1   83 1    
     4    1   84 1    
     5    2    3 2    
     6    2    4 am   BACKBONE|DICT|INTERRES
     7    4    5 1    
     8    4   85 1    
     9    5    6 1    
    10    5   80 1    
    11    5   86 1    
    12    6    7 1    
    13    6   87 1    
    14    6   88 1    
    15    7    8 1    
    16    8    9 1    
    17    8   89 1    
    18    8   90 1    
    19    9   10 ar   
    20    9   14 ar   
    21   10   11 ar   
    22   10   91 1    
    23   11   12 ar   
    24   11   58 1    
    25   12   13 ar   
    26   12   92 1    
    27   13   14 ar   
    28   13   15 1    
    29   14   93 1    
    30   15   16 1    
    31   15   94 1    
    32   15   95 1    
    33   16   17 1    
    34   17   18 1    
    35   17   96 1    
    36   17   97 1    
    37   18   19 1    
    38   18   22 1    
    39   18   98 1    
    40   19   20 am   BACKBONE|DICT|INTERRES
    41   19   21 2    
    42   20   99 1    
    43   20  100 1    
    44   22   23 am   BACKBONE|DICT|INTERRES
    45   22  101 1    
    46   23   24 2    
    47   23   25 1    
    48   25   26 1    
    49   25   27 1    
    50   25  102 1    
    51   26  103 1    
    52   26  104 1    
    53   26  105 1    
    54   27   28 am   BACKBONE|DICT|INTERRES
    55   27  106 1    
    56   28   29 2    
    57   28   30 1    
    58   30   31 1    
    59   30   32 1    
    60   30  107 1    
    61   31  108 1    
    62   31  109 1    
    63   31  110 1    
    64   32   33 am   BACKBONE|DICT|INTERRES
    65   32  111 1    
    66   33   34 2    
    67   33   35 1    
    68   35   36 1    
    69   35   37 1    
    70   35  112 1    
    71   36  113 1    
    72   36  114 1    
    73   36  115 1    
    74   37   38 am   BACKBONE|DICT|INTERRES
    75   37  116 1    
    76   38   39 2    
    77   38   40 1    
    78   40   41 1    
    79   40   42 1    
    80   40  117 1    
    81   41  118 1    
    82   41  119 1    
    83   41  120 1    
    84   42   43 am   BACKBONE|DICT|INTERRES
    85   42  121 1    
    86   43   44 2    
    87   43   45 1    
    88   45   46 1    
    89   45   47 1    
    90   45  122 1    
    91   46  123 1    
    92   46  124 1    
    93   46  125 1    
    94   47   48 am   BACKBONE|DICT|INTERRES
    95   47  126 1    
    96   48   49 2    
    97   48   50 1    
    98   50   51 1    
    99   50   52 1    
   100   50  127 1    
   101   51  128 1    
   102   51  129 1    
   103   51  130 1    
   104   52   53 am   BACKBONE|DICT|INTERRES
   105   52  131 1    
   106   53   54 2    
   107   53   55 1    
   108   55   56 1    
   109   55   59 1    
   110   55  132 1    
   111   56   57 1    
   112   56  133 1    
   113   56  134 1    
   114   57   58 1    
   115   58  135 1    
   116   58  136 1    
   117   59   60 am   BACKBONE|DICT|INTERRES
   118   59  137 1    
   119   60   61 2    
   120   60   62 1    
   121   62   63 1    
   122   62   64 1    
   123   62  138 1    
   124   63  139 1    
   125   63  140 1    
   126   63  141 1    
   127   64   65 am   BACKBONE|DICT|INTERRES
   128   64  142 1    
   129   65   66 2    
   130   65   67 1    
   131   67   68 1    
   132   67   69 1    
   133   67  143 1    
   134   68  144 1    
   135   68  145 1    
   136   68  146 1    
   137   69   70 am   BACKBONE|DICT|INTERRES
   138   69  147 1    
   139   70   71 2    
   140   70   72 1    
   141   72   73 1    
   142   72   74 1    
   143   72  148 1    
   144   73  149 1    
   145   73  150 1    
   146   73  151 1    
   147   74   75 am   BACKBONE|DICT|INTERRES
   148   74  152 1    
   149   75   76 2    
   150   75   77 1    
   151   77   78 1    
   152   77   79 1    
   153   77  153 1    
   154   78  154 1    
   155   78  155 1    
   156   78  156 1    
   157   79   80 am   BACKBONE|DICT|INTERRES
   158   79  157 1    
   159   80   81 2    
@<TRIPOS>SUBSTRUCTURE
     1 UNK         1 GROUP             0       ****    0 ROOT    
