@<TRIPOS>MOLECULE
3R207
157   159    1
SMALL
USER_CHARGES


@<TRIPOS>ATOM
      1 CA        -50.7884  -31.7119    6.4788 C.3       0 UNK        -0.1975 
      2 C         -50.4742  -30.5589    5.5407 C.2       0 UNK         0.4852 
      3 O         -49.7055  -30.7315    4.5940 O.2       0 UNK        -0.5216 
      4 N         -51.0601  -29.3811    5.7989 N.am      1 UNK        -0.4461 
      5 CA        -50.8723  -28.1664    4.9922 C.3       1 UNK         0.0864 
      6 C6        -51.9502  -27.0888    5.2764 C.3       14 UNK        -0.0898 
      7 S7        -53.6474  -27.6843    4.9557 S.3       14 UNK        -0.2598 
      8 C8        -54.4202  -27.5896    6.6037 C.3       14 UNK         0.0286 
      9 C9        -53.8163  -28.5995    7.5668 C.ar      14 UNK        -0.0844 
     10 C10       -52.8508  -28.1980    8.4922 C.ar      14 UNK        -0.0881 
     11 C11       -52.2477  -29.1278    9.3462 C.ar      14 UNK        -0.0643 
     12 C12       -52.6621  -30.4626    9.2976 C.ar      14 UNK        -0.0930 
     13 C13       -53.6422  -30.8735    8.3891 C.ar      14 UNK        -0.0827 
     14 C14       -54.2128  -29.9376    7.5230 C.ar      14 UNK        -0.1249 
     15 C15       -54.0508  -32.3373    8.3121 C.3       14 UNK         0.0141 
     16 S16       -55.1106  -32.8349    9.7036 S.3       14 UNK        -0.2313 
     17 C17       -56.6548  -31.9143    9.3683 C.3       14 UNK        -0.0915 
     18 CA        -57.0594  -30.9488   10.5139 C.3       13 UNK         0.0968 
     19 C         -57.5353  -31.7282   11.7782 C.2       13 UNK         0.5732 
     20 N         -56.8040  -31.7121   12.8867 N.am      13 UNK        -0.7310 
     21 O         -58.5945  -32.3510   11.7509 O.2       13 UNK        -0.5035 
     22 N         -56.0330  -29.9163   10.7404 N.am      13 UNK        -0.4233 
     23 C         -56.2036  -28.8263   11.4972 C.2       13 UNK         0.4989 
     24 O         -57.2595  -28.5332   12.0644 O.2       13 UNK        -0.4996 
     25 CA        -54.9973  -27.8981   11.6541 C.3       12 UNK         0.0216 
     26 CB        -55.0788  -26.7089   10.6805 C.3       12 UNK        -0.1964 
     27 N         -54.9864  -27.4170   13.0310 N.am      12 UNK        -0.4276 
     28 C         -53.9029  -27.0535   13.7208 C.2       12 UNK         0.5020 
     29 O         -52.7604  -27.0424   13.2606 O.2       12 UNK        -0.5489 
     30 CA        -54.1310  -26.6762   15.1867 C.3       11 UNK         0.0294 
     31 CB        -54.0284  -27.9196   16.0902 C.3       11 UNK        -0.2019 
     32 N         -53.1386  -25.6834   15.5878 N.am      11 UNK        -0.4493 
     33 C         -53.2745  -24.8360   16.6155 C.2       11 UNK         0.4932 
     34 O         -54.2728  -24.7956   17.3377 O.2       11 UNK        -0.5029 
     35 CA        -52.0974  -23.8778   16.8759 C.3       10 UNK         0.0280 
     36 CB        -52.2004  -23.1245   18.2191 C.3       10 UNK        -0.1976 
     37 N         -50.8021  -24.5475   16.7408 N.am      10 UNK        -0.4242 
     38 C         -50.3032  -25.5525   17.4750 C.2       10 UNK         0.5072 
     39 O         -50.8589  -26.0375   18.4615 O.2       10 UNK        -0.5224 
     40 CA        -48.9493  -26.1298   17.0201 C.3       9 UNK         0.0343 
     41 CB        -49.1745  -27.3865   16.1630 C.3       9 UNK        -0.2003 
     42 N         -48.1338  -25.1723   16.2653 N.am      9 UNK        -0.4272 
     43 C         -47.5466  -24.0874   16.7922 C.2       9 UNK         0.4988 
     44 O         -47.5480  -23.8238   17.9952 O.2       9 UNK        -0.5108 
     45 CA        -46.8678  -23.1157   15.8100 C.3       8 UNK         0.0248 
     46 CB        -45.4649  -23.6137   15.4281 C.3       8 UNK        -0.2001 
     47 N         -47.6638  -22.8774   14.6007 N.am      8 UNK        -0.4140 
     48 C         -48.8614  -22.2710   14.5897 C.2       8 UNK         0.5028 
     49 O         -49.3975  -21.7944   15.5898 O.2       8 UNK        -0.5428 
     50 CA        -49.6108  -22.2121   13.2483 C.3       7 UNK         0.0264 
     51 CB        -49.1146  -21.0322   12.3977 C.3       7 UNK        -0.1988 
     52 N         -49.5024  -23.4538   12.4807 N.am      7 UNK        -0.4454 
     53 C         -50.0000  -24.6395   12.8630 C.2       7 UNK         0.5027 
     54 O         -50.6658  -24.7964   13.8862 O.2       7 UNK        -0.5083 
     55 CA        -49.6321  -25.8600   11.9954 C.3       6 UNK         0.0844 
     56 C56       -50.5447  -25.9847   10.7496 C.3       14 UNK        -0.0967 
     57 S57       -50.0606  -27.3986    9.6965 S.3       14 UNK        -0.2604 
     58 C58       -51.1526  -28.7187   10.3275 C.3       14 UNK         0.0134 
     59 N         -48.2120  -25.8393   11.6395 N.am      6 UNK        -0.4116 
     60 C         -47.1945  -26.0028   12.4929 C.2       5 UNK         0.5034 
     61 O         -47.3302  -26.1961   13.6996 O.2       5 UNK        -0.5045 
     62 CA        -45.7820  -25.8924   11.8966 C.3       5 UNK         0.0224 
     63 CB        -45.3124  -27.2538   11.3613 C.3       5 UNK        -0.1978 
     64 N         -45.7012  -24.8876   10.8318 N.am      5 UNK        -0.4737 
     65 C         -45.8526  -23.5714   11.0345 C.2       4 UNK         0.5027 
     66 O         -46.0419  -23.0663   12.1409 O.2       4 UNK        -0.5211 
     67 CA        -45.8508  -22.6831    9.7820 C.3       4 UNK         0.0297 
     68 CB        -44.4231  -22.4878    9.2480 C.3       4 UNK        -0.1993 
     69 N         -46.7123  -23.2063    8.7174 N.am      4 UNK        -0.4486 
     70 C         -48.0411  -23.3424    8.8055 C.2       3 UNK         0.4961 
     71 O         -48.6861  -23.0923    9.8215 O.2       3 UNK        -0.5105 
     72 CA        -48.7844  -23.8575    7.5649 C.3       3 UNK         0.0299 
     73 CB        -48.5555  -22.9580    6.3331 C.3       3 UNK        -0.1972 
     74 N         -48.5175  -25.2676    7.2672 N.am      3 UNK        -0.4305 
     75 C         -47.3703  -25.8406    6.8731 C.2       2 UNK         0.5006 
     76 O         -46.3025  -25.2379    6.7534 O.2       2 UNK        -0.5106 
     77 CA        -47.4193  -27.3462    6.5516 C.3       2 UNK         0.0296 
     78 CB        -46.8169  -28.1672    7.7032 C.3       2 UNK        -0.2002 
     79 N         -48.7681  -27.8433    6.2518 N.am      2 UNK        -0.4032 
     80 C         -49.4573  -27.5613    5.1335 C.2       1 UNK         0.5000 
     81 O         -49.0196  -26.8477    4.2291 O.2       1 UNK        -0.5238 
     82 H82       -50.1013  -32.5417    6.3146 H         1 UNK         0.0889 
     83 H83       -51.8021  -32.0712    6.3065 H         1 UNK         0.0889 
     84 H84       -50.6949  -31.4020    7.5187 H         1 UNK         0.0889 
     85 H85       -51.7228  -29.3064    6.5611 H         1 UNK         0.3028 
     86 H86       -50.9738  -28.4587    3.9445 H         1 UNK         0.0864 
     87 H87       -51.8683  -26.7161    6.2977 H         1 UNK         0.0720 
     88 H88       -51.7924  -26.2211    4.6327 H         1 UNK         0.0720 
     89 H89       -55.4900  -27.7790    6.5035 H         1 UNK         0.0814 
     90 H90       -54.3276  -26.5747    6.9936 H         1 UNK         0.0814 
     91 H91       -52.5587  -27.1584    8.5354 H         1 UNK         0.1469 
     92 H92       -52.2108  -31.1911    9.9580 H         1 UNK         0.1381 
     93 H93       -54.9569  -30.2502    6.8028 H         1 UNK         0.1206 
     94 H94       -54.5628  -32.5513    7.3725 H         1 UNK         0.0813 
     95 H95       -53.1558  -32.9609    8.3172 H         1 UNK         0.0813 
     96 H96       -56.5527  -31.3530    8.4393 H         1 UNK         0.0638 
     97 H97       -57.4491  -32.6385    9.1784 H         1 UNK         0.0638 
     98 H98       -57.9450  -30.4133   10.1666 H         1 UNK         0.0568 
     99 H99       -57.1261  -32.2168   13.6970 H         1 UNK         0.3450 
    100 H100      -55.9277  -31.2179   12.9132 H         1 UNK         0.3450 
    101 H101      -55.1401  -30.0858   10.2983 H         1 UNK         0.2987 
    102 H102      -54.0881  -28.4701   11.4610 H         1 UNK         0.0766 
    103 H103      -54.1737  -26.1030   10.7207 H         1 UNK         0.0798 
    104 H104      -55.9267  -26.0615   10.9073 H         1 UNK         0.0798 
    105 H105      -55.1994  -27.0495    9.6522 H         1 UNK         0.0798 
    106 H106      -55.8916  -27.4471   13.4852 H         1 UNK         0.3198 
    107 H107      -55.1278  -26.2390   15.2797 H         1 UNK         0.0843 
    108 H108      -53.0356  -28.3690   16.0393 H         1 UNK         0.0831 
    109 H109      -54.7493  -28.6824   15.7937 H         1 UNK         0.0831 
    110 H110      -54.2297  -27.6735   17.1329 H         1 UNK         0.0831 
    111 H111      -52.3180  -25.6290   14.9876 H         1 UNK         0.3133 
    112 H112      -52.1311  -23.1329   16.0796 H         1 UNK         0.0566 
    113 H113      -51.3549  -22.4507   18.3587 H         1 UNK         0.0814 
    114 H114      -53.1068  -22.5193   18.2580 H         1 UNK         0.0814 
    115 H115      -52.2301  -23.8079   19.0681 H         1 UNK         0.0814 
    116 H116      -50.2878  -24.2982   15.9041 H         1 UNK         0.3091 
    117 H117      -48.3942  -26.4184   17.9150 H         1 UNK         0.0702 
    118 H118      -49.7558  -28.1324   16.7066 H         1 UNK         0.0785 
    119 H119      -49.7171  -27.1555   15.2450 H         1 UNK         0.0785 
    120 H120      -48.2287  -27.8513   15.8841 H         1 UNK         0.0785 
    121 H121      -48.0081  -25.3656   15.2746 H         1 UNK         0.2998 
    122 H122      -46.7552  -22.1570   16.3206 H         1 UNK         0.0697 
    123 H123      -45.5015  -24.5734   14.9134 H         1 UNK         0.0825 
    124 H124      -44.8436  -23.7441   16.3151 H         1 UNK         0.0825 
    125 H125      -44.9551  -22.9037   14.7766 H         1 UNK         0.0825 
    126 H126      -47.2557  -23.1685   13.7167 H         1 UNK         0.3029 
    127 H127      -50.6684  -22.0517   13.4690 H         1 UNK         0.0897 
    128 H128      -49.6989  -20.9310   11.4829 H         1 UNK         0.0792 
    129 H129      -48.0686  -21.1511   12.1125 H         1 UNK         0.0792 
    130 H130      -49.2008  -20.0921   12.9442 H         1 UNK         0.0792 
    131 H131      -49.0188  -23.3898   11.5860 H         1 UNK         0.3086 
    132 H132      -49.7972  -26.7474   12.6108 H         1 UNK         0.0583 
    133 H133      -51.5900  -26.0875   11.0466 H         1 UNK         0.1020 
    134 H134      -50.4969  -25.0797   10.1421 H         1 UNK         0.1020 
    135 H135      -50.5221  -29.5799   10.5536 H         1 UNK         0.0694 
    136 H136      -51.6073  -28.4223   11.2725 H         1 UNK         0.0694 
    137 H137      -48.0006  -25.6713   10.6686 H         1 UNK         0.2989 
    138 H138      -45.1071  -25.5890   12.6999 H         1 UNK         0.1055 
    139 H139      -44.2915  -27.2021   10.9823 H         1 UNK         0.0806 
    140 H140      -45.9525  -27.6175   10.5576 H         1 UNK         0.0806 
    141 H141      -45.3251  -28.0063   12.1512 H         1 UNK         0.0806 
    142 H142      -45.5469  -25.2165    9.8893 H         1 UNK         0.3061 
    143 H143      -46.2411  -21.7055   10.0733 H         1 UNK         0.0734 
    144 H144      -44.4037  -21.7770    8.4217 H         1 UNK         0.0832 
    145 H145      -43.7663  -22.0957   10.0259 H         1 UNK         0.0832 
    146 H146      -43.9885  -23.4237    8.8947 H         1 UNK         0.0832 
    147 H147      -46.2663  -23.5438    7.8702 H         1 UNK         0.3156 
    148 H148      -49.8489  -23.8064    7.8000 H         1 UNK         0.0589 
    149 H149      -47.5187  -22.9656    5.9965 H         1 UNK         0.0808 
    150 H150      -49.1769  -23.2749    5.4954 H         1 UNK         0.0808 
    151 H151      -48.8159  -21.9222    6.5549 H         1 UNK         0.0808 
    152 H152      -49.3097  -25.8830    7.3834 H         1 UNK         0.3098 
    153 H153      -46.8000  -27.5038    5.6661 H         1 UNK         0.0720 
    154 H154      -46.7648  -29.2261    7.4492 H         1 UNK         0.0791 
    155 H155      -47.3989  -28.0714    8.6192 H         1 UNK         0.0791 
    156 H156      -45.8003  -27.8400    7.9259 H         1 UNK         0.0791 
    157 H157      -49.1997  -28.4426    6.9408 H         1 UNK         0.3028 
@<TRIPOS>BOND
     1    1    2 1    
     2    1   82 1    
     3    1   83 1    
     4    1   84 1    
     5    2    3 2    
     6    2    4 am   BACKBONE|DICT|INTERRES
     7    4    5 1    
     8    4   85 1    
     9    5    6 1    
    10    5   80 1    
    11    5   86 1    
    12    6    7 1    
    13    6   87 1    
    14    6   88 1    
    15    7    8 1    
    16    8    9 1    
    17    8   89 1    
    18    8   90 1    
    19    9   10 ar   
    20    9   14 ar   
    21   10   11 ar   
    22   10   91 1    
    23   11   12 ar   
    24   11   58 1    
    25   12   13 ar   
    26   12   92 1    
    27   13   14 ar   
    28   13   15 1    
    29   14   93 1    
    30   15   16 1    
    31   15   94 1    
    32   15   95 1    
    33   16   17 1    
    34   17   18 1    
    35   17   96 1    
    36   17   97 1    
    37   18   19 1    
    38   18   22 1    
    39   18   98 1    
    40   19   20 am   BACKBONE|DICT|INTERRES
    41   19   21 2    
    42   20   99 1    
    43   20  100 1    
    44   22   23 am   BACKBONE|DICT|INTERRES
    45   22  101 1    
    46   23   24 2    
    47   23   25 1    
    48   25   26 1    
    49   25   27 1    
    50   25  102 1    
    51   26  103 1    
    52   26  104 1    
    53   26  105 1    
    54   27   28 am   BACKBONE|DICT|INTERRES
    55   27  106 1    
    56   28   29 2    
    57   28   30 1    
    58   30   31 1    
    59   30   32 1    
    60   30  107 1    
    61   31  108 1    
    62   31  109 1    
    63   31  110 1    
    64   32   33 am   BACKBONE|DICT|INTERRES
    65   32  111 1    
    66   33   34 2    
    67   33   35 1    
    68   35   36 1    
    69   35   37 1    
    70   35  112 1    
    71   36  113 1    
    72   36  114 1    
    73   36  115 1    
    74   37   38 am   BACKBONE|DICT|INTERRES
    75   37  116 1    
    76   38   39 2    
    77   38   40 1    
    78   40   41 1    
    79   40   42 1    
    80   40  117 1    
    81   41  118 1    
    82   41  119 1    
    83   41  120 1    
    84   42   43 am   BACKBONE|DICT|INTERRES
    85   42  121 1    
    86   43   44 2    
    87   43   45 1    
    88   45   46 1    
    89   45   47 1    
    90   45  122 1    
    91   46  123 1    
    92   46  124 1    
    93   46  125 1    
    94   47   48 am   BACKBONE|DICT|INTERRES
    95   47  126 1    
    96   48   49 2    
    97   48   50 1    
    98   50   51 1    
    99   50   52 1    
   100   50  127 1    
   101   51  128 1    
   102   51  129 1    
   103   51  130 1    
   104   52   53 am   BACKBONE|DICT|INTERRES
   105   52  131 1    
   106   53   54 2    
   107   53   55 1    
   108   55   56 1    
   109   55   59 1    
   110   55  132 1    
   111   56   57 1    
   112   56  133 1    
   113   56  134 1    
   114   57   58 1    
   115   58  135 1    
   116   58  136 1    
   117   59   60 am   BACKBONE|DICT|INTERRES
   118   59  137 1    
   119   60   61 2    
   120   60   62 1    
   121   62   63 1    
   122   62   64 1    
   123   62  138 1    
   124   63  139 1    
   125   63  140 1    
   126   63  141 1    
   127   64   65 am   BACKBONE|DICT|INTERRES
   128   64  142 1    
   129   65   66 2    
   130   65   67 1    
   131   67   68 1    
   132   67   69 1    
   133   67  143 1    
   134   68  144 1    
   135   68  145 1    
   136   68  146 1    
   137   69   70 am   BACKBONE|DICT|INTERRES
   138   69  147 1    
   139   70   71 2    
   140   70   72 1    
   141   72   73 1    
   142   72   74 1    
   143   72  148 1    
   144   73  149 1    
   145   73  150 1    
   146   73  151 1    
   147   74   75 am   BACKBONE|DICT|INTERRES
   148   74  152 1    
   149   75   76 2    
   150   75   77 1    
   151   77   78 1    
   152   77   79 1    
   153   77  153 1    
   154   78  154 1    
   155   78  155 1    
   156   78  156 1    
   157   79   80 am   BACKBONE|DICT|INTERRES
   158   79  157 1    
   159   80   81 2    
@<TRIPOS>SUBSTRUCTURE
     1 UNK         1 GROUP             0       ****    0 ROOT    
