@<TRIPOS>MOLECULE
3R207
157   159    1
SMALL
USER_CHARGES


@<TRIPOS>ATOM
      1 CA        -51.1616  -31.2891    5.6297 C.3       0 UNK        -0.1975 
      2 C         -50.3367  -30.4310    4.6816 C.2       0 UNK         0.4852 
      3 O         -50.6779  -30.3164    3.5037 O.2       0 UNK        -0.5216 
      4 N         -49.2594  -29.8251    5.1873 N.am      1 UNK        -0.4461 
      5 CA        -48.3447  -28.9481    4.4587 C.3       1 UNK         0.0864 
      6 C6        -48.9365  -27.5328    4.1920 C.3       14 UNK        -0.0898 
      7 S7        -49.5053  -26.6569    5.6939 S.3       14 UNK        -0.2598 
      8 C8        -51.3090  -26.8024    5.5239 C.3       14 UNK         0.0286 
      9 C9        -52.0201  -26.6916    6.8646 C.ar      14 UNK        -0.0844 
     10 C10       -52.5645  -25.4734    7.2849 C.ar      14 UNK        -0.0881 
     11 C11       -53.3100  -25.3974    8.4673 C.ar      14 UNK        -0.0643 
     12 C12       -53.4880  -26.5497    9.2392 C.ar      14 UNK        -0.0930 
     13 C13       -52.9296  -27.7670    8.8403 C.ar      14 UNK        -0.0827 
     14 C14       -52.1918  -27.8313    7.6558 C.ar      14 UNK        -0.1249 
     15 C15       -53.1581  -29.0171    9.6734 C.3       14 UNK         0.0141 
     16 S16       -54.6814  -29.8690    9.1642 S.3       14 UNK        -0.2313 
     17 C17       -54.9023  -31.0459   10.5413 C.3       14 UNK        -0.0915 
     18 CA        -55.9850  -30.5773   11.5511 C.3       13 UNK         0.0968 
     19 C         -56.3228  -31.6940   12.5816 C.2       13 UNK         0.5732 
     20 N         -56.1677  -31.4751   13.8822 N.am      13 UNK        -0.7310 
     21 O         -56.7475  -32.7795   12.1928 O.2       13 UNK        -0.5035 
     22 N         -55.6244  -29.2865   12.1564 N.am      13 UNK        -0.4233 
     23 C         -56.4795  -28.3672   12.6116 C.2       13 UNK         0.4989 
     24 O         -57.7043  -28.5008   12.6038 O.2       13 UNK        -0.4996 
     25 CA        -55.8373  -27.0850   13.1777 C.3       12 UNK         0.0216 
     26 CB        -56.8644  -25.9741   13.4632 C.3       12 UNK        -0.1964 
     27 N         -55.0539  -27.3377   14.3906 N.am      12 UNK        -0.4276 
     28 C         -53.8588  -27.9389   14.4246 C.2       12 UNK         0.5020 
     29 O         -53.2700  -28.3371   13.4173 O.2       12 UNK        -0.5489 
     30 CA        -53.2145  -28.0867   15.8050 C.3       11 UNK         0.0294 
     31 CB        -52.1758  -29.2227   15.8431 C.3       11 UNK        -0.2019 
     32 N         -52.5489  -26.8315   16.1335 N.am      11 UNK        -0.4493 
     33 C         -52.7994  -26.0667   17.2035 C.2       11 UNK         0.4932 
     34 O         -53.6970  -26.3018   18.0143 O.2       11 UNK        -0.5029 
     35 CA        -51.8800  -24.8408   17.4019 C.3       10 UNK         0.0280 
     36 CB        -51.8966  -24.2987   18.8470 C.3       10 UNK        -0.1976 
     37 N         -50.5054  -25.0859   16.9433 N.am      10 UNK        -0.4242 
     38 C         -49.6567  -26.0281   17.3868 C.2       10 UNK         0.5072 
     39 O         -49.8687  -26.7327   18.3747 O.2       10 UNK        -0.5224 
     40 CA        -48.3658  -26.2597   16.5819 C.3       9 UNK         0.0343 
     41 CB        -48.3544  -27.6758   15.9773 C.3       9 UNK        -0.2003 
     42 N         -48.1871  -25.2908   15.4945 N.am      9 UNK        -0.4272 
     43 C         -47.1078  -24.5115   15.3427 C.2       9 UNK         0.4988 
     44 O         -46.1546  -24.4974   16.1227 O.2       9 UNK        -0.5108 
     45 CA        -47.0622  -23.5977   14.1066 C.3       8 UNK         0.0248 
     46 CB        -46.3907  -24.3175   12.9243 C.3       8 UNK        -0.2001 
     47 N         -48.3685  -23.0850   13.6868 N.am      8 UNK        -0.4140 
     48 C         -49.0828  -22.1745   14.3648 C.2       8 UNK         0.5028 
     49 O         -48.7681  -21.7446   15.4745 O.2       8 UNK        -0.5428 
     50 CA        -50.3569  -21.6459   13.6926 C.3       7 UNK         0.0264 
     51 CB        -50.0044  -20.6033   12.6185 C.3       7 UNK        -0.1988 
     52 N         -51.1146  -22.7312   13.0739 N.am      7 UNK        -0.4454 
     53 C         -52.2763  -23.2152   13.5332 C.2       7 UNK         0.5027 
     54 O         -52.8628  -22.7700   14.5200 O.2       7 UNK        -0.5083 
     55 CA        -52.8944  -24.4110   12.7734 C.3       6 UNK         0.0844 
     56 C56       -53.9027  -23.9172   11.7036 C.3       14 UNK        -0.0967 
     57 S57       -53.1154  -23.2194   10.2041 S.3       14 UNK        -0.2604 
     58 C58       -53.9855  -24.0897    8.8624 C.3       14 UNK         0.0134 
     59 N         -51.8983  -25.3270   12.2093 N.am      6 UNK        -0.4116 
     60 C         -50.9136  -25.9360   12.8836 C.2       5 UNK         0.5034 
     61 O         -50.7792  -25.8829   14.1059 O.2       5 UNK        -0.5045 
     62 CA        -49.8395  -26.6580   12.0557 C.3       5 UNK         0.0224 
     63 CB        -50.1274  -28.1634   11.9886 C.3       5 UNK        -0.1978 
     64 N         -49.6509  -26.1322   10.6981 N.am      5 UNK        -0.4737 
     65 C         -49.3643  -24.8641   10.3758 C.2       4 UNK         0.5027 
     66 O         -49.2847  -23.9484   11.1972 O.2       4 UNK        -0.5211 
     67 CA        -49.0920  -24.5854    8.8921 C.3       4 UNK         0.0297 
     68 CB        -49.4836  -23.1522    8.4923 C.3       4 UNK        -0.1993 
     69 N         -47.6799  -24.8028    8.5784 N.am      4 UNK        -0.4486 
     70 C         -47.0890  -26.0011    8.5018 C.2       3 UNK         0.4961 
     71 O         -47.6664  -27.0732    8.6944 O.2       3 UNK        -0.5105 
     72 CA        -45.5999  -26.0082    8.1502 C.3       3 UNK         0.0299 
     73 CB        -44.7340  -26.2828    9.3916 C.3       3 UNK        -0.1972 
     74 N         -45.3950  -27.0483    7.1499 N.am      3 UNK        -0.4305 
     75 C         -44.5162  -27.0102    6.1449 C.2       2 UNK         0.5006 
     76 O         -43.6739  -26.1218    6.0088 O.2       2 UNK        -0.5106 
     77 CA        -44.6015  -28.1264    5.0861 C.3       2 UNK         0.0296 
     78 CB        -43.9149  -29.4193    5.5714 C.3       2 UNK        -0.2002 
     79 N         -45.9635  -28.3729    4.5817 N.am      2 UNK        -0.4032 
     80 C         -47.0118  -28.9045    5.2287 C.2       1 UNK         0.5000 
     81 O         -46.9613  -29.3302    6.3873 O.2       1 UNK        -0.5238 
     82 H82       -52.1813  -30.9091    5.6881 H         1 UNK         0.0889 
     83 H83       -50.7458  -31.2977    6.6373 H         1 UNK         0.0889 
     84 H84       -51.2000  -32.3168    5.2695 H         1 UNK         0.0889 
     85 H85       -48.9780  -29.9695    6.1504 H         1 UNK         0.3028 
     86 H86       -48.1299  -29.4193    3.4970 H         1 UNK         0.0864 
     87 H87       -48.2045  -26.8984    3.6899 H         1 UNK         0.0720 
     88 H88       -49.7660  -27.6131    3.4880 H         1 UNK         0.0720 
     89 H89       -51.6657  -26.0350    4.8353 H         1 UNK         0.0814 
     90 H90       -51.5629  -27.7593    5.0667 H         1 UNK         0.0814 
     91 H91       -52.4400  -24.5922    6.6702 H         1 UNK         0.1469 
     92 H92       -54.0858  -26.5138   10.1373 H         1 UNK         0.1381 
     93 H93       -51.7769  -28.7760    7.3324 H         1 UNK         0.1206 
     94 H94       -52.3108  -29.6983    9.5815 H         1 UNK         0.0813 
     95 H95       -53.2280  -28.7465   10.7267 H         1 UNK         0.0813 
     96 H96       -53.9482  -31.2113   11.0455 H         1 UNK         0.0638 
     97 H97       -55.1810  -32.0039   10.0987 H         1 UNK         0.0638 
     98 H98       -56.9064  -30.4263   10.9855 H         1 UNK         0.0568 
     99 H99       -56.3973  -32.2072   14.5355 H         1 UNK         0.3450 
    100 H100      -55.8334  -30.5861   14.2137 H         1 UNK         0.3450 
    101 H101      -54.6341  -29.1133   12.3028 H         1 UNK         0.2987 
    102 H102      -55.1586  -26.7158   12.4082 H         1 UNK         0.0766 
    103 H103      -56.3754  -25.0530   13.7812 H         1 UNK         0.0798 
    104 H104      -57.5706  -26.2658   14.2417 H         1 UNK         0.0798 
    105 H105      -57.4437  -25.7386   12.5693 H         1 UNK         0.0798 
    106 H106      -55.4701  -27.0465   15.2644 H         1 UNK         0.3198 
    107 H107      -54.0004  -28.3196   16.5267 H         1 UNK         0.0843 
    108 H108      -52.6313  -30.1774   15.5773 H         1 UNK         0.0831 
    109 H109      -51.7468  -29.3310   16.8394 H         1 UNK         0.0831 
    110 H110      -51.3559  -29.0469   15.1465 H         1 UNK         0.0831 
    111 H111      -51.8374  -26.5239   15.4722 H         1 UNK         0.3133 
    112 H112      -52.2791  -24.0582   16.7573 H         1 UNK         0.0566 
    113 H113      -51.2425  -23.4334   18.9534 H         1 UNK         0.0814 
    114 H114      -52.9002  -23.9818   19.1333 H         1 UNK         0.0814 
    115 H115      -51.5775  -25.0521   19.5676 H         1 UNK         0.0814 
    116 H116      -50.2315  -24.5711   16.1197 H         1 UNK         0.3091 
    117 H117      -47.5451  -26.1903   17.2985 H         1 UNK         0.0702 
    118 H118      -47.4170  -27.8765   15.4583 H         1 UNK         0.0785 
    119 H119      -49.1679  -27.8163   15.2653 H         1 UNK         0.0785 
    120 H120      -48.4639  -28.4363   16.7516 H         1 UNK         0.0785 
    121 H121      -48.9249  -25.2587   14.8010 H         1 UNK         0.2998 
    122 H122      -46.4421  -22.7367   14.3658 H         1 UNK         0.0697 
    123 H123      -45.3918  -24.6631   13.1941 H         1 UNK         0.0825 
    124 H124      -46.2820  -23.6542   12.0659 H         1 UNK         0.0825 
    125 H125      -46.9590  -25.1889   12.6005 H         1 UNK         0.0825 
    126 H126      -48.6921  -23.3732   12.7640 H         1 UNK         0.3029 
    127 H127      -50.9547  -21.1498   14.4605 H         1 UNK         0.0897 
    128 H128      -50.9040  -20.1741   12.1770 H         1 UNK         0.0792 
    129 H129      -49.4283  -19.7811   13.0453 H         1 UNK         0.0792 
    130 H130      -49.4115  -21.0355   11.8110 H         1 UNK         0.0792 
    131 H131      -50.6902  -23.1711   12.2616 H         1 UNK         0.3086 
    132 H132      -53.4536  -24.9837   13.5153 H         1 UNK         0.0583 
    133 H133      -54.5737  -23.1642   12.1228 H         1 UNK         0.1020 
    134 H134      -54.5586  -24.7364   11.4180 H         1 UNK         0.1020 
    135 H135      -55.0234  -24.2740    9.1432 H         1 UNK         0.0694 
    136 H136      -54.0290  -23.4211    8.0013 H         1 UNK         0.0694 
    137 H137      -51.8924  -25.4025   11.2023 H         1 UNK         0.2989 
    138 H138      -48.8949  -26.5250   12.5844 H         1 UNK         0.1055 
    139 H139      -50.2460  -28.5855   12.9872 H         1 UNK         0.0806 
    140 H140      -49.3149  -28.7037   11.5024 H         1 UNK         0.0806 
    141 H141      -51.0447  -28.3700   11.4413 H         1 UNK         0.0806 
    142 H142      -49.6054  -26.8158    9.9520 H         1 UNK         0.3061 
    143 H143      -49.6978  -25.2744    8.3008 H         1 UNK         0.0734 
    144 H144      -50.5341  -22.9619    8.7126 H         1 UNK         0.0832 
    145 H145      -48.8984  -22.4035    9.0278 H         1 UNK         0.0832 
    146 H146      -49.3454  -22.9882    7.4236 H         1 UNK         0.0832 
    147 H147      -47.1202  -23.9744    8.4367 H         1 UNK         0.3156 
    148 H148      -45.3302  -25.0369    7.7295 H         1 UNK         0.0589 
    149 H149      -44.9714  -27.2479    9.8412 H         1 UNK         0.0808 
    150 H150      -43.6728  -26.2812    9.1425 H         1 UNK         0.0808 
    151 H151      -44.8911  -25.5188   10.1541 H         1 UNK         0.0808 
    152 H152      -46.0763  -27.8067    7.1693 H         1 UNK         0.3098 
    153 H153      -44.0370  -27.7729    4.2215 H         1 UNK         0.0720 
    154 H154      -43.9298  -30.1896    4.8005 H         1 UNK         0.0791 
    155 H155      -44.3886  -29.8284    6.4641 H         1 UNK         0.0791 
    156 H156      -42.8700  -29.2309    5.8212 H         1 UNK         0.0791 
    157 H157      -46.1228  -28.0391    3.6408 H         1 UNK         0.3028 
@<TRIPOS>BOND
     1    1    2 1    
     2    1   82 1    
     3    1   83 1    
     4    1   84 1    
     5    2    3 2    
     6    2    4 am   BACKBONE|DICT|INTERRES
     7    4    5 1    
     8    4   85 1    
     9    5    6 1    
    10    5   80 1    
    11    5   86 1    
    12    6    7 1    
    13    6   87 1    
    14    6   88 1    
    15    7    8 1    
    16    8    9 1    
    17    8   89 1    
    18    8   90 1    
    19    9   10 ar   
    20    9   14 ar   
    21   10   11 ar   
    22   10   91 1    
    23   11   12 ar   
    24   11   58 1    
    25   12   13 ar   
    26   12   92 1    
    27   13   14 ar   
    28   13   15 1    
    29   14   93 1    
    30   15   16 1    
    31   15   94 1    
    32   15   95 1    
    33   16   17 1    
    34   17   18 1    
    35   17   96 1    
    36   17   97 1    
    37   18   19 1    
    38   18   22 1    
    39   18   98 1    
    40   19   20 am   BACKBONE|DICT|INTERRES
    41   19   21 2    
    42   20   99 1    
    43   20  100 1    
    44   22   23 am   BACKBONE|DICT|INTERRES
    45   22  101 1    
    46   23   24 2    
    47   23   25 1    
    48   25   26 1    
    49   25   27 1    
    50   25  102 1    
    51   26  103 1    
    52   26  104 1    
    53   26  105 1    
    54   27   28 am   BACKBONE|DICT|INTERRES
    55   27  106 1    
    56   28   29 2    
    57   28   30 1    
    58   30   31 1    
    59   30   32 1    
    60   30  107 1    
    61   31  108 1    
    62   31  109 1    
    63   31  110 1    
    64   32   33 am   BACKBONE|DICT|INTERRES
    65   32  111 1    
    66   33   34 2    
    67   33   35 1    
    68   35   36 1    
    69   35   37 1    
    70   35  112 1    
    71   36  113 1    
    72   36  114 1    
    73   36  115 1    
    74   37   38 am   BACKBONE|DICT|INTERRES
    75   37  116 1    
    76   38   39 2    
    77   38   40 1    
    78   40   41 1    
    79   40   42 1    
    80   40  117 1    
    81   41  118 1    
    82   41  119 1    
    83   41  120 1    
    84   42   43 am   BACKBONE|DICT|INTERRES
    85   42  121 1    
    86   43   44 2    
    87   43   45 1    
    88   45   46 1    
    89   45   47 1    
    90   45  122 1    
    91   46  123 1    
    92   46  124 1    
    93   46  125 1    
    94   47   48 am   BACKBONE|DICT|INTERRES
    95   47  126 1    
    96   48   49 2    
    97   48   50 1    
    98   50   51 1    
    99   50   52 1    
   100   50  127 1    
   101   51  128 1    
   102   51  129 1    
   103   51  130 1    
   104   52   53 am   BACKBONE|DICT|INTERRES
   105   52  131 1    
   106   53   54 2    
   107   53   55 1    
   108   55   56 1    
   109   55   59 1    
   110   55  132 1    
   111   56   57 1    
   112   56  133 1    
   113   56  134 1    
   114   57   58 1    
   115   58  135 1    
   116   58  136 1    
   117   59   60 am   BACKBONE|DICT|INTERRES
   118   59  137 1    
   119   60   61 2    
   120   60   62 1    
   121   62   63 1    
   122   62   64 1    
   123   62  138 1    
   124   63  139 1    
   125   63  140 1    
   126   63  141 1    
   127   64   65 am   BACKBONE|DICT|INTERRES
   128   64  142 1    
   129   65   66 2    
   130   65   67 1    
   131   67   68 1    
   132   67   69 1    
   133   67  143 1    
   134   68  144 1    
   135   68  145 1    
   136   68  146 1    
   137   69   70 am   BACKBONE|DICT|INTERRES
   138   69  147 1    
   139   70   71 2    
   140   70   72 1    
   141   72   73 1    
   142   72   74 1    
   143   72  148 1    
   144   73  149 1    
   145   73  150 1    
   146   73  151 1    
   147   74   75 am   BACKBONE|DICT|INTERRES
   148   74  152 1    
   149   75   76 2    
   150   75   77 1    
   151   77   78 1    
   152   77   79 1    
   153   77  153 1    
   154   78  154 1    
   155   78  155 1    
   156   78  156 1    
   157   79   80 am   BACKBONE|DICT|INTERRES
   158   79  157 1    
   159   80   81 2    
@<TRIPOS>SUBSTRUCTURE
     1 UNK         1 GROUP             0       ****    0 ROOT    
