@<TRIPOS>MOLECULE
3R207
157   159    1
SMALL
USER_CHARGES


@<TRIPOS>ATOM
      1 CA        -56.4198  -28.2003    6.8731 C.3       0 UNK        -0.1975 
      2 C         -54.9085  -28.3602    6.9392 C.2       0 UNK         0.4852 
      3 O         -54.4198  -29.4706    7.1458 O.2       0 UNK        -0.5216 
      4 N         -54.1703  -27.2605    6.7557 N.am      1 UNK        -0.4461 
      5 CA        -52.7110  -27.1819    6.7834 C.3       1 UNK         0.0864 
      6 C6        -52.0300  -27.9320    5.6019 C.3       14 UNK        -0.0898 
      7 S7        -50.3203  -28.4469    5.9909 S.3       14 UNK        -0.2598 
      8 C8        -50.5664  -30.1450    6.6026 C.3       14 UNK         0.0286 
      9 C9        -50.2845  -30.2527    8.0934 C.ar      14 UNK        -0.0844 
     10 C10       -48.9850  -30.5075    8.5395 C.ar      14 UNK        -0.0881 
     11 C11       -48.7180  -30.6672    9.9021 C.ar      14 UNK        -0.0643 
     12 C12       -49.7639  -30.5602   10.8243 C.ar      14 UNK        -0.0930 
     13 C13       -51.0689  -30.2939   10.3932 C.ar      14 UNK        -0.0827 
     14 C14       -51.3199  -30.1358    9.0252 C.ar      14 UNK        -0.1249 
     15 C15       -52.1940  -30.1450   11.4109 C.3       14 UNK         0.0141 
     16 S16       -53.6195  -31.2224   11.0616 S.3       14 UNK        -0.2313 
     17 C17       -54.7458  -30.7951   12.4349 C.3       14 UNK        -0.0915 
     18 CA        -55.7994  -29.7252   12.0364 C.3       13 UNK         0.0968 
     19 C         -56.9762  -29.6447   13.0552 C.2       13 UNK         0.5732 
     20 N         -57.3568  -28.4784   13.5647 N.am      13 UNK        -0.7310 
     21 O         -57.5772  -30.6670   13.3776 O.2       13 UNK        -0.5035 
     22 N         -55.1630  -28.4284   11.7666 N.am      13 UNK        -0.4233 
     23 C         -55.5954  -27.5353   10.8712 C.2       13 UNK         0.4989 
     24 O         -56.5650  -27.7161   10.1336 O.2       13 UNK        -0.4996 
     25 CA        -54.8067  -26.2135   10.8081 C.3       12 UNK         0.0216 
     26 CB        -55.5211  -25.1273    9.9776 C.3       12 UNK        -0.1964 
     27 N         -54.4396  -25.6905   12.1319 N.am      12 UNK        -0.4276 
     28 C         -55.2580  -25.3880   13.1506 C.2       12 UNK         0.5020 
     29 O         -56.4746  -25.5871   13.1393 O.2       12 UNK        -0.5489 
     30 CA        -54.5814  -24.7783   14.3940 C.3       11 UNK         0.0294 
     31 CB        -55.5777  -24.4364   15.5227 C.3       11 UNK        -0.2019 
     32 N         -53.4814  -25.6095   14.8961 N.am      11 UNK        -0.4493 
     33 C         -53.5523  -26.8632   15.3677 C.2       11 UNK         0.4932 
     34 O         -54.6012  -27.4991   15.4676 O.2       11 UNK        -0.5029 
     35 CA        -52.2365  -27.5522   15.7789 C.3       10 UNK         0.0280 
     36 CB        -51.9781  -28.7756   14.8877 C.3       10 UNK        -0.1976 
     37 N         -51.0587  -26.6808   15.7310 N.am      10 UNK        -0.4242 
     38 C         -50.7273  -25.7819   16.6678 C.2       10 UNK         0.5072 
     39 O         -51.3830  -25.5846   17.6914 O.2       10 UNK        -0.5224 
     40 CA        -49.4579  -24.9489   16.4118 C.3       9 UNK         0.0343 
     41 CB        -48.1986  -25.7426   16.7954 C.3       9 UNK        -0.2003 
     42 N         -49.3428  -24.4844   15.0263 N.am      9 UNK        -0.4272 
     43 C         -50.1878  -23.6216   14.4410 C.2       9 UNK         0.4988 
     44 O         -51.1422  -23.0973   15.0155 O.2       9 UNK        -0.5108 
     45 CA        -49.9604  -23.3299   12.9481 C.3       8 UNK         0.0248 
     46 CB        -48.8074  -22.3364   12.7502 C.3       8 UNK        -0.2001 
     47 N         -49.7043  -24.5479   12.1787 N.am      8 UNK        -0.4140 
     48 C         -50.5865  -25.5456   12.0403 C.2       8 UNK         0.5028 
     49 O         -51.7385  -25.5073   12.4681 O.2       8 UNK        -0.5428 
     50 CA        -50.1001  -26.8218   11.3474 C.3       7 UNK         0.0264 
     51 CB        -50.2784  -26.7174    9.8307 C.3       7 UNK        -0.1988 
     52 N         -48.7191  -27.1632   11.6980 N.am      7 UNK        -0.4454 
     53 C         -48.3752  -27.6096   12.9141 C.2       7 UNK         0.5027 
     54 O         -49.1709  -27.7100   13.8477 O.2       7 UNK        -0.5083 
     55 CA        -46.9068  -28.0048   13.1506 C.3       6 UNK         0.0844 
     56 C56       -46.5901  -29.4211   12.6094 C.3       14 UNK        -0.0967 
     57 S57       -46.3577  -29.5023   10.7958 S.3       14 UNK        -0.2604 
     58 C58       -47.3043  -30.9954   10.3604 C.3       14 UNK         0.0134 
     59 N         -45.9247  -27.0082   12.7192 N.am      6 UNK        -0.4116 
     60 C         -45.8572  -25.7337   13.1261 C.2       5 UNK         0.5034 
     61 O         -46.7181  -25.1813   13.8126 O.2       5 UNK        -0.5045 
     62 CA        -44.6001  -24.9495   12.7130 C.3       5 UNK         0.0224 
     63 CB        -43.3621  -25.8396   12.4757 C.3       5 UNK        -0.1978 
     64 N         -44.8827  -24.1935   11.4988 N.am      5 UNK        -0.4737 
     65 C         -45.2792  -22.9169   11.4635 C.2       4 UNK         0.5027 
     66 O         -45.3135  -22.1817   12.4504 O.2       4 UNK        -0.5211 
     67 CA        -45.7020  -22.3506   10.0942 C.3       4 UNK         0.0297 
     68 CB        -44.6425  -21.3657    9.5723 C.3       4 UNK        -0.1993 
     69 N         -45.9692  -23.3554    9.0560 N.am      4 UNK        -0.4486 
     70 C         -46.9476  -24.2694    9.0891 C.2       3 UNK         0.4961 
     71 O         -47.6867  -24.4579   10.0574 O.2       3 UNK        -0.5105 
     72 CA        -47.1154  -25.1368    7.8299 C.3       3 UNK         0.0299 
     73 CB        -46.7703  -26.6060    8.1291 C.3       3 UNK        -0.1972 
     74 N         -48.4828  -25.0543    7.3140 N.am      3 UNK        -0.4305 
     75 C         -49.0483  -23.9451    6.8118 C.2       2 UNK         0.5006 
     76 O         -48.4308  -22.8937    6.6348 O.2       2 UNK        -0.5106 
     77 CA        -50.5426  -24.0020    6.4423 C.3       2 UNK         0.0296 
     78 CB        -50.8170  -23.3833    5.0576 C.3       2 UNK        -0.2002 
     79 N         -51.0865  -25.3621    6.4830 N.am      2 UNK        -0.4032 
     80 C         -52.3212  -25.6916    6.8817 C.2       1 UNK         0.5000 
     81 O         -53.1459  -24.8750    7.3021 O.2       1 UNK        -0.5238 
     82 H82       -56.7227  -27.1615    7.0032 H         1 UNK         0.0889 
     83 H83       -56.8954  -28.7883    7.6576 H         1 UNK         0.0889 
     84 H84       -56.7930  -28.5514    5.9116 H         1 UNK         0.0889 
     85 H85       -54.6143  -26.3563    6.6468 H         1 UNK         0.3028 
     86 H86       -52.3984  -27.6472    7.7193 H         1 UNK         0.0864 
     87 H87       -52.5972  -28.8193    5.3214 H         1 UNK         0.0720 
     88 H88       -52.0215  -27.3184    4.6988 H         1 UNK         0.0720 
     89 H89       -49.8997  -30.8117    6.0537 H         1 UNK         0.0814 
     90 H90       -51.5764  -30.4983    6.3908 H         1 UNK         0.0814 
     91 H91       -48.1811  -30.5972    7.8216 H         1 UNK         0.1469 
     92 H92       -49.5591  -30.6827   11.8787 H         1 UNK         0.1381 
     93 H93       -52.3269  -29.9356    8.6858 H         1 UNK         0.1206 
     94 H94       -52.5224  -29.1068   11.4153 H         1 UNK         0.0813 
     95 H95       -51.8298  -30.3716   12.4134 H         1 UNK         0.0813 
     96 H96       -54.1730  -30.4724   13.3044 H         1 UNK         0.0638 
     97 H97       -55.2359  -31.7250   12.7287 H         1 UNK         0.0638 
     98 H98       -56.2636  -30.0711   11.1108 H         1 UNK         0.0568 
     99 H99       -58.1221  -28.4602   14.2186 H         1 UNK         0.3450 
    100 H100      -56.8977  -27.6111   13.3108 H         1 UNK         0.3450 
    101 H101      -54.4108  -28.1662   12.3841 H         1 UNK         0.2987 
    102 H102      -53.8690  -26.4467   10.3014 H         1 UNK         0.0766 
    103 H103      -54.9176  -24.2222    9.9083 H         1 UNK         0.0798 
    104 H104      -56.4859  -24.8581   10.4088 H         1 UNK         0.0798 
    105 H105      -55.7018  -25.4691    8.9579 H         1 UNK         0.0798 
    106 H106      -53.4364  -25.5441   12.2789 H         1 UNK         0.3198 
    107 H107      -54.1270  -23.8420   14.0653 H         1 UNK         0.0843 
    108 H108      -56.1038  -25.3204   15.8841 H         1 UNK         0.0831 
    109 H109      -56.3333  -23.7320   15.1729 H         1 UNK         0.0831 
    110 H110      -55.0722  -23.9756   16.3713 H         1 UNK         0.0831 
    111 H111      -52.5586  -25.2050   14.8003 H         1 UNK         0.3133 
    112 H112      -52.3635  -27.9040   16.8048 H         1 UNK         0.0566 
    113 H113      -51.8693  -28.4823   13.8440 H         1 UNK         0.0814 
    114 H114      -51.0705  -29.3011   15.1853 H         1 UNK         0.0814 
    115 H115      -52.7990  -29.4898   14.9527 H         1 UNK         0.0814 
    116 H116      -50.4206  -26.8303   14.9519 H         1 UNK         0.3091 
    117 H117      -49.5086  -24.0659   17.0523 H         1 UNK         0.0702 
    118 H118      -47.3012  -25.1314   16.6980 H         1 UNK         0.0785 
    119 H119      -48.0697  -26.6250   16.1676 H         1 UNK         0.0785 
    120 H120      -48.2502  -26.0818   17.8309 H         1 UNK         0.0785 
    121 H121      -48.5572  -24.8405   14.4883 H         1 UNK         0.2998 
    122 H122      -50.8718  -22.8758   12.5533 H         1 UNK         0.0697 
    123 H123      -47.8671  -22.7345   13.1320 H         1 UNK         0.0825 
    124 H124      -49.0026  -21.4007   13.2753 H         1 UNK         0.0825 
    125 H125      -48.6675  -22.0964   11.6963 H         1 UNK         0.0825 
    126 H126      -48.8006  -24.6328   11.7225 H         1 UNK         0.3029 
    127 H127      -50.7313  -27.6387   11.6971 H         1 UNK         0.0897 
    128 H128      -51.3383  -26.6676    9.5846 H         1 UNK         0.0792 
    129 H129      -49.8588  -27.5786    9.3113 H         1 UNK         0.0792 
    130 H130      -49.8171  -25.8140    9.4412 H         1 UNK         0.0792 
    131 H131      -48.0117  -27.0793   10.9830 H         1 UNK         0.3086 
    132 H132      -46.7958  -28.0611   14.2358 H         1 UNK         0.0583 
    133 H133      -45.6684  -29.7814   13.0692 H         1 UNK         0.1020 
    134 H134      -47.3587  -30.1278   12.9277 H         1 UNK         0.1020 
    135 H135      -46.7722  -31.5141    9.5614 H         1 UNK         0.0694 
    136 H136      -47.3271  -31.6939   11.1980 H         1 UNK         0.0694 
    137 H137      -45.1847  -27.3600   12.1303 H         1 UNK         0.2989 
    138 H138      -44.3668  -24.2705   13.5366 H         1 UNK         0.1055 
    139 H139      -43.1623  -26.4755   13.3397 H         1 UNK         0.0806 
    140 H140      -42.4725  -25.2289   12.3200 H         1 UNK         0.0806 
    141 H141      -43.4691  -26.4845   11.6028 H         1 UNK         0.0806 
    142 H142      -44.9130  -24.7119   10.6334 H         1 UNK         0.3061 
    143 H143      -46.6292  -21.7970   10.2554 H         1 UNK         0.0734 
    144 H144      -44.4453  -20.5796   10.3027 H         1 UNK         0.0832 
    145 H145      -44.9711  -20.8752    8.6558 H         1 UNK         0.0832 
    146 H146      -43.6942  -21.8644    9.3680 H         1 UNK         0.0832 
    147 H147      -45.4120  -23.2846    8.2162 H         1 UNK         0.3156 
    148 H148      -46.4387  -24.7781    7.0515 H         1 UNK         0.0589 
    149 H149      -47.4285  -27.0365    8.8836 H         1 UNK         0.0808 
    150 H150      -46.8470  -27.2222    7.2329 H         1 UNK         0.0808 
    151 H151      -45.7485  -26.7015    8.4986 H         1 UNK         0.0808 
    152 H152      -49.0601  -25.8658    7.4645 H         1 UNK         0.3098 
    153 H153      -51.0499  -23.3935    7.1940 H         1 UNK         0.0720 
    154 H154      -51.8841  -23.3664    4.8357 H         1 UNK         0.0791 
    155 H155      -50.3180  -23.9403    4.2639 H         1 UNK         0.0791 
    156 H156      -50.4641  -22.3524    5.0069 H         1 UNK         0.0791 
    157 H157      -50.5022  -26.0997    6.1071 H         1 UNK         0.3028 
@<TRIPOS>BOND
     1    1    2 1    
     2    1   82 1    
     3    1   83 1    
     4    1   84 1    
     5    2    3 2    
     6    2    4 am   BACKBONE|DICT|INTERRES
     7    4    5 1    
     8    4   85 1    
     9    5    6 1    
    10    5   80 1    
    11    5   86 1    
    12    6    7 1    
    13    6   87 1    
    14    6   88 1    
    15    7    8 1    
    16    8    9 1    
    17    8   89 1    
    18    8   90 1    
    19    9   10 ar   
    20    9   14 ar   
    21   10   11 ar   
    22   10   91 1    
    23   11   12 ar   
    24   11   58 1    
    25   12   13 ar   
    26   12   92 1    
    27   13   14 ar   
    28   13   15 1    
    29   14   93 1    
    30   15   16 1    
    31   15   94 1    
    32   15   95 1    
    33   16   17 1    
    34   17   18 1    
    35   17   96 1    
    36   17   97 1    
    37   18   19 1    
    38   18   22 1    
    39   18   98 1    
    40   19   20 am   BACKBONE|DICT|INTERRES
    41   19   21 2    
    42   20   99 1    
    43   20  100 1    
    44   22   23 am   BACKBONE|DICT|INTERRES
    45   22  101 1    
    46   23   24 2    
    47   23   25 1    
    48   25   26 1    
    49   25   27 1    
    50   25  102 1    
    51   26  103 1    
    52   26  104 1    
    53   26  105 1    
    54   27   28 am   BACKBONE|DICT|INTERRES
    55   27  106 1    
    56   28   29 2    
    57   28   30 1    
    58   30   31 1    
    59   30   32 1    
    60   30  107 1    
    61   31  108 1    
    62   31  109 1    
    63   31  110 1    
    64   32   33 am   BACKBONE|DICT|INTERRES
    65   32  111 1    
    66   33   34 2    
    67   33   35 1    
    68   35   36 1    
    69   35   37 1    
    70   35  112 1    
    71   36  113 1    
    72   36  114 1    
    73   36  115 1    
    74   37   38 am   BACKBONE|DICT|INTERRES
    75   37  116 1    
    76   38   39 2    
    77   38   40 1    
    78   40   41 1    
    79   40   42 1    
    80   40  117 1    
    81   41  118 1    
    82   41  119 1    
    83   41  120 1    
    84   42   43 am   BACKBONE|DICT|INTERRES
    85   42  121 1    
    86   43   44 2    
    87   43   45 1    
    88   45   46 1    
    89   45   47 1    
    90   45  122 1    
    91   46  123 1    
    92   46  124 1    
    93   46  125 1    
    94   47   48 am   BACKBONE|DICT|INTERRES
    95   47  126 1    
    96   48   49 2    
    97   48   50 1    
    98   50   51 1    
    99   50   52 1    
   100   50  127 1    
   101   51  128 1    
   102   51  129 1    
   103   51  130 1    
   104   52   53 am   BACKBONE|DICT|INTERRES
   105   52  131 1    
   106   53   54 2    
   107   53   55 1    
   108   55   56 1    
   109   55   59 1    
   110   55  132 1    
   111   56   57 1    
   112   56  133 1    
   113   56  134 1    
   114   57   58 1    
   115   58  135 1    
   116   58  136 1    
   117   59   60 am   BACKBONE|DICT|INTERRES
   118   59  137 1    
   119   60   61 2    
   120   60   62 1    
   121   62   63 1    
   122   62   64 1    
   123   62  138 1    
   124   63  139 1    
   125   63  140 1    
   126   63  141 1    
   127   64   65 am   BACKBONE|DICT|INTERRES
   128   64  142 1    
   129   65   66 2    
   130   65   67 1    
   131   67   68 1    
   132   67   69 1    
   133   67  143 1    
   134   68  144 1    
   135   68  145 1    
   136   68  146 1    
   137   69   70 am   BACKBONE|DICT|INTERRES
   138   69  147 1    
   139   70   71 2    
   140   70   72 1    
   141   72   73 1    
   142   72   74 1    
   143   72  148 1    
   144   73  149 1    
   145   73  150 1    
   146   73  151 1    
   147   74   75 am   BACKBONE|DICT|INTERRES
   148   74  152 1    
   149   75   76 2    
   150   75   77 1    
   151   77   78 1    
   152   77   79 1    
   153   77  153 1    
   154   78  154 1    
   155   78  155 1    
   156   78  156 1    
   157   79   80 am   BACKBONE|DICT|INTERRES
   158   79  157 1    
   159   80   81 2    
@<TRIPOS>SUBSTRUCTURE
     1 UNK         1 GROUP             0       ****    0 ROOT    
