@<TRIPOS>MOLECULE
3R207
157   159    1
SMALL
USER_CHARGES


@<TRIPOS>ATOM
      1 CA        -50.1526  -28.8029    9.7505 C.3       0 UNK        -0.1975 
      2 C         -49.7714  -29.1909    8.3299 C.2       0 UNK         0.4852 
      3 O         -48.8502  -29.9832    8.1353 O.2       0 UNK        -0.5216 
      4 N         -50.4742  -28.6349    7.3350 N.am      1 UNK        -0.4461 
      5 CA        -50.2672  -28.9008    5.9046 C.3       1 UNK         0.0864 
      6 C6        -51.5537  -28.6043    5.0926 C.3       14 UNK        -0.0898 
      7 S7        -52.1179  -26.8654    5.1800 S.3       14 UNK        -0.2598 
      8 C8        -53.7293  -27.0157    6.0151 C.3       14 UNK         0.0286 
      9 C9        -53.5855  -27.0748    7.5289 C.ar      14 UNK        -0.0844 
     10 C10       -53.3958  -25.8961    8.2553 C.ar      14 UNK        -0.0881 
     11 C11       -53.2893  -25.9234    9.6510 C.ar      14 UNK        -0.0643 
     12 C12       -53.3988  -27.1474   10.3185 C.ar      14 UNK        -0.0930 
     13 C13       -53.5973  -28.3324    9.6038 C.ar      14 UNK        -0.0827 
     14 C14       -53.6815  -28.2920    8.2085 C.ar      14 UNK        -0.1249 
     15 C15       -53.7271  -29.6578   10.3363 C.3       14 UNK         0.0141 
     16 S16       -55.4722  -30.0850   10.6051 S.3       14 UNK        -0.2313 
     17 C17       -55.3059  -31.7896   11.2317 C.3       14 UNK        -0.0915 
     18 CA        -56.1434  -32.0513   12.5169 C.3       13 UNK         0.0968 
     19 C         -56.1567  -33.5569   12.9263 C.2       13 UNK         0.5732 
     20 N         -56.2401  -33.8941   14.2082 N.am      13 UNK        -0.7310 
     21 O         -56.1264  -34.4395   12.0713 O.2       13 UNK        -0.5035 
     22 N         -55.8403  -31.1207   13.6198 N.am      13 UNK        -0.4233 
     23 C         -54.6791  -30.9902   14.2709 C.2       13 UNK         0.4989 
     24 O         -53.6500  -31.5998   13.9748 O.2       13 UNK        -0.4996 
     25 CA        -54.6844  -30.0195   15.4704 C.3       12 UNK         0.0216 
     26 CB        -53.3912  -30.1092   16.3032 C.3       12 UNK        -0.1964 
     27 N         -54.9074  -28.6223   15.0815 N.am      12 UNK        -0.4276 
     28 C         -56.0770  -28.1028   14.6726 C.2       12 UNK         0.5020 
     29 O         -57.1043  -28.7760   14.5636 O.2       12 UNK        -0.5489 
     30 CA        -56.1347  -26.5981   14.3441 C.3       11 UNK         0.0294 
     31 CB        -57.4193  -25.9366   14.8817 C.3       11 UNK        -0.2019 
     32 N         -54.9632  -25.8775   14.8421 N.am      11 UNK        -0.4493 
     33 C         -54.4300  -24.7761   14.3056 C.2       11 UNK         0.4932 
     34 O         -54.8940  -24.1960   13.3247 O.2       11 UNK        -0.5029 
     35 CA        -53.1513  -24.2364   14.9722 C.3       10 UNK         0.0280 
     36 CB        -53.3930  -23.8159   16.4361 C.3       10 UNK        -0.1976 
     37 N         -52.0037  -25.1449   14.8497 N.am      10 UNK        -0.4242 
     38 C         -51.8589  -26.3812   15.3481 C.2       10 UNK         0.5072 
     39 O         -52.7038  -26.9437   16.0465 O.2       10 UNK        -0.5224 
     40 CA        -50.5859  -27.1526   14.9703 C.3       9 UNK         0.0343 
     41 CB        -50.8135  -27.9262   13.6595 C.3       9 UNK        -0.2003 
     42 N         -49.3872  -26.3187   14.8451 N.am      9 UNK        -0.4272 
     43 C         -48.7573  -25.7132   15.8627 C.2       9 UNK         0.4988 
     44 O         -49.1557  -25.7378   17.0277 O.2       9 UNK        -0.5108 
     45 CA        -47.4459  -24.9778   15.5329 C.3       8 UNK         0.0248 
     46 CB        -46.2953  -25.9748   15.3148 C.3       8 UNK        -0.2001 
     47 N         -47.5784  -24.1163   14.3579 N.am      8 UNK        -0.4140 
     48 C         -48.1113  -22.8864   14.3808 C.2       8 UNK         0.5028 
     49 O         -48.4568  -22.3083   15.4122 O.2       8 UNK        -0.5428 
     50 CA        -48.3195  -22.1823   13.0247 C.3       7 UNK         0.0264 
     51 CB        -47.0904  -21.3367   12.6559 C.3       7 UNK        -0.1988 
     52 N         -48.6372  -23.0959   11.9216 N.am      7 UNK        -0.4454 
     53 C         -49.7004  -23.9147   11.9036 C.2       7 UNK         0.5027 
     54 O         -50.5333  -23.9664   12.8074 O.2       7 UNK        -0.5083 
     55 CA        -49.8237  -24.8961   10.7220 C.3       6 UNK         0.0844 
     56 C56       -50.4516  -24.2517    9.4593 C.3       14 UNK        -0.0967 
     57 S57       -52.0448  -23.3816    9.6816 S.3       14 UNK        -0.2604 
     58 C58       -53.1110  -24.6430   10.4630 C.3       14 UNK         0.0134 
     59 N         -48.5374  -25.5201   10.4075 N.am      6 UNK        -0.4116 
     60 C         -47.7978  -26.2737   11.2317 C.2       5 UNK         0.5034 
     61 O         -48.1453  -26.5881   12.3668 O.2       5 UNK        -0.5045 
     62 CA        -46.4124  -26.7020   10.7258 C.3       5 UNK         0.0224 
     63 CB        -46.5025  -27.8996    9.7687 C.3       5 UNK        -0.1978 
     64 N         -45.7170  -25.5974   10.0667 N.am      5 UNK        -0.4737 
     65 C         -45.2076  -24.5401   10.7124 C.2       4 UNK         0.5027 
     66 O         -45.2298  -24.4107   11.9362 O.2       4 UNK        -0.5211 
     67 CA        -44.5901  -23.4334    9.8413 C.3       4 UNK         0.0297 
     68 CB        -43.1028  -23.7201    9.5819 C.3       4 UNK        -0.1993 
     69 N         -45.2862  -23.2556    8.5624 N.am      4 UNK        -0.4486 
     70 C         -46.5318  -22.7755    8.4459 C.2       3 UNK         0.4961 
     71 O         -47.2305  -22.4405    9.4034 O.2       3 UNK        -0.5105 
     72 CA        -47.1098  -22.7020    7.0208 C.3       3 UNK         0.0299 
     73 CB        -46.4809  -21.5399    6.2347 C.3       3 UNK        -0.1972 
     74 N         -46.9861  -23.9497    6.2525 N.am      3 UNK        -0.4305 
     75 C         -47.4832  -25.1300    6.6443 C.2       2 UNK         0.5006 
     76 O         -47.9985  -25.3199    7.7471 O.2       2 UNK        -0.5106 
     77 CA        -47.3987  -26.3066    5.6679 C.3       2 UNK         0.0296 
     78 CB        -46.0356  -27.0150    5.7670 C.3       2 UNK        -0.2002 
     79 N         -48.4790  -27.2141    6.0398 N.am      2 UNK        -0.4032 
     80 C         -49.0304  -28.1852    5.3065 C.2       1 UNK         0.5000 
     81 O         -48.6172  -28.5159    4.1929 O.2       1 UNK        -0.5238 
     82 H82       -49.2724  -28.7478   10.3873 H         1 UNK         0.0889 
     83 H83       -50.8206  -29.5504   10.1749 H         1 UNK         0.0889 
     84 H84       -50.6495  -27.8343    9.7799 H         1 UNK         0.0889 
     85 H85       -51.2388  -28.0064    7.5477 H         1 UNK         0.3028 
     86 H86       -50.0663  -29.9693    5.7988 H         1 UNK         0.0864 
     87 H87       -51.4051  -28.8591    4.0415 H         1 UNK         0.0720 
     88 H88       -52.3532  -29.2627    5.4349 H         1 UNK         0.0720 
     89 H89       -54.2695  -27.8856    5.6384 H         1 UNK         0.0814 
     90 H90       -54.3386  -26.1508    5.7484 H         1 UNK         0.0814 
     91 H91       -53.3381  -24.9538    7.7281 H         1 UNK         0.1469 
     92 H92       -53.3429  -27.1777   11.3981 H         1 UNK         0.1381 
     93 H93       -53.8421  -29.2074    7.6550 H         1 UNK         0.1206 
     94 H94       -53.2451  -30.4456    9.7551 H         1 UNK         0.0813 
     95 H95       -53.2127  -29.6201   11.2982 H         1 UNK         0.0813 
     96 H96       -55.6260  -32.4519   10.4256 H         1 UNK         0.0638 
     97 H97       -54.2551  -32.0224   11.4099 H         1 UNK         0.0638 
     98 H98       -57.1820  -31.8430   12.2589 H         1 UNK         0.0568 
     99 H99       -56.2601  -34.8696   14.4603 H         1 UNK         0.3450 
    100 H100      -56.2878  -33.1861   14.9225 H         1 UNK         0.3450 
    101 H101      -56.6009  -30.5127   13.9118 H         1 UNK         0.2987 
    102 H102      -55.5075  -30.3237   16.1206 H         1 UNK         0.0766 
    103 H103      -53.4431  -29.4730   17.1871 H         1 UNK         0.0798 
    104 H104      -52.5156  -29.8087   15.7271 H         1 UNK         0.0798 
    105 H105      -53.2186  -31.1288   16.6502 H         1 UNK         0.0798 
    106 H106      -54.0997  -28.0153   15.1692 H         1 UNK         0.3198 
    107 H107      -56.1443  -26.5331   13.2538 H         1 UNK         0.0843 
    108 H108      -57.4695  -25.9874   15.9698 H         1 UNK         0.0831 
    109 H109      -58.3110  -26.4268   14.4889 H         1 UNK         0.0831 
    110 H110      -57.4787  -24.8876   14.5916 H         1 UNK         0.0831 
    111 H111      -54.4673  -26.2862   15.6296 H         1 UNK         0.3133 
    112 H112      -52.8686  -23.3374   14.4219 H         1 UNK         0.0566 
    113 H113      -52.5085  -23.3373   16.8567 H         1 UNK         0.0814 
    114 H114      -54.2121  -23.0988   16.5036 H         1 UNK         0.0814 
    115 H115      -53.6483  -24.6601   17.0766 H         1 UNK         0.0814 
    116 H116      -51.2779  -24.8029   14.2198 H         1 UNK         0.3091 
    117 H117      -50.4002  -27.8797   15.7635 H         1 UNK         0.0702 
    118 H118      -50.9769  -27.2529   12.8179 H         1 UNK         0.0785 
    119 H119      -51.6855  -28.5778   13.7297 H         1 UNK         0.0785 
    120 H120      -49.9579  -28.5575   13.4190 H         1 UNK         0.0785 
    121 H121      -48.9559  -26.2910   13.9223 H         1 UNK         0.2998 
    122 H122      -47.1857  -24.3583   16.3941 H         1 UNK         0.0697 
    123 H123      -46.4778  -26.6326   14.4647 H         1 UNK         0.0825 
    124 H124      -46.1574  -26.6078   16.1923 H         1 UNK         0.0825 
    125 H125      -45.3526  -25.4569   15.1368 H         1 UNK         0.0825 
    126 H126      -47.3068  -24.5096   13.4665 H         1 UNK         0.3029 
    127 H127      -49.1720  -21.5095   13.1399 H         1 UNK         0.0897 
    128 H128      -46.2044  -21.9545   12.5099 H         1 UNK         0.0792 
    129 H129      -46.8606  -20.6181   13.4437 H         1 UNK         0.0792 
    130 H130      -47.2583  -20.7703   11.7396 H         1 UNK         0.0792 
    131 H131      -48.0257  -23.0659   11.1097 H         1 UNK         0.3086 
    132 H132      -50.4833  -25.7020   11.0456 H         1 UNK         0.0583 
    133 H133      -49.7533  -23.5338    9.0258 H         1 UNK         0.1020 
    134 H134      -50.5924  -25.0158    8.6933 H         1 UNK         0.1020 
    135 H135      -52.7198  -24.8696   11.4554 H         1 UNK         0.0694 
    136 H136      -54.0962  -24.2035   10.6226 H         1 UNK         0.0694 
    137 H137      -48.1840  -25.3451    9.4672 H         1 UNK         0.2989 
    138 H138      -45.8235  -27.0065   11.5944 H         1 UNK         0.1055 
    139 H139      -46.9243  -28.7696   10.2726 H         1 UNK         0.0806 
    140 H140      -45.5173  -28.1915    9.4048 H         1 UNK         0.0806 
    141 H141      -47.1282  -27.6853    8.9023 H         1 UNK         0.0806 
    142 H142      -45.6890  -25.6042    9.0579 H         1 UNK         0.3061 
    143 H143      -44.6646  -22.4969   10.3987 H         1 UNK         0.0734 
    144 H144      -42.6302  -22.9041    9.0349 H         1 UNK         0.0832 
    145 H145      -42.5596  -23.8347   10.5211 H         1 UNK         0.0832 
    146 H146      -42.9596  -24.6375    9.0095 H         1 UNK         0.0832 
    147 H147      -44.7877  -23.5151    7.7233 H         1 UNK         0.3156 
    148 H148      -48.1774  -22.4945    7.1204 H         1 UNK         0.0589 
    149 H149      -45.4209  -21.7058    6.0388 H         1 UNK         0.0808 
    150 H150      -46.9799  -21.3935    5.2765 H         1 UNK         0.0808 
    151 H151      -46.5673  -20.6031    6.7873 H         1 UNK         0.0808 
    152 H152      -46.5645  -23.8794    5.3370 H         1 UNK         0.3098 
    153 H153      -47.5659  -25.9444    4.6516 H         1 UNK         0.0720 
    154 H154      -45.9762  -27.8587    5.0793 H         1 UNK         0.0791 
    155 H155      -45.8482  -27.3931    6.7724 H         1 UNK         0.0791 
    156 H156      -45.2204  -26.3360    5.5143 H         1 UNK         0.0791 
    157 H157      -48.8954  -26.9859    6.9341 H         1 UNK         0.3028 
@<TRIPOS>BOND
     1    1    2 1    
     2    1   82 1    
     3    1   83 1    
     4    1   84 1    
     5    2    3 2    
     6    2    4 am   BACKBONE|DICT|INTERRES
     7    4    5 1    
     8    4   85 1    
     9    5    6 1    
    10    5   80 1    
    11    5   86 1    
    12    6    7 1    
    13    6   87 1    
    14    6   88 1    
    15    7    8 1    
    16    8    9 1    
    17    8   89 1    
    18    8   90 1    
    19    9   10 ar   
    20    9   14 ar   
    21   10   11 ar   
    22   10   91 1    
    23   11   12 ar   
    24   11   58 1    
    25   12   13 ar   
    26   12   92 1    
    27   13   14 ar   
    28   13   15 1    
    29   14   93 1    
    30   15   16 1    
    31   15   94 1    
    32   15   95 1    
    33   16   17 1    
    34   17   18 1    
    35   17   96 1    
    36   17   97 1    
    37   18   19 1    
    38   18   22 1    
    39   18   98 1    
    40   19   20 am   BACKBONE|DICT|INTERRES
    41   19   21 2    
    42   20   99 1    
    43   20  100 1    
    44   22   23 am   BACKBONE|DICT|INTERRES
    45   22  101 1    
    46   23   24 2    
    47   23   25 1    
    48   25   26 1    
    49   25   27 1    
    50   25  102 1    
    51   26  103 1    
    52   26  104 1    
    53   26  105 1    
    54   27   28 am   BACKBONE|DICT|INTERRES
    55   27  106 1    
    56   28   29 2    
    57   28   30 1    
    58   30   31 1    
    59   30   32 1    
    60   30  107 1    
    61   31  108 1    
    62   31  109 1    
    63   31  110 1    
    64   32   33 am   BACKBONE|DICT|INTERRES
    65   32  111 1    
    66   33   34 2    
    67   33   35 1    
    68   35   36 1    
    69   35   37 1    
    70   35  112 1    
    71   36  113 1    
    72   36  114 1    
    73   36  115 1    
    74   37   38 am   BACKBONE|DICT|INTERRES
    75   37  116 1    
    76   38   39 2    
    77   38   40 1    
    78   40   41 1    
    79   40   42 1    
    80   40  117 1    
    81   41  118 1    
    82   41  119 1    
    83   41  120 1    
    84   42   43 am   BACKBONE|DICT|INTERRES
    85   42  121 1    
    86   43   44 2    
    87   43   45 1    
    88   45   46 1    
    89   45   47 1    
    90   45  122 1    
    91   46  123 1    
    92   46  124 1    
    93   46  125 1    
    94   47   48 am   BACKBONE|DICT|INTERRES
    95   47  126 1    
    96   48   49 2    
    97   48   50 1    
    98   50   51 1    
    99   50   52 1    
   100   50  127 1    
   101   51  128 1    
   102   51  129 1    
   103   51  130 1    
   104   52   53 am   BACKBONE|DICT|INTERRES
   105   52  131 1    
   106   53   54 2    
   107   53   55 1    
   108   55   56 1    
   109   55   59 1    
   110   55  132 1    
   111   56   57 1    
   112   56  133 1    
   113   56  134 1    
   114   57   58 1    
   115   58  135 1    
   116   58  136 1    
   117   59   60 am   BACKBONE|DICT|INTERRES
   118   59  137 1    
   119   60   61 2    
   120   60   62 1    
   121   62   63 1    
   122   62   64 1    
   123   62  138 1    
   124   63  139 1    
   125   63  140 1    
   126   63  141 1    
   127   64   65 am   BACKBONE|DICT|INTERRES
   128   64  142 1    
   129   65   66 2    
   130   65   67 1    
   131   67   68 1    
   132   67   69 1    
   133   67  143 1    
   134   68  144 1    
   135   68  145 1    
   136   68  146 1    
   137   69   70 am   BACKBONE|DICT|INTERRES
   138   69  147 1    
   139   70   71 2    
   140   70   72 1    
   141   72   73 1    
   142   72   74 1    
   143   72  148 1    
   144   73  149 1    
   145   73  150 1    
   146   73  151 1    
   147   74   75 am   BACKBONE|DICT|INTERRES
   148   74  152 1    
   149   75   76 2    
   150   75   77 1    
   151   77   78 1    
   152   77   79 1    
   153   77  153 1    
   154   78  154 1    
   155   78  155 1    
   156   78  156 1    
   157   79   80 am   BACKBONE|DICT|INTERRES
   158   79  157 1    
   159   80   81 2    
@<TRIPOS>SUBSTRUCTURE
     1 UNK         1 GROUP             0       ****    0 ROOT    
