@<TRIPOS>MOLECULE
3R207
157   159    1
SMALL
USER_CHARGES


@<TRIPOS>ATOM
      1 CA        -49.5724  -29.5286    8.2690 C.3       0 UNK        -0.1975 
      2 C         -49.4169  -29.2084    6.7932 C.2       0 UNK         0.4852 
      3 O         -48.3621  -29.4933    6.2219 O.2       0 UNK        -0.5216 
      4 N         -50.4456  -28.6254    6.1581 N.am      1 UNK        -0.4461 
      5 CA        -50.4005  -28.2356    4.7463 C.3       1 UNK         0.0864 
      6 C6        -51.8027  -27.9932    4.1240 C.3       14 UNK        -0.0898 
      7 S7        -52.7578  -26.5731    4.7644 S.3       14 UNK        -0.2598 
      8 C8        -54.1257  -27.3743    5.6648 C.3       14 UNK         0.0286 
      9 C9        -53.7007  -27.8622    7.0422 C.ar      14 UNK        -0.0844 
     10 C10       -53.1841  -26.9568    7.9726 C.ar      14 UNK        -0.0881 
     11 C11       -52.7866  -27.3871    9.2393 C.ar      14 UNK        -0.0643 
     12 C12       -52.9337  -28.7327    9.5857 C.ar      14 UNK        -0.0930 
     13 C13       -53.4574  -29.6494    8.6683 C.ar      14 UNK        -0.0827 
     14 C14       -53.8365  -29.2077    7.3960 C.ar      14 UNK        -0.1249 
     15 C15       -53.5778  -31.1251    9.0309 C.3       14 UNK         0.0141 
     16 S16       -54.5469  -31.4224   10.5468 S.3       14 UNK        -0.2313 
     17 C17       -56.1966  -30.7844   10.0847 C.3       14 UNK        -0.0915 
     18 CA        -56.8652  -29.9318   11.1968 C.3       13 UNK         0.0968 
     19 C         -57.3905  -30.8088   12.3719 C.2       13 UNK         0.5732 
     20 N         -56.8844  -30.6631   13.5910 N.am      13 UNK        -0.7310 
     21 O         -58.2870  -31.6258   12.1744 O.2       13 UNK        -0.5035 
     22 N         -56.0169  -28.7995   11.6006 N.am      13 UNK        -0.4233 
     23 C         -56.4563  -27.6777   12.1803 C.2       13 UNK         0.4989 
     24 O         -57.6438  -27.4439   12.4129 O.2       13 UNK        -0.4996 
     25 CA        -55.3768  -26.6596   12.5900 C.3       12 UNK         0.0216 
     26 CB        -55.9456  -25.2444   12.8014 C.3       12 UNK        -0.1964 
     27 N         -54.6777  -27.0757   13.8080 N.am      12 UNK        -0.4276 
     28 C         -53.7609  -28.0488   13.8845 C.2       12 UNK         0.5020 
     29 O         -53.3948  -28.7074   12.9113 O.2       12 UNK        -0.5489 
     30 CA        -53.1491  -28.3126   15.2699 C.3       11 UNK         0.0294 
     31 CB        -51.9306  -29.2530   15.2038 C.3       11 UNK        -0.2019 
     32 N         -52.7288  -27.0498   15.8720 N.am      11 UNK        -0.4493 
     33 C         -53.3113  -26.4351   16.9076 C.2       11 UNK         0.4932 
     34 O         -54.3137  -26.8671   17.4786 O.2       11 UNK        -0.5029 
     35 CA        -52.6773  -25.1029   17.3578 C.3       10 UNK         0.0280 
     36 CB        -53.1163  -24.6693   18.7726 C.3       10 UNK        -0.1976 
     37 N         -51.2145  -25.0894   17.2294 N.am      10 UNK        -0.4242 
     38 C         -50.3263  -25.8731   17.8635 C.2       10 UNK         0.5072 
     39 O         -50.6348  -26.7056   18.7176 O.2       10 UNK        -0.5224 
     40 CA        -48.8378  -25.7321   17.4782 C.3       9 UNK         0.0343 
     41 CB        -48.3402  -27.0134   16.7875 C.3       9 UNK        -0.2003 
     42 N         -48.5530  -24.5904   16.6055 N.am      9 UNK        -0.4272 
     43 C         -48.5377  -23.3061   16.9886 C.2       9 UNK         0.4988 
     44 O         -48.6748  -22.9351   18.1543 O.2       9 UNK        -0.5108 
     45 CA        -48.3969  -22.2578   15.8702 C.3       8 UNK         0.0248 
     46 CB        -46.9172  -21.9849   15.5546 C.3       8 UNK        -0.2001 
     47 N         -49.1045  -22.6481   14.6455 N.am      8 UNK        -0.4140 
     48 C         -50.4375  -22.7601   14.5415 C.2       8 UNK         0.5028 
     49 O         -51.2201  -22.4953   15.4533 O.2       8 UNK        -0.5428 
     50 CA        -50.9882  -23.3191   13.2218 C.3       7 UNK         0.0264 
     51 CB        -51.1113  -22.2139   12.1620 C.3       7 UNK        -0.1988 
     52 N         -50.1662  -24.4133   12.7045 N.am      7 UNK        -0.4454 
     53 C         -50.1150  -25.6394   13.2501 C.2       7 UNK         0.5027 
     54 O         -50.7610  -25.9628   14.2459 O.2       7 UNK        -0.5083 
     55 CA        -49.1626  -26.6712   12.6007 C.3       6 UNK         0.0844 
     56 C56       -49.8699  -27.4606   11.4704 C.3       14 UNK        -0.0967 
     57 S57       -50.3531  -26.4141   10.0457 S.3       14 UNK        -0.2604 
     58 C58       -52.1617  -26.3973   10.2065 C.3       14 UNK         0.0134 
     59 N         -47.9039  -26.0818   12.1370 N.am      6 UNK        -0.4116 
     60 C         -47.0670  -25.3348   12.8731 C.2       5 UNK         0.5034 
     61 O         -47.1869  -25.1746   14.0875 O.2       5 UNK        -0.5045 
     62 CA        -45.9473  -24.5789   12.1288 C.3       5 UNK         0.0224 
     63 CB        -44.6004  -25.2918   12.3238 C.3       5 UNK        -0.1978 
     64 N         -46.1943  -24.4011   10.6923 N.am      5 UNK        -0.4737 
     65 C         -47.2668  -23.8087   10.1467 C.2       4 UNK         0.5027 
     66 O         -48.1241  -23.2248   10.8107 O.2       4 UNK        -0.5211 
     67 CA        -47.4568  -23.9344    8.6222 C.3       4 UNK         0.0297 
     68 CB        -47.2176  -22.5776    7.9414 C.3       4 UNK        -0.1993 
     69 N         -46.6410  -24.9555    7.9480 N.am      4 UNK        -0.4486 
     70 C         -46.5936  -26.2681    8.2182 C.2       3 UNK         0.4961 
     71 O         -47.1722  -26.8002    9.1663 O.2       3 UNK        -0.5105 
     72 CA        -45.7462  -27.1166    7.2539 C.3       3 UNK         0.0299 
     73 CB        -45.4667  -28.5305    7.7958 C.3       3 UNK        -0.1972 
     74 N         -46.3983  -27.2132    5.9453 N.am      3 UNK        -0.4305 
     75 C         -46.3430  -26.2655    4.9955 C.2       2 UNK         0.5006 
     76 O         -45.6990  -25.2223    5.1228 O.2       2 UNK        -0.5106 
     77 CA        -47.1315  -26.4955    3.6903 C.3       2 UNK         0.0296 
     78 CB        -46.2053  -27.0514    2.5964 C.3       2 UNK        -0.2002 
     79 N         -48.2836  -27.3868    3.8462 N.am      2 UNK        -0.4032 
     80 C         -49.3885  -27.0841    4.5427 C.2       1 UNK         0.5000 
     81 O         -49.5820  -25.9837    5.0642 O.2       1 UNK        -0.5238 
     82 H82       -49.5910  -30.6067    8.4236 H         1 UNK         0.0889 
     83 H83       -50.4871  -29.1076    8.6742 H         1 UNK         0.0889 
     84 H84       -48.7361  -29.1133    8.8302 H         1 UNK         0.0889 
     85 H85       -51.2826  -28.3654    6.6642 H         1 UNK         0.3028 
     86 H86       -50.0059  -29.1031    4.2116 H         1 UNK         0.0864 
     87 H87       -51.6972  -27.8492    3.0473 H         1 UNK         0.0720 
     88 H88       -52.4013  -28.8990    4.2311 H         1 UNK         0.0720 
     89 H89       -54.5385  -28.1858    5.0634 H         1 UNK         0.0814 
     90 H90       -54.9312  -26.6493    5.7889 H         1 UNK         0.0814 
     91 H91       -53.0684  -25.9167    7.6989 H         1 UNK         0.1469 
     92 H92       -52.6117  -29.0755   10.5585 H         1 UNK         0.1381 
     93 H93       -54.2359  -29.9125    6.6794 H         1 UNK         0.1206 
     94 H94       -54.0269  -31.6919    8.2139 H         1 UNK         0.0813 
     95 H95       -52.5758  -31.5323    9.1715 H         1 UNK         0.0813 
     96 H96       -56.1085  -30.1789    9.1821 H         1 UNK         0.0638 
     97 H97       -56.8297  -31.6283    9.8049 H         1 UNK         0.0638 
     98 H98       -57.7638  -29.5022   10.7502 H         1 UNK         0.0568 
     99 H99       -57.2374  -31.2321   14.3439 H         1 UNK         0.3450 
    100 H100      -56.1405  -30.0060   13.7545 H         1 UNK         0.3450 
    101 H101      -55.0159  -28.9509   11.5389 H         1 UNK         0.2987 
    102 H102      -54.6601  -26.6033   11.7704 H         1 UNK         0.0766 
    103 H103      -55.1517  -24.5250   13.0040 H         1 UNK         0.0798 
    104 H104      -56.6511  -25.2090   13.6326 H         1 UNK         0.0798 
    105 H105      -56.4733  -24.8998   11.9110 H         1 UNK         0.0798 
    106 H106      -54.9395  -26.6056   14.6628 H         1 UNK         0.3198 
    107 H107      -53.9176  -28.7941   15.8781 H         1 UNK         0.0843 
    108 H108      -51.1407  -28.8435   14.5726 H         1 UNK         0.0831 
    109 H109      -52.2072  -30.2250   14.7934 H         1 UNK         0.0831 
    110 H110      -51.5104  -29.4262   16.1946 H         1 UNK         0.0831 
    111 H111      -51.9476  -26.5871   15.4044 H         1 UNK         0.3133 
    112 H112      -53.0423  -24.3491   16.6589 H         1 UNK         0.0566 
    113 H113      -52.6610  -23.7200   19.0547 H         1 UNK         0.0814 
    114 H114      -54.1976  -24.5361   18.8226 H         1 UNK         0.0814 
    115 H115      -52.8461  -25.4091   19.5265 H         1 UNK         0.0814 
    116 H116      -50.8560  -24.4376   16.5429 H         1 UNK         0.3091 
    117 H117      -48.2739  -25.6021   18.4042 H         1 UNK         0.0702 
    118 H118      -48.4615  -27.8813   17.4371 H         1 UNK         0.0785 
    119 H119      -48.8927  -27.2152   15.8697 H         1 UNK         0.0785 
    120 H120      -47.2823  -26.9439   16.5335 H         1 UNK         0.0785 
    121 H121      -48.3411  -24.8042   15.6351 H         1 UNK         0.2998 
    122 H122      -48.8438  -21.3286   16.2303 H         1 UNK         0.0697 
    123 H123      -46.4035  -22.8782   15.1986 H         1 UNK         0.0825 
    124 H124      -46.3886  -21.6418   16.4449 H         1 UNK         0.0825 
    125 H125      -46.8086  -21.2095   14.7962 H         1 UNK         0.0825 
    126 H126      -48.5382  -22.9149   13.8529 H         1 UNK         0.3029 
    127 H127      -51.9887  -23.7115   13.4185 H         1 UNK         0.0897 
    128 H128      -51.5379  -22.5996   11.2358 H         1 UNK         0.0792 
    129 H129      -50.1443  -21.7687   11.9245 H         1 UNK         0.0792 
    130 H130      -51.7629  -21.4115   12.5105 H         1 UNK         0.0792 
    131 H131      -49.5816  -24.2069   11.8997 H         1 UNK         0.3086 
    132 H132      -48.8954  -27.3854   13.3817 H         1 UNK         0.0583 
    133 H133      -49.2002  -28.2377   11.1001 H         1 UNK         0.1020 
    134 H134      -50.7363  -27.9956   11.8643 H         1 UNK         0.1020 
    135 H135      -52.4538  -26.6180   11.2328 H         1 UNK         0.0694 
    136 H136      -52.5227  -25.3886    9.9999 H         1 UNK         0.0694 
    137 H137      -47.7188  -26.1712   11.1429 H         1 UNK         0.2989 
    138 H138      -45.8822  -23.5849   12.5760 H         1 UNK         0.1055 
    139 H139      -44.3751  -25.4176   13.3841 H         1 UNK         0.0806 
    140 H140      -43.7808  -24.7207   11.8871 H         1 UNK         0.0806 
    141 H141      -44.5997  -26.2840   11.8704 H         1 UNK         0.0806 
    142 H142      -45.5569  -24.8681   10.0639 H         1 UNK         0.3061 
    143 H143      -48.5005  -24.2143    8.4645 H         1 UNK         0.0734 
    144 H144      -47.4678  -22.6152    6.8809 H         1 UNK         0.0832 
    145 H145      -47.8371  -21.7993    8.3898 H         1 UNK         0.0832 
    146 H146      -46.1782  -22.2596    8.0320 H         1 UNK         0.0832 
    147 H147      -46.1489  -24.6531    7.1139 H         1 UNK         0.3156 
    148 H148      -44.7805  -26.6198    7.1369 H         1 UNK         0.0589 
    149 H149      -46.3841  -29.0964    7.9562 H         1 UNK         0.0808 
    150 H150      -44.8379  -29.1005    7.1118 H         1 UNK         0.0808 
    151 H151      -44.9455  -28.4831    8.7527 H         1 UNK         0.0808 
    152 H152      -46.9996  -28.0198    5.8065 H         1 UNK         0.3098 
    153 H153      -47.5021  -25.5228    3.3597 H         1 UNK         0.0720 
    154 H154      -46.7257  -27.1414    1.6427 H         1 UNK         0.0791 
    155 H155      -45.8118  -28.0340    2.8602 H         1 UNK         0.0791 
    156 H156      -45.3516  -26.3912    2.4359 H         1 UNK         0.0791 
    157 H157      -48.1820  -28.3226    3.4791 H         1 UNK         0.3028 
@<TRIPOS>BOND
     1    1    2 1    
     2    1   82 1    
     3    1   83 1    
     4    1   84 1    
     5    2    3 2    
     6    2    4 am   BACKBONE|DICT|INTERRES
     7    4    5 1    
     8    4   85 1    
     9    5    6 1    
    10    5   80 1    
    11    5   86 1    
    12    6    7 1    
    13    6   87 1    
    14    6   88 1    
    15    7    8 1    
    16    8    9 1    
    17    8   89 1    
    18    8   90 1    
    19    9   10 ar   
    20    9   14 ar   
    21   10   11 ar   
    22   10   91 1    
    23   11   12 ar   
    24   11   58 1    
    25   12   13 ar   
    26   12   92 1    
    27   13   14 ar   
    28   13   15 1    
    29   14   93 1    
    30   15   16 1    
    31   15   94 1    
    32   15   95 1    
    33   16   17 1    
    34   17   18 1    
    35   17   96 1    
    36   17   97 1    
    37   18   19 1    
    38   18   22 1    
    39   18   98 1    
    40   19   20 am   BACKBONE|DICT|INTERRES
    41   19   21 2    
    42   20   99 1    
    43   20  100 1    
    44   22   23 am   BACKBONE|DICT|INTERRES
    45   22  101 1    
    46   23   24 2    
    47   23   25 1    
    48   25   26 1    
    49   25   27 1    
    50   25  102 1    
    51   26  103 1    
    52   26  104 1    
    53   26  105 1    
    54   27   28 am   BACKBONE|DICT|INTERRES
    55   27  106 1    
    56   28   29 2    
    57   28   30 1    
    58   30   31 1    
    59   30   32 1    
    60   30  107 1    
    61   31  108 1    
    62   31  109 1    
    63   31  110 1    
    64   32   33 am   BACKBONE|DICT|INTERRES
    65   32  111 1    
    66   33   34 2    
    67   33   35 1    
    68   35   36 1    
    69   35   37 1    
    70   35  112 1    
    71   36  113 1    
    72   36  114 1    
    73   36  115 1    
    74   37   38 am   BACKBONE|DICT|INTERRES
    75   37  116 1    
    76   38   39 2    
    77   38   40 1    
    78   40   41 1    
    79   40   42 1    
    80   40  117 1    
    81   41  118 1    
    82   41  119 1    
    83   41  120 1    
    84   42   43 am   BACKBONE|DICT|INTERRES
    85   42  121 1    
    86   43   44 2    
    87   43   45 1    
    88   45   46 1    
    89   45   47 1    
    90   45  122 1    
    91   46  123 1    
    92   46  124 1    
    93   46  125 1    
    94   47   48 am   BACKBONE|DICT|INTERRES
    95   47  126 1    
    96   48   49 2    
    97   48   50 1    
    98   50   51 1    
    99   50   52 1    
   100   50  127 1    
   101   51  128 1    
   102   51  129 1    
   103   51  130 1    
   104   52   53 am   BACKBONE|DICT|INTERRES
   105   52  131 1    
   106   53   54 2    
   107   53   55 1    
   108   55   56 1    
   109   55   59 1    
   110   55  132 1    
   111   56   57 1    
   112   56  133 1    
   113   56  134 1    
   114   57   58 1    
   115   58  135 1    
   116   58  136 1    
   117   59   60 am   BACKBONE|DICT|INTERRES
   118   59  137 1    
   119   60   61 2    
   120   60   62 1    
   121   62   63 1    
   122   62   64 1    
   123   62  138 1    
   124   63  139 1    
   125   63  140 1    
   126   63  141 1    
   127   64   65 am   BACKBONE|DICT|INTERRES
   128   64  142 1    
   129   65   66 2    
   130   65   67 1    
   131   67   68 1    
   132   67   69 1    
   133   67  143 1    
   134   68  144 1    
   135   68  145 1    
   136   68  146 1    
   137   69   70 am   BACKBONE|DICT|INTERRES
   138   69  147 1    
   139   70   71 2    
   140   70   72 1    
   141   72   73 1    
   142   72   74 1    
   143   72  148 1    
   144   73  149 1    
   145   73  150 1    
   146   73  151 1    
   147   74   75 am   BACKBONE|DICT|INTERRES
   148   74  152 1    
   149   75   76 2    
   150   75   77 1    
   151   77   78 1    
   152   77   79 1    
   153   77  153 1    
   154   78  154 1    
   155   78  155 1    
   156   78  156 1    
   157   79   80 am   BACKBONE|DICT|INTERRES
   158   79  157 1    
   159   80   81 2    
@<TRIPOS>SUBSTRUCTURE
     1 UNK         1 GROUP             0       ****    0 ROOT    
