@<TRIPOS>MOLECULE
3R207
157   159    1
SMALL
USER_CHARGES


@<TRIPOS>ATOM
      1 CA        -45.1650  -29.3094    9.2540 C.3       0 UNK        -0.1975 
      2 C         -45.6508  -29.4930    7.8237 C.2       0 UNK         0.4852 
      3 O         -45.0780  -30.2906    7.0811 O.2       0 UNK        -0.5216 
      4 N         -46.6922  -28.7512    7.4265 N.am      1 UNK        -0.4461 
      5 CA        -47.3182  -28.8154    6.0950 C.3       1 UNK         0.0864 
      6 C6        -48.8337  -28.4967    6.1779 C.3       14 UNK        -0.0898 
      7 S7        -49.7416  -29.8522    6.9885 S.3       14 UNK        -0.2598 
      8 C8        -51.4658  -29.3981    6.6238 C.3       14 UNK         0.0286 
      9 C9        -52.0232  -28.4579    7.6801 C.ar      14 UNK        -0.0844 
     10 C10       -52.1244  -27.0841    7.4402 C.ar      14 UNK        -0.0881 
     11 C11       -52.6423  -26.2317    8.4212 C.ar      14 UNK        -0.0643 
     12 C12       -53.0580  -26.7631    9.6474 C.ar      14 UNK        -0.0930 
     13 C13       -52.9476  -28.1324    9.9005 C.ar      14 UNK        -0.0827 
     14 C14       -52.4397  -28.9747    8.9091 C.ar      14 UNK        -0.1249 
     15 C15       -53.3210  -28.7028   11.2582 C.3       14 UNK         0.0141 
     16 S16       -55.1093  -28.6570   11.5805 S.3       14 UNK        -0.2313 
     17 C17       -55.2257  -29.9840   12.8264 C.3       14 UNK        -0.0915 
     18 CA        -56.5245  -29.9228   13.6694 C.3       13 UNK         0.0968 
     19 C         -56.7515  -31.2470   14.4606 C.2       13 UNK         0.5732 
     20 N         -56.9175  -31.2371   15.7785 N.am      13 UNK        -0.7310 
     21 O         -56.7933  -32.3174   13.8584 O.2       13 UNK        -0.5035 
     22 N         -56.5771  -28.7106   14.5018 N.am      13 UNK        -0.4233 
     23 C         -57.7166  -28.1348   14.9085 C.2       13 UNK         0.4989 
     24 O         -58.8335  -28.4995   14.5353 O.2       13 UNK        -0.4996 
     25 CA        -57.5905  -26.9660   15.9072 C.3       12 UNK         0.0216 
     26 CB        -58.9122  -26.6640   16.6454 C.3       12 UNK        -0.1964 
     27 N         -56.4945  -27.1284   16.8713 N.am      12 UNK        -0.4276 
     28 C         -56.2991  -28.1466   17.7264 C.2       12 UNK         0.5020 
     29 O         -57.0528  -29.1176   17.8046 O.2       12 UNK        -0.5489 
     30 CA        -55.0435  -28.1062   18.6204 C.3       11 UNK         0.0294 
     31 CB        -54.2964  -29.4524   18.5834 C.3       11 UNK        -0.2019 
     32 N         -54.1192  -27.0491   18.2084 N.am      11 UNK        -0.4493 
     33 C         -53.9831  -25.8551   18.8031 C.2       11 UNK         0.4932 
     34 O         -54.5600  -25.5382   19.8431 O.2       11 UNK        -0.5029 
     35 CA        -53.0721  -24.8230   18.1060 C.3       10 UNK         0.0280 
     36 CB        -51.6778  -24.8161   18.7528 C.3       10 UNK        -0.1976 
     37 N         -52.9303  -25.0446   16.6628 N.am      10 UNK        -0.4242 
     38 C         -53.9323  -24.9941   15.7717 C.2       10 UNK         0.5072 
     39 O         -55.0799  -24.6540   16.0568 O.2       10 UNK        -0.5224 
     40 CA        -53.6314  -25.4944   14.3475 C.3       9 UNK         0.0343 
     41 CB        -53.3394  -24.3132   13.4133 C.3       9 UNK        -0.2003 
     42 N         -52.5362  -26.4750   14.3002 N.am      9 UNK        -0.4272 
     43 C         -52.6101  -27.6914   14.8691 C.2       9 UNK         0.4988 
     44 O         -53.6335  -28.1011   15.4209 O.2       9 UNK        -0.5108 
     45 CA        -51.3576  -28.5896   14.8700 C.3       8 UNK         0.0248 
     46 CB        -51.6696  -30.0312   14.4328 C.3       8 UNK        -0.2001 
     47 N         -50.2535  -28.0652   14.0611 N.am      8 UNK        -0.4140 
     48 C         -49.2736  -27.2865   14.5370 C.2       8 UNK         0.5028 
     49 O         -49.2113  -26.8993   15.7046 O.2       8 UNK        -0.5428 
     50 CA        -48.1872  -26.8477   13.5388 C.3       7 UNK         0.0264 
     51 CB        -47.0895  -27.9188   13.4295 C.3       7 UNK        -0.1988 
     52 N         -48.6665  -26.5106   12.1922 N.am      7 UNK        -0.4454 
     53 C         -49.5991  -25.5922   11.9000 C.2       7 UNK         0.5027 
     54 O         -50.2981  -25.0436   12.7525 O.2       7 UNK        -0.5083 
     55 CA        -49.7271  -25.1893   10.4153 C.3       6 UNK         0.0844 
     56 C56       -50.8551  -24.1541   10.1725 C.3       14 UNK        -0.0967 
     57 S57       -51.1570  -23.8826    8.3927 S.3       14 UNK        -0.2604 
     58 C58       -52.7497  -24.7364    8.1567 C.3       14 UNK         0.0134 
     59 N         -48.4445  -24.6647    9.9471 N.am      6 UNK        -0.4116 
     60 C         -47.4131  -25.3743    9.4827 C.2       5 UNK         0.5034 
     61 O         -47.4234  -26.6024    9.3622 O.2       5 UNK        -0.5045 
     62 CA        -46.1673  -24.5555    9.1039 C.3       5 UNK         0.0224 
     63 CB        -45.0130  -25.4304    8.5906 C.3       5 UNK        -0.1978 
     64 N         -46.4981  -23.5350    8.1028 N.am      5 UNK        -0.4737 
     65 C         -46.9604  -22.3090    8.3892 C.2       4 UNK         0.5027 
     66 O         -47.1588  -21.9333    9.5459 O.2       4 UNK        -0.5211 
     67 CA        -47.3185  -21.3592    7.2257 C.3       4 UNK         0.0297 
     68 CB        -46.8647  -19.9094    7.4996 C.3       4 UNK        -0.1993 
     69 N         -46.8805  -21.8122    5.8988 N.am      4 UNK        -0.4486 
     70 C         -45.6279  -21.9425    5.4389 C.2       3 UNK         0.4961 
     71 O         -44.6113  -21.6566    6.0738 O.2       3 UNK        -0.5105 
     72 CA        -45.4998  -22.5490    4.0279 C.3       3 UNK         0.0299 
     73 CB        -44.5961  -21.6840    3.1325 C.3       3 UNK        -0.1972 
     74 N         -44.9873  -23.9239    4.0496 N.am      3 UNK        -0.4305 
     75 C         -45.4959  -24.9382    4.7639 C.2       2 UNK         0.5006 
     76 O         -46.4818  -24.8282    5.4983 O.2       2 UNK        -0.5106 
     77 CA        -44.7671  -26.2918    4.6494 C.3       2 UNK         0.0296 
     78 CB        -43.3183  -26.1950    5.1624 C.3       2 UNK        -0.2002 
     79 N         -45.4630  -27.3309    5.4110 N.am      2 UNK        -0.4032 
     80 C         -46.6037  -27.9302    5.0451 C.2       1 UNK         0.5000 
     81 O         -47.0972  -27.8040    3.9216 O.2       1 UNK        -0.5238 
     82 H82       -44.1783  -28.8472    9.2599 H         1 UNK         0.0889 
     83 H83       -45.0920  -30.2759    9.7519 H         1 UNK         0.0889 
     84 H84       -45.8391  -28.6831    9.8373 H         1 UNK         0.0889 
     85 H85       -47.1071  -28.0890    8.0779 H         1 UNK         0.3028 
     86 H86       -47.2181  -29.8348    5.7151 H         1 UNK         0.0864 
     87 H87       -49.0104  -27.5642    6.7181 H         1 UNK         0.0720 
     88 H88       -49.2653  -28.3660    5.1839 H         1 UNK         0.0720 
     89 H89       -51.5426  -28.9597    5.6277 H         1 UNK         0.0814 
     90 H90       -52.0684  -30.3074    6.5988 H         1 UNK         0.0814 
     91 H91       -51.7960  -26.6753    6.4943 H         1 UNK         0.1469 
     92 H92       -53.4598  -26.1137   10.4123 H         1 UNK         0.1381 
     93 H93       -52.3473  -30.0359    9.0974 H         1 UNK         0.1206 
     94 H94       -52.8007  -28.1425   12.0325 H         1 UNK         0.0813 
     95 H95       -52.9736  -29.7342   11.3305 H         1 UNK         0.0813 
     96 H96       -54.3586  -29.9422   13.4840 H         1 UNK         0.0638 
     97 H97       -55.1549  -30.9297   12.2857 H         1 UNK         0.0638 
     98 H98       -57.3537  -29.8778   12.9609 H         1 UNK         0.0568 
     99 H99       -57.0680  -32.1124   16.2531 H         1 UNK         0.3450 
    100 H100      -56.9287  -30.3742   16.3128 H         1 UNK         0.3450 
    101 H101      -55.6903  -28.3843   14.8682 H         1 UNK         0.2987 
    102 H102      -57.3415  -26.0891   15.3080 H         1 UNK         0.0766 
    103 H103      -58.8031  -25.8168   17.3224 H         1 UNK         0.0798 
    104 H104      -59.7074  -26.4133   15.9423 H         1 UNK         0.0798 
    105 H105      -59.2520  -27.5195   17.2304 H         1 UNK         0.0798 
    106 H106      -55.8218  -26.3689   16.8713 H         1 UNK         0.3198 
    107 H107      -55.3837  -27.9333   19.6435 H         1 UNK         0.0843 
    108 H108      -53.9917  -29.7190   17.5706 H         1 UNK         0.0831 
    109 H109      -54.9262  -30.2613   18.9559 H         1 UNK         0.0831 
    110 H110      -53.4030  -29.4279   19.2074 H         1 UNK         0.0831 
    111 H111      -53.6352  -27.2207   17.3346 H         1 UNK         0.3133 
    112 H112      -53.5224  -23.8385   18.2486 H         1 UNK         0.0566 
    113 H113      -51.1646  -25.7695   18.6184 H         1 UNK         0.0814 
    114 H114      -51.7459  -24.6310   19.8259 H         1 UNK         0.0814 
    115 H115      -51.0476  -24.0329   18.3310 H         1 UNK         0.0814 
    116 H116      -52.0172  -25.3262   16.3345 H         1 UNK         0.3091 
    117 H117      -54.5336  -25.9910   13.9827 H         1 UNK         0.0702 
    118 H118      -54.1569  -23.5911   13.4295 H         1 UNK         0.0785 
    119 H119      -52.4309  -23.7824   13.6998 H         1 UNK         0.0785 
    120 H120      -53.2301  -24.6489   12.3844 H         1 UNK         0.0785 
    121 H121      -51.6697  -26.1700   13.8689 H         1 UNK         0.2998 
    122 H122      -51.0410  -28.6446   15.9137 H         1 UNK         0.0697 
    123 H123      -51.9376  -30.0933   13.3804 H         1 UNK         0.0825 
    124 H124      -52.4929  -30.4532   15.0111 H         1 UNK         0.0825 
    125 H125      -50.8083  -30.6805   14.5905 H         1 UNK         0.0825 
    126 H126      -50.2301  -28.3227   13.0848 H         1 UNK         0.3029 
    127 H127      -47.7333  -25.9421   13.9469 H         1 UNK         0.0897 
    128 H128      -46.2501  -27.5684   12.8283 H         1 UNK         0.0792 
    129 H129      -46.6946  -28.1762   14.4135 H         1 UNK         0.0792 
    130 H130      -47.4647  -28.8382   12.9780 H         1 UNK         0.0792 
    131 H131      -48.1473  -26.9017   11.4144 H         1 UNK         0.3086 
    132 H132      -49.9709  -26.0975    9.8591 H         1 UNK         0.0583 
    133 H133      -51.7833  -24.4695   10.6445 H         1 UNK         0.1020 
    134 H134      -50.6052  -23.1964   10.6331 H         1 UNK         0.1020 
    135 H135      -53.5034  -24.2834    8.8028 H         1 UNK         0.0694 
    136 H136      -53.0892  -24.5711    7.1331 H         1 UNK         0.0694 
    137 H137      -48.3225  -23.6609   10.0111 H         1 UNK         0.2989 
    138 H138      -45.8170  -24.0668   10.0162 H         1 UNK         0.1055 
    139 H139      -44.1460  -24.8261    8.3232 H         1 UNK         0.0806 
    140 H140      -45.3110  -26.0025    7.7165 H         1 UNK         0.0806 
    141 H141      -44.6921  -26.1408    9.3534 H         1 UNK         0.0806 
    142 H142      -46.4472  -23.8249    7.1286 H         1 UNK         0.3061 
    143 H143      -48.4089  -21.3534    7.1854 H         1 UNK         0.0734 
    144 H144      -47.3274  -19.5189    8.4068 H         1 UNK         0.0832 
    145 H145      -45.7850  -19.8402    7.6344 H         1 UNK         0.0832 
    146 H146      -47.1455  -19.2434    6.6838 H         1 UNK         0.0832 
    147 H147      -47.6258  -22.1358    5.2966 H         1 UNK         0.3156 
    148 H148      -46.4900  -22.5797    3.5686 H         1 UNK         0.0589 
    149 H149      -43.5692  -21.6568    3.4997 H         1 UNK         0.0808 
    150 H150      -44.5771  -22.0554    2.1077 H         1 UNK         0.0808 
    151 H151      -44.9552  -20.6545    3.0956 H         1 UNK         0.0808 
    152 H152      -44.1641  -24.0984    3.4918 H         1 UNK         0.3098 
    153 H153      -44.7498  -26.5807    3.5965 H         1 UNK         0.0720 
    154 H154      -42.8172  -27.1622    5.1154 H         1 UNK         0.0791 
    155 H155      -42.7276  -25.5033    4.5610 H         1 UNK         0.0791 
    156 H156      -43.2732  -25.8463    6.1943 H         1 UNK         0.0791 
    157 H157      -45.1365  -27.5001    6.3496 H         1 UNK         0.3028 
@<TRIPOS>BOND
     1    1    2 1    
     2    1   82 1    
     3    1   83 1    
     4    1   84 1    
     5    2    3 2    
     6    2    4 am   BACKBONE|DICT|INTERRES
     7    4    5 1    
     8    4   85 1    
     9    5    6 1    
    10    5   80 1    
    11    5   86 1    
    12    6    7 1    
    13    6   87 1    
    14    6   88 1    
    15    7    8 1    
    16    8    9 1    
    17    8   89 1    
    18    8   90 1    
    19    9   10 ar   
    20    9   14 ar   
    21   10   11 ar   
    22   10   91 1    
    23   11   12 ar   
    24   11   58 1    
    25   12   13 ar   
    26   12   92 1    
    27   13   14 ar   
    28   13   15 1    
    29   14   93 1    
    30   15   16 1    
    31   15   94 1    
    32   15   95 1    
    33   16   17 1    
    34   17   18 1    
    35   17   96 1    
    36   17   97 1    
    37   18   19 1    
    38   18   22 1    
    39   18   98 1    
    40   19   20 am   BACKBONE|DICT|INTERRES
    41   19   21 2    
    42   20   99 1    
    43   20  100 1    
    44   22   23 am   BACKBONE|DICT|INTERRES
    45   22  101 1    
    46   23   24 2    
    47   23   25 1    
    48   25   26 1    
    49   25   27 1    
    50   25  102 1    
    51   26  103 1    
    52   26  104 1    
    53   26  105 1    
    54   27   28 am   BACKBONE|DICT|INTERRES
    55   27  106 1    
    56   28   29 2    
    57   28   30 1    
    58   30   31 1    
    59   30   32 1    
    60   30  107 1    
    61   31  108 1    
    62   31  109 1    
    63   31  110 1    
    64   32   33 am   BACKBONE|DICT|INTERRES
    65   32  111 1    
    66   33   34 2    
    67   33   35 1    
    68   35   36 1    
    69   35   37 1    
    70   35  112 1    
    71   36  113 1    
    72   36  114 1    
    73   36  115 1    
    74   37   38 am   BACKBONE|DICT|INTERRES
    75   37  116 1    
    76   38   39 2    
    77   38   40 1    
    78   40   41 1    
    79   40   42 1    
    80   40  117 1    
    81   41  118 1    
    82   41  119 1    
    83   41  120 1    
    84   42   43 am   BACKBONE|DICT|INTERRES
    85   42  121 1    
    86   43   44 2    
    87   43   45 1    
    88   45   46 1    
    89   45   47 1    
    90   45  122 1    
    91   46  123 1    
    92   46  124 1    
    93   46  125 1    
    94   47   48 am   BACKBONE|DICT|INTERRES
    95   47  126 1    
    96   48   49 2    
    97   48   50 1    
    98   50   51 1    
    99   50   52 1    
   100   50  127 1    
   101   51  128 1    
   102   51  129 1    
   103   51  130 1    
   104   52   53 am   BACKBONE|DICT|INTERRES
   105   52  131 1    
   106   53   54 2    
   107   53   55 1    
   108   55   56 1    
   109   55   59 1    
   110   55  132 1    
   111   56   57 1    
   112   56  133 1    
   113   56  134 1    
   114   57   58 1    
   115   58  135 1    
   116   58  136 1    
   117   59   60 am   BACKBONE|DICT|INTERRES
   118   59  137 1    
   119   60   61 2    
   120   60   62 1    
   121   62   63 1    
   122   62   64 1    
   123   62  138 1    
   124   63  139 1    
   125   63  140 1    
   126   63  141 1    
   127   64   65 am   BACKBONE|DICT|INTERRES
   128   64  142 1    
   129   65   66 2    
   130   65   67 1    
   131   67   68 1    
   132   67   69 1    
   133   67  143 1    
   134   68  144 1    
   135   68  145 1    
   136   68  146 1    
   137   69   70 am   BACKBONE|DICT|INTERRES
   138   69  147 1    
   139   70   71 2    
   140   70   72 1    
   141   72   73 1    
   142   72   74 1    
   143   72  148 1    
   144   73  149 1    
   145   73  150 1    
   146   73  151 1    
   147   74   75 am   BACKBONE|DICT|INTERRES
   148   74  152 1    
   149   75   76 2    
   150   75   77 1    
   151   77   78 1    
   152   77   79 1    
   153   77  153 1    
   154   78  154 1    
   155   78  155 1    
   156   78  156 1    
   157   79   80 am   BACKBONE|DICT|INTERRES
   158   79  157 1    
   159   80   81 2    
@<TRIPOS>SUBSTRUCTURE
     1 UNK         1 GROUP             0       ****    0 ROOT    
