@<TRIPOS>MOLECULE
3R207
157   159    1
SMALL
USER_CHARGES


@<TRIPOS>ATOM
      1 CA        -46.4483  -29.6240    6.7969 C.3       0 UNK        -0.1975 
      2 C         -47.1292  -28.4388    6.1335 C.2       0 UNK         0.4852 
      3 O         -46.9300  -27.3023    6.5630 O.2       0 UNK        -0.5216 
      4 N         -47.9090  -28.6894    5.0710 N.am      1 UNK        -0.4461 
      5 CA        -48.6354  -27.6882    4.2684 C.3       1 UNK         0.0864 
      6 C6        -49.8294  -27.0490    5.0307 C.3       14 UNK        -0.0898 
      7 S7        -51.1241  -28.2626    5.4578 S.3       14 UNK        -0.2598 
      8 C8        -51.7853  -27.5593    7.0084 C.3       14 UNK         0.0286 
      9 C9        -51.5645  -28.4635    8.2167 C.ar      14 UNK        -0.0844 
     10 C10       -50.3080  -29.0195    8.4748 C.ar      14 UNK        -0.0881 
     11 C11       -50.1024  -29.8378    9.5895 C.ar      14 UNK        -0.0643 
     12 C12       -51.1676  -30.0978   10.4552 C.ar      14 UNK        -0.0930 
     13 C13       -52.4285  -29.5442   10.2147 C.ar      14 UNK        -0.0827 
     14 C14       -52.6207  -28.7284    9.0949 C.ar      14 UNK        -0.1249 
     15 C15       -53.5841  -29.8465   11.1559 C.3       14 UNK         0.0141 
     16 S16       -53.4370  -28.9250   12.7165 S.3       14 UNK        -0.2313 
     17 C17       -54.9525  -29.4686   13.5735 C.3       14 UNK        -0.0915 
     18 CA        -56.0223  -28.3461   13.6492 C.3       13 UNK         0.0968 
     19 C         -57.4147  -28.9093   14.0694 C.2       13 UNK         0.5732 
     20 N         -58.0989  -28.3720   15.0731 N.am      13 UNK        -0.7310 
     21 O         -57.8987  -29.8588   13.4573 O.2       13 UNK        -0.5035 
     22 N         -55.5445  -27.2189   14.4621 N.am      13 UNK        -0.4233 
     23 C         -56.0143  -25.9687   14.4123 C.2       13 UNK         0.4989 
     24 O         -56.8746  -25.5880   13.6147 O.2       13 UNK        -0.4996 
     25 CA        -55.4624  -25.0094   15.4874 C.3       12 UNK         0.0216 
     26 CB        -56.0489  -23.5863   15.3845 C.3       12 UNK        -0.1964 
     27 N         -55.6313  -25.5368   16.8506 N.am      12 UNK        -0.4276 
     28 C         -56.7666  -25.9657   17.4246 C.2       12 UNK         0.5020 
     29 O         -57.8636  -25.9592   16.8637 O.2       12 UNK        -0.5489 
     30 CA        -56.6407  -26.5590   18.8408 C.3       11 UNK         0.0294 
     31 CB        -57.9863  -27.0614   19.3984 C.3       11 UNK        -0.2019 
     32 N         -55.6881  -27.6697   18.8332 N.am      11 UNK        -0.4493 
     33 C         -54.3726  -27.5481   19.0422 C.2       11 UNK         0.4932 
     34 O         -53.8388  -26.4896   19.3788 O.2       11 UNK        -0.5029 
     35 CA        -53.4909  -28.7912   18.8000 C.3       10 UNK         0.0280 
     36 CB        -54.2404  -29.9937   18.1783 C.3       10 UNK        -0.1976 
     37 N         -52.3102  -28.4500   17.9962 N.am      10 UNK        -0.4242 
     38 C         -52.3101  -27.8972   16.7738 C.2       10 UNK         0.5072 
     39 O         -53.3297  -27.6748   16.1163 O.2       10 UNK        -0.5224 
     40 CA        -50.9280  -27.5597   16.1878 C.3       9 UNK         0.0343 
     41 CB        -50.3558  -28.7758   15.4425 C.3       9 UNK        -0.2003 
     42 N         -50.9591  -26.4064   15.2823 N.am      9 UNK        -0.4272 
     43 C         -51.2806  -25.1543   15.6493 C.2       9 UNK         0.4988 
     44 O         -51.5572  -24.8388   16.8076 O.2       9 UNK        -0.5108 
     45 CA        -51.2694  -24.0454   14.5775 C.3       8 UNK         0.0248 
     46 CB        -50.1681  -23.0148   14.8785 C.3       8 UNK        -0.2001 
     47 N         -51.0901  -24.5524   13.2161 N.am      8 UNK        -0.4140 
     48 C         -52.0717  -25.0863   12.4739 C.2       8 UNK         0.5028 
     49 O         -53.2492  -25.1016   12.8290 O.2       8 UNK        -0.5428 
     50 CA        -51.7014  -25.7007   11.1083 C.3       7 UNK         0.0264 
     51 CB        -52.2615  -24.8349    9.9686 C.3       7 UNK        -0.1988 
     52 N         -50.2643  -25.9140   10.8957 N.am      7 UNK        -0.4454 
     53 C         -49.5045  -26.7571   11.6169 C.2       7 UNK         0.5027 
     54 O         -49.9519  -27.4295   12.5451 O.2       7 UNK        -0.5083 
     55 CA        -47.9789  -26.7825   11.3404 C.3       6 UNK         0.0844 
     56 C56       -47.5515  -27.9298   10.3904 C.3       14 UNK        -0.0967 
     57 S57       -47.7733  -29.5923   11.1152 S.3       14 UNK        -0.2604 
     58 C58       -48.7393  -30.4664    9.8407 C.3       14 UNK         0.0134 
     59 N         -47.4665  -25.4990   10.8539 N.am      6 UNK        -0.4116 
     60 C         -47.5799  -24.3157   11.4733 C.2       5 UNK         0.5034 
     61 O         -48.0590  -24.1752   12.5981 O.2       5 UNK        -0.5045 
     62 CA        -47.1401  -23.0711   10.6804 C.3       5 UNK         0.0224 
     63 CB        -45.7400  -22.6204   11.1253 C.3       5 UNK        -0.1978 
     64 N         -47.1464  -23.2448    9.2213 N.am      5 UNK        -0.4737 
     65 C         -48.1974  -23.5902    8.4652 C.2       4 UNK         0.5027 
     66 O         -49.3117  -23.8352    8.9254 O.2       4 UNK        -0.5211 
     67 CA        -47.9615  -23.7511    6.9551 C.3       4 UNK         0.0297 
     68 CB        -48.1147  -22.4089    6.2158 C.3       4 UNK        -0.1993 
     69 N         -46.7034  -24.4279    6.6093 N.am      4 UNK        -0.4486 
     70 C         -45.4396  -23.9934    6.7300 C.2       3 UNK         0.4961 
     71 O         -45.1258  -22.9126    7.2292 O.2       3 UNK        -0.5105 
     72 CA        -44.3350  -24.9356    6.2263 C.3       3 UNK         0.0299 
     73 CB        -43.8696  -25.8716    7.3543 C.3       3 UNK        -0.1972 
     74 N         -44.7790  -25.7279    5.0765 N.am      3 UNK        -0.4305 
     75 C         -44.8012  -25.2778    3.8126 C.2       2 UNK         0.5006 
     76 O         -44.3649  -24.1780    3.4703 O.2       2 UNK        -0.5106 
     77 CA        -45.4094  -26.2041    2.7420 C.3       2 UNK         0.0296 
     78 CB        -44.3167  -27.0786    2.1054 C.3       2 UNK        -0.2002 
     79 N         -46.4819  -27.0631    3.2521 N.am      2 UNK        -0.4032 
     80 C         -47.6872  -26.6279    3.6525 C.2       1 UNK         0.5000 
     81 O         -48.0400  -25.4497    3.5711 O.2       1 UNK        -0.5238 
     82 H82       -47.0233  -30.5406    6.6680 H         1 UNK         0.0889 
     83 H83       -46.3272  -29.4423    7.8641 H         1 UNK         0.0889 
     84 H84       -45.4582  -29.7743    6.3679 H         1 UNK         0.0889 
     85 H85       -48.0322  -29.6467    4.7700 H         1 UNK         0.3028 
     86 H86       -49.0467  -28.2259    3.4126 H         1 UNK         0.0864 
     87 H87       -49.4703  -26.5569    5.9347 H         1 UNK         0.0720 
     88 H88       -50.3116  -26.2757    4.4299 H         1 UNK         0.0720 
     89 H89       -52.8506  -27.3739    6.8636 H         1 UNK         0.0814 
     90 H90       -51.3364  -26.5872    7.2104 H         1 UNK         0.0814 
     91 H91       -49.4908  -28.8181    7.7980 H         1 UNK         0.1469 
     92 H92       -51.0138  -30.7266   11.3215 H         1 UNK         0.1381 
     93 H93       -53.5950  -28.2972    8.9093 H         1 UNK         0.1206 
     94 H94       -53.6082  -30.9165   11.3677 H         1 UNK         0.0813 
     95 H95       -54.5369  -29.6020   10.6837 H         1 UNK         0.0813 
     96 H96       -54.6786  -29.7992   14.5768 H         1 UNK         0.0638 
     97 H97       -55.3419  -30.3514   13.0635 H         1 UNK         0.0638 
     98 H98       -56.1687  -27.9705   12.6349 H         1 UNK         0.0568 
     99 H99       -58.9975  -28.7611   15.3084 H         1 UNK         0.3450 
    100 H100      -57.7752  -27.5405   15.5526 H         1 UNK         0.3450 
    101 H101      -54.7938  -27.4313   15.1188 H         1 UNK         0.2987 
    102 H102      -54.3878  -24.9397   15.3144 H         1 UNK         0.0766 
    103 H103      -55.5996  -22.9184   16.1193 H         1 UNK         0.0798 
    104 H104      -57.1283  -23.5813   15.5406 H         1 UNK         0.0798 
    105 H105      -55.8588  -23.1591   14.3990 H         1 UNK         0.0798 
    106 H106      -54.7754  -25.6504   17.3810 H         1 UNK         0.3198 
    107 H107      -56.2862  -25.7620   19.4984 H         1 UNK         0.0843 
    108 H108      -58.4121  -27.8527   18.7800 H         1 UNK         0.0831 
    109 H109      -58.7169  -26.2525   19.4413 H         1 UNK         0.0831 
    110 H110      -57.8756  -27.4496   20.4110 H         1 UNK         0.0831 
    111 H111      -56.0415  -28.5635   18.5226 H         1 UNK         0.3133 
    112 H112      -53.1210  -29.0992   19.7789 H         1 UNK         0.0566 
    113 H113      -53.5637  -30.8333   18.0190 H         1 UNK         0.0814 
    114 H114      -55.0341  -30.3513   18.8354 H         1 UNK         0.0814 
    115 H115      -54.6873  -29.7489   17.2138 H         1 UNK         0.0814 
    116 H116      -51.4213  -28.5718   18.4611 H         1 UNK         0.3091 
    117 H117      -50.2557  -27.3095   17.0110 H         1 UNK         0.0702 
    118 H118      -49.3526  -28.5756   15.0657 H         1 UNK         0.0785 
    119 H119      -50.9809  -29.0539   14.5928 H         1 UNK         0.0785 
    120 H120      -50.2890  -29.6458   16.0968 H         1 UNK         0.0785 
    121 H121      -50.7662  -26.6013   14.3057 H         1 UNK         0.2998 
    122 H122      -52.2313  -23.5314   14.6342 H         1 UNK         0.0697 
    123 H123      -49.1815  -23.4780   14.9143 H         1 UNK         0.0825 
    124 H124      -50.3355  -22.5361   15.8442 H         1 UNK         0.0825 
    125 H125      -50.1423  -22.2258   14.1267 H         1 UNK         0.0825 
    126 H126      -50.1409  -24.5621   12.8596 H         1 UNK         0.3029 
    127 H127      -52.1839  -26.6784   11.0636 H         1 UNK         0.0897 
    128 H128      -53.3439  -24.7303   10.0540 H         1 UNK         0.0792 
    129 H129      -52.0564  -25.2752    8.9947 H         1 UNK         0.0792 
    130 H130      -51.8347  -23.8313    9.9798 H         1 UNK         0.0792 
    131 H131      -49.8285  -25.3348   10.1838 H         1 UNK         0.3086 
    132 H132      -47.4931  -26.9517   12.3039 H         1 UNK         0.0583 
    133 H133      -48.0626  -27.8457    9.4322 H         1 UNK         0.1020 
    134 H134      -46.4894  -27.8354   10.1578 H         1 UNK         0.1020 
    135 H135      -48.1641  -30.5133    8.9173 H         1 UNK         0.0694 
    136 H136      -48.8749  -31.5011   10.1589 H         1 UNK         0.0694 
    137 H137      -47.0671  -25.4964    9.9274 H         1 UNK         0.2989 
    138 H138      -47.8516  -22.2772   10.9172 H         1 UNK         0.1055 
    139 H139      -45.7050  -22.4575   12.2036 H         1 UNK         0.0806 
    140 H140      -45.4551  -21.6822   10.6487 H         1 UNK         0.0806 
    141 H141      -44.9803  -23.3644   10.8819 H         1 UNK         0.0806 
    142 H142      -46.2789  -23.0492    8.7269 H         1 UNK         0.3061 
    143 H143      -48.7509  -24.4084    6.5893 H         1 UNK         0.0734 
    144 H144      -47.3766  -21.6743    6.5386 H         1 UNK         0.0832 
    145 H145      -48.0112  -22.5395    5.1384 H         1 UNK         0.0832 
    146 H146      -49.1000  -21.9775    6.3973 H         1 UNK         0.0832 
    147 H147      -46.8192  -25.3917    6.3059 H         1 UNK         0.3156 
    148 H148      -43.4826  -24.3220    5.9267 H         1 UNK         0.0589 
    149 H149      -44.6767  -26.5068    7.7203 H         1 UNK         0.0808 
    150 H150      -43.0583  -26.5193    7.0219 H         1 UNK         0.0808 
    151 H151      -43.4974  -25.2988    8.2048 H         1 UNK         0.0808 
    152 H152      -45.1974  -26.6246    5.2829 H         1 UNK         0.3098 
    153 H153      -45.8325  -25.5676    1.9617 H         1 UNK         0.0720 
    154 H154      -44.7148  -27.6793    1.2874 H         1 UNK         0.0791 
    155 H155      -43.8644  -27.7553    2.8316 H         1 UNK         0.0791 
    156 H156      -43.5165  -26.4627    1.6921 H         1 UNK         0.0791 
    157 H157      -46.2756  -28.0475    3.3416 H         1 UNK         0.3028 
@<TRIPOS>BOND
     1    1    2 1    
     2    1   82 1    
     3    1   83 1    
     4    1   84 1    
     5    2    3 2    
     6    2    4 am   BACKBONE|DICT|INTERRES
     7    4    5 1    
     8    4   85 1    
     9    5    6 1    
    10    5   80 1    
    11    5   86 1    
    12    6    7 1    
    13    6   87 1    
    14    6   88 1    
    15    7    8 1    
    16    8    9 1    
    17    8   89 1    
    18    8   90 1    
    19    9   10 ar   
    20    9   14 ar   
    21   10   11 ar   
    22   10   91 1    
    23   11   12 ar   
    24   11   58 1    
    25   12   13 ar   
    26   12   92 1    
    27   13   14 ar   
    28   13   15 1    
    29   14   93 1    
    30   15   16 1    
    31   15   94 1    
    32   15   95 1    
    33   16   17 1    
    34   17   18 1    
    35   17   96 1    
    36   17   97 1    
    37   18   19 1    
    38   18   22 1    
    39   18   98 1    
    40   19   20 am   BACKBONE|DICT|INTERRES
    41   19   21 2    
    42   20   99 1    
    43   20  100 1    
    44   22   23 am   BACKBONE|DICT|INTERRES
    45   22  101 1    
    46   23   24 2    
    47   23   25 1    
    48   25   26 1    
    49   25   27 1    
    50   25  102 1    
    51   26  103 1    
    52   26  104 1    
    53   26  105 1    
    54   27   28 am   BACKBONE|DICT|INTERRES
    55   27  106 1    
    56   28   29 2    
    57   28   30 1    
    58   30   31 1    
    59   30   32 1    
    60   30  107 1    
    61   31  108 1    
    62   31  109 1    
    63   31  110 1    
    64   32   33 am   BACKBONE|DICT|INTERRES
    65   32  111 1    
    66   33   34 2    
    67   33   35 1    
    68   35   36 1    
    69   35   37 1    
    70   35  112 1    
    71   36  113 1    
    72   36  114 1    
    73   36  115 1    
    74   37   38 am   BACKBONE|DICT|INTERRES
    75   37  116 1    
    76   38   39 2    
    77   38   40 1    
    78   40   41 1    
    79   40   42 1    
    80   40  117 1    
    81   41  118 1    
    82   41  119 1    
    83   41  120 1    
    84   42   43 am   BACKBONE|DICT|INTERRES
    85   42  121 1    
    86   43   44 2    
    87   43   45 1    
    88   45   46 1    
    89   45   47 1    
    90   45  122 1    
    91   46  123 1    
    92   46  124 1    
    93   46  125 1    
    94   47   48 am   BACKBONE|DICT|INTERRES
    95   47  126 1    
    96   48   49 2    
    97   48   50 1    
    98   50   51 1    
    99   50   52 1    
   100   50  127 1    
   101   51  128 1    
   102   51  129 1    
   103   51  130 1    
   104   52   53 am   BACKBONE|DICT|INTERRES
   105   52  131 1    
   106   53   54 2    
   107   53   55 1    
   108   55   56 1    
   109   55   59 1    
   110   55  132 1    
   111   56   57 1    
   112   56  133 1    
   113   56  134 1    
   114   57   58 1    
   115   58  135 1    
   116   58  136 1    
   117   59   60 am   BACKBONE|DICT|INTERRES
   118   59  137 1    
   119   60   61 2    
   120   60   62 1    
   121   62   63 1    
   122   62   64 1    
   123   62  138 1    
   124   63  139 1    
   125   63  140 1    
   126   63  141 1    
   127   64   65 am   BACKBONE|DICT|INTERRES
   128   64  142 1    
   129   65   66 2    
   130   65   67 1    
   131   67   68 1    
   132   67   69 1    
   133   67  143 1    
   134   68  144 1    
   135   68  145 1    
   136   68  146 1    
   137   69   70 am   BACKBONE|DICT|INTERRES
   138   69  147 1    
   139   70   71 2    
   140   70   72 1    
   141   72   73 1    
   142   72   74 1    
   143   72  148 1    
   144   73  149 1    
   145   73  150 1    
   146   73  151 1    
   147   74   75 am   BACKBONE|DICT|INTERRES
   148   74  152 1    
   149   75   76 2    
   150   75   77 1    
   151   77   78 1    
   152   77   79 1    
   153   77  153 1    
   154   78  154 1    
   155   78  155 1    
   156   78  156 1    
   157   79   80 am   BACKBONE|DICT|INTERRES
   158   79  157 1    
   159   80   81 2    
@<TRIPOS>SUBSTRUCTURE
     1 UNK         1 GROUP             0       ****    0 ROOT    
