@<TRIPOS>MOLECULE
3R207
157   159    1
SMALL
USER_CHARGES


@<TRIPOS>ATOM
      1 CA        -49.0802  -32.8320    4.5961 C.3       0 UNK        -0.1975 
      2 C         -49.1932  -31.3435    4.8916 C.2       0 UNK         0.4852 
      3 O         -49.5918  -30.5753    4.0145 O.2       0 UNK        -0.5216 
      4 N         -48.8561  -30.9367    6.1217 N.am      1 UNK        -0.4461 
      5 CA        -48.8598  -29.5411    6.5758 C.3       1 UNK         0.0864 
      6 C6        -49.1698  -29.4145    8.0969 C.3       14 UNK        -0.0898 
      7 S7        -50.5380  -30.4548    8.7246 S.3       14 UNK        -0.2598 
      8 C8        -51.9797  -29.9226    7.7451 C.3       14 UNK         0.0286 
      9 C9        -52.4650  -28.5302    8.1228 C.ar      14 UNK        -0.0844 
     10 C10       -52.0806  -27.4252    7.3619 C.ar      14 UNK        -0.0881 
     11 C11       -52.5389  -26.1466    7.6838 C.ar      14 UNK        -0.0643 
     12 C12       -53.3959  -25.9775    8.7743 C.ar      14 UNK        -0.0930 
     13 C13       -53.8067  -27.0731    9.5423 C.ar      14 UNK        -0.0827 
     14 C14       -53.3304  -28.3500    9.2073 C.ar      14 UNK        -0.1249 
     15 C15       -54.7704  -26.8073   10.7027 C.3       14 UNK         0.0141 
     16 S16       -55.4471  -28.2747   11.5541 S.3       14 UNK        -0.2313 
     17 C17       -56.7718  -27.4870   12.5344 C.3       14 UNK        -0.0915 
     18 CA        -57.2071  -28.2723   13.8009 C.3       13 UNK         0.0968 
     19 C         -57.8205  -29.6677   13.4701 C.2       13 UNK         0.5732 
     20 N         -57.3268  -30.7744   14.0147 N.am      13 UNK        -0.7310 
     21 O         -58.7843  -29.7454   12.7114 O.2       13 UNK        -0.5035 
     22 N         -56.1622  -28.2655   14.8353 N.am      13 UNK        -0.4233 
     23 C         -56.3793  -28.4855   16.1380 C.2       13 UNK         0.4989 
     24 O         -57.5017  -28.6364   16.6258 O.2       13 UNK        -0.4996 
     25 CA        -55.1291  -28.5704   17.0389 C.3       12 UNK         0.0216 
     26 CB        -55.4531  -29.0598   18.4662 C.3       12 UNK        -0.1964 
     27 N         -54.0484  -29.3826   16.4632 N.am      12 UNK        -0.4276 
     28 C         -54.1177  -30.6381   15.9968 C.2       12 UNK         0.5020 
     29 O         -55.1543  -31.3046   15.9751 O.2       12 UNK        -0.5489 
     30 CA        -52.8120  -31.2309   15.4273 C.3       11 UNK         0.0294 
     31 CB        -53.0138  -32.6298   14.8146 C.3       11 UNK        -0.2019 
     32 N         -52.2214  -30.3537   14.4140 N.am      11 UNK        -0.4493 
     33 C         -51.4734  -29.2714   14.6634 C.2       11 UNK         0.4932 
     34 O         -51.1437  -28.9271   15.7998 O.2       11 UNK        -0.5029 
     35 CA        -51.0529  -28.4046   13.4600 C.3       10 UNK         0.0280 
     36 CB        -51.5220  -28.9438   12.0936 C.3       10 UNK        -0.1976 
     37 N         -51.4576  -27.0017   13.5966 N.am      10 UNK        -0.4242 
     38 C         -52.6443  -26.4988   13.9706 C.2       10 UNK         0.5072 
     39 O         -53.6140  -27.1870   14.2904 O.2       10 UNK        -0.5224 
     40 CA        -52.7833  -24.9612   13.9546 C.3       9 UNK         0.0343 
     41 CB        -53.8941  -24.4507   14.8972 C.3       9 UNK        -0.2003 
     42 N         -51.5164  -24.2528   14.1789 N.am      9 UNK        -0.4272 
     43 C         -50.7519  -24.2588   15.2827 C.2       9 UNK         0.4988 
     44 O         -51.0797  -24.8011   16.3385 O.2       9 UNK        -0.5108 
     45 CA        -49.3696  -23.5758   15.2036 C.3       8 UNK         0.0248 
     46 CB        -48.2488  -24.6142   15.3850 C.3       8 UNK        -0.2001 
     47 N         -49.1353  -22.8505   13.9510 N.am      8 UNK        -0.4140 
     48 C         -49.6007  -21.6249   13.6744 C.2       8 UNK         0.5028 
     49 O         -50.2328  -20.9358   14.4758 O.2       8 UNK        -0.5428 
     50 CA        -49.3489  -21.0875   12.2525 C.3       7 UNK         0.0264 
     51 CB        -47.9881  -20.3776   12.1724 C.3       7 UNK        -0.1988 
     52 N         -49.4236  -22.1203   11.2130 N.am      7 UNK        -0.4454 
     53 C         -50.5214  -22.8398   10.9291 C.2       7 UNK         0.5027 
     54 O         -51.6038  -22.6899   11.4962 O.2       7 UNK        -0.5083 
     55 CA        -50.3729  -23.9516    9.8715 C.3       6 UNK         0.0844 
     56 C56       -50.4578  -23.3337    8.4526 C.3       14 UNK        -0.0967 
     57 S57       -50.3731  -24.5403    7.0894 S.3       14 UNK        -0.2604 
     58 C58       -52.1220  -24.9621    6.8272 C.3       14 UNK         0.0134 
     59 N         -49.1672  -24.7577   10.1011 N.am      6 UNK        -0.4116 
     60 C         -48.8945  -25.4271   11.2322 C.2       5 UNK         0.5034 
     61 O         -49.6547  -25.4810   12.1945 O.2       5 UNK        -0.5045 
     62 CA        -47.5144  -26.0841   11.3618 C.3       5 UNK         0.0224 
     63 CB        -47.4727  -27.4600   10.6801 C.3       5 UNK        -0.1978 
     64 N         -46.4566  -25.2172   10.8444 N.am      5 UNK        -0.4737 
     65 C         -46.0468  -24.0950   11.4521 C.2       4 UNK         0.5027 
     66 O         -46.4718  -23.7168   12.5436 O.2       4 UNK        -0.5211 
     67 CA        -45.0161  -23.2345   10.7014 C.3       4 UNK         0.0297 
     68 CB        -43.5885  -23.7084   11.0153 C.3       4 UNK        -0.1993 
     69 N         -45.2257  -23.2331    9.2507 N.am      4 UNK        -0.4486 
     70 C         -46.2822  -22.6763    8.6421 C.2       3 UNK         0.4961 
     71 O         -47.1741  -22.0685    9.2366 O.2       3 UNK        -0.5105 
     72 CA        -46.3865  -22.8810    7.1178 C.3       3 UNK         0.0299 
     73 CB        -45.5284  -21.8449    6.3747 C.3       3 UNK        -0.1972 
     74 N         -46.0426  -24.2356    6.6541 N.am      3 UNK        -0.4305 
     75 C         -46.6252  -25.3565    7.1005 C.2       2 UNK         0.5006 
     76 O         -47.4315  -25.3769    8.0295 O.2       2 UNK        -0.5106 
     77 CA        -46.2376  -26.6873    6.4510 C.3       2 UNK         0.0296 
     78 CB        -44.9783  -27.2525    7.1401 C.3       2 UNK        -0.2002 
     79 N         -47.3873  -27.5767    6.6282 N.am      2 UNK        -0.4032 
     80 C         -47.5344  -28.8330    6.1935 C.2       1 UNK         0.5000 
     81 O         -46.6758  -29.4246    5.5318 O.2       1 UNK        -0.5238 
     82 H82       -48.7389  -33.3954    5.4644 H         1 UNK         0.0889 
     83 H83       -48.3736  -32.9999    3.7838 H         1 UNK         0.0889 
     84 H84       -50.0488  -33.2294    4.2939 H         1 UNK         0.0889 
     85 H85       -48.5207  -31.6100    6.7953 H         1 UNK         0.3028 
     86 H86       -49.6460  -29.0115    6.0359 H         1 UNK         0.0864 
     87 H87       -48.2870  -29.6785    8.6824 H         1 UNK         0.0720 
     88 H88       -49.4056  -28.3804    8.3536 H         1 UNK         0.0720 
     89 H89       -51.7480  -29.9785    6.6808 H         1 UNK         0.0814 
     90 H90       -52.7871  -30.6381    7.9076 H         1 UNK         0.0814 
     91 H91       -51.4268  -27.5538    6.5113 H         1 UNK         0.1469 
     92 H92       -53.7552  -24.9873    9.0199 H         1 UNK         0.1381 
     93 H93       -53.6274  -29.2164    9.7799 H         1 UNK         0.1206 
     94 H94       -54.2658  -26.1840   11.4399 H         1 UNK         0.0813 
     95 H95       -55.6089  -26.2216   10.3228 H         1 UNK         0.0813 
     96 H96       -57.6287  -27.3309   11.8767 H         1 UNK         0.0638 
     97 H97       -56.4420  -26.4893   12.8292 H         1 UNK         0.0638 
     98 H98       -58.0416  -27.7078   14.2209 H         1 UNK         0.0568 
     99 H99       -57.7492  -31.6594   13.7866 H         1 UNK         0.3450 
    100 H100      -56.5555  -30.7440   14.6734 H         1 UNK         0.3450 
    101 H101      -55.2102  -28.0896   14.5184 H         1 UNK         0.2987 
    102 H102      -54.7410  -27.5533   17.1138 H         1 UNK         0.0766 
    103 H103      -56.1811  -28.4073   18.9499 H         1 UNK         0.0798 
    104 H104      -54.5622  -29.0695   19.0941 H         1 UNK         0.0798 
    105 H105      -55.8702  -30.0676   18.4605 H         1 UNK         0.0798 
    106 H106      -53.1522  -28.9150   16.3666 H         1 UNK         0.3198 
    107 H107      -52.1151  -31.3320   16.2623 H         1 UNK         0.0843 
    108 H108      -53.4091  -33.3268   15.5547 H         1 UNK         0.0831 
    109 H109      -52.0731  -33.0449   14.4525 H         1 UNK         0.0831 
    110 H110      -53.7160  -32.6081   13.9801 H         1 UNK         0.0831 
    111 H111      -52.4876  -30.5321   13.4564 H         1 UNK         0.3133 
    112 H112      -49.9621  -28.4034   13.4550 H         1 UNK         0.0566 
    113 H113      -51.1587  -28.3141   11.2804 H         1 UNK         0.0814 
    114 H114      -51.1432  -29.9490   11.9048 H         1 UNK         0.0814 
    115 H115      -52.6087  -28.9712   12.0228 H         1 UNK         0.0814 
    116 H116      -50.7528  -26.3310   13.2928 H         1 UNK         0.3091 
    117 H117      -53.0794  -24.7032   12.9374 H         1 UNK         0.0702 
    118 H118      -53.7135  -24.7426   15.9320 H         1 UNK         0.0785 
    119 H119      -54.8650  -24.8580   14.6121 H         1 UNK         0.0785 
    120 H120      -53.9761  -23.3644   14.8620 H         1 UNK         0.0785 
    121 H121      -51.1471  -23.7833   13.3607 H         1 UNK         0.2998 
    122 H122      -49.3111  -22.8672   16.0323 H         1 UNK         0.0697 
    123 H123      -48.2724  -25.3725   14.6021 H         1 UNK         0.0825 
    124 H124      -48.3428  -25.1308   16.3411 H         1 UNK         0.0825 
    125 H125      -47.2649  -24.1449   15.3661 H         1 UNK         0.0825 
    126 H126      -48.5826  -23.3282   13.2486 H         1 UNK         0.3029 
    127 H127      -50.1286  -20.3530   12.0397 H         1 UNK         0.0897 
    128 H128      -47.8324  -19.9275   11.1916 H         1 UNK         0.0792 
    129 H129      -47.9207  -19.5779   12.9112 H         1 UNK         0.0792 
    130 H130      -47.1623  -21.0648   12.3587 H         1 UNK         0.0792 
    131 H131      -48.5831  -22.2760   10.6623 H         1 UNK         0.3086 
    132 H132      -51.2215  -24.6260    9.9961 H         1 UNK         0.0583 
    133 H133      -51.3744  -22.7504    8.3446 H         1 UNK         0.1020 
    134 H134      -49.6421  -22.6247    8.3019 H         1 UNK         0.1020 
    135 H135      -52.7570  -24.0947    7.0123 H         1 UNK         0.0694 
    136 H136      -52.2625  -25.2194    5.7764 H         1 UNK         0.0694 
    137 H137      -48.5040  -24.8168    9.3296 H         1 UNK         0.2989 
    138 H138      -47.3300  -26.2407   12.4271 H         1 UNK         0.1055 
    139 H139      -48.2733  -28.1029   11.0496 H         1 UNK         0.0806 
    140 H140      -46.5301  -27.9701   10.8782 H         1 UNK         0.0806 
    141 H141      -47.5884  -27.3845    9.6013 H         1 UNK         0.0806 
    142 H142      -46.1294  -25.4084    9.9079 H         1 UNK         0.3061 
    143 H143      -45.1214  -22.2077   11.0586 H         1 UNK         0.0734 
    144 H144      -43.4034  -23.6975   12.0904 H         1 UNK         0.0832 
    145 H145      -43.4122  -24.7264   10.6654 H         1 UNK         0.0832 
    146 H146      -42.8438  -23.0595   10.5541 H         1 UNK         0.0832 
    147 H147      -44.5441  -23.7159    8.6835 H         1 UNK         0.3156 
    148 H148      -47.4299  -22.7092    6.8449 H         1 UNK         0.0589 
    149 H149      -44.4637  -21.9912    6.5606 H         1 UNK         0.0808 
    150 H150      -45.6917  -21.8926    5.2979 H         1 UNK         0.0808 
    151 H151      -45.7784  -20.8314    6.6924 H         1 UNK         0.0808 
    152 H152      -45.3727  -24.3015    5.9007 H         1 UNK         0.3098 
    153 H153      -46.0585  -26.5375    5.3848 H         1 UNK         0.0720 
    154 H154      -44.6420  -28.1775    6.6724 H         1 UNK         0.0791 
    155 H155      -45.1561  -27.4591    8.1964 H         1 UNK         0.0791 
    156 H156      -44.1471  -26.5488    7.0797 H         1 UNK         0.0791 
    157 H157      -48.1272  -27.1379    7.1646 H         1 UNK         0.3028 
@<TRIPOS>BOND
     1    1    2 1    
     2    1   82 1    
     3    1   83 1    
     4    1   84 1    
     5    2    3 2    
     6    2    4 am   BACKBONE|DICT|INTERRES
     7    4    5 1    
     8    4   85 1    
     9    5    6 1    
    10    5   80 1    
    11    5   86 1    
    12    6    7 1    
    13    6   87 1    
    14    6   88 1    
    15    7    8 1    
    16    8    9 1    
    17    8   89 1    
    18    8   90 1    
    19    9   10 ar   
    20    9   14 ar   
    21   10   11 ar   
    22   10   91 1    
    23   11   12 ar   
    24   11   58 1    
    25   12   13 ar   
    26   12   92 1    
    27   13   14 ar   
    28   13   15 1    
    29   14   93 1    
    30   15   16 1    
    31   15   94 1    
    32   15   95 1    
    33   16   17 1    
    34   17   18 1    
    35   17   96 1    
    36   17   97 1    
    37   18   19 1    
    38   18   22 1    
    39   18   98 1    
    40   19   20 am   BACKBONE|DICT|INTERRES
    41   19   21 2    
    42   20   99 1    
    43   20  100 1    
    44   22   23 am   BACKBONE|DICT|INTERRES
    45   22  101 1    
    46   23   24 2    
    47   23   25 1    
    48   25   26 1    
    49   25   27 1    
    50   25  102 1    
    51   26  103 1    
    52   26  104 1    
    53   26  105 1    
    54   27   28 am   BACKBONE|DICT|INTERRES
    55   27  106 1    
    56   28   29 2    
    57   28   30 1    
    58   30   31 1    
    59   30   32 1    
    60   30  107 1    
    61   31  108 1    
    62   31  109 1    
    63   31  110 1    
    64   32   33 am   BACKBONE|DICT|INTERRES
    65   32  111 1    
    66   33   34 2    
    67   33   35 1    
    68   35   36 1    
    69   35   37 1    
    70   35  112 1    
    71   36  113 1    
    72   36  114 1    
    73   36  115 1    
    74   37   38 am   BACKBONE|DICT|INTERRES
    75   37  116 1    
    76   38   39 2    
    77   38   40 1    
    78   40   41 1    
    79   40   42 1    
    80   40  117 1    
    81   41  118 1    
    82   41  119 1    
    83   41  120 1    
    84   42   43 am   BACKBONE|DICT|INTERRES
    85   42  121 1    
    86   43   44 2    
    87   43   45 1    
    88   45   46 1    
    89   45   47 1    
    90   45  122 1    
    91   46  123 1    
    92   46  124 1    
    93   46  125 1    
    94   47   48 am   BACKBONE|DICT|INTERRES
    95   47  126 1    
    96   48   49 2    
    97   48   50 1    
    98   50   51 1    
    99   50   52 1    
   100   50  127 1    
   101   51  128 1    
   102   51  129 1    
   103   51  130 1    
   104   52   53 am   BACKBONE|DICT|INTERRES
   105   52  131 1    
   106   53   54 2    
   107   53   55 1    
   108   55   56 1    
   109   55   59 1    
   110   55  132 1    
   111   56   57 1    
   112   56  133 1    
   113   56  134 1    
   114   57   58 1    
   115   58  135 1    
   116   58  136 1    
   117   59   60 am   BACKBONE|DICT|INTERRES
   118   59  137 1    
   119   60   61 2    
   120   60   62 1    
   121   62   63 1    
   122   62   64 1    
   123   62  138 1    
   124   63  139 1    
   125   63  140 1    
   126   63  141 1    
   127   64   65 am   BACKBONE|DICT|INTERRES
   128   64  142 1    
   129   65   66 2    
   130   65   67 1    
   131   67   68 1    
   132   67   69 1    
   133   67  143 1    
   134   68  144 1    
   135   68  145 1    
   136   68  146 1    
   137   69   70 am   BACKBONE|DICT|INTERRES
   138   69  147 1    
   139   70   71 2    
   140   70   72 1    
   141   72   73 1    
   142   72   74 1    
   143   72  148 1    
   144   73  149 1    
   145   73  150 1    
   146   73  151 1    
   147   74   75 am   BACKBONE|DICT|INTERRES
   148   74  152 1    
   149   75   76 2    
   150   75   77 1    
   151   77   78 1    
   152   77   79 1    
   153   77  153 1    
   154   78  154 1    
   155   78  155 1    
   156   78  156 1    
   157   79   80 am   BACKBONE|DICT|INTERRES
   158   79  157 1    
   159   80   81 2    
@<TRIPOS>SUBSTRUCTURE
     1 UNK         1 GROUP             0       ****    0 ROOT    
