@<TRIPOS>MOLECULE
3R207
157   159    1
SMALL
USER_CHARGES


@<TRIPOS>ATOM
      1 CA        -51.9208  -29.9232    2.3410 C.3       0 UNK        -0.1975 
      2 C         -50.9678  -29.3674    3.3884 C.2       0 UNK         0.4852 
      3 O         -49.7569  -29.3456    3.1610 O.2       0 UNK        -0.5216 
      4 N         -51.5067  -28.9090    4.5275 N.am      1 UNK        -0.4461 
      5 CA        -50.8087  -28.3352    5.6870 C.3       1 UNK         0.0864 
      6 C6        -49.7850  -29.3171    6.3298 C.3       14 UNK        -0.0898 
      7 S7        -49.1663  -28.8030    7.9698 S.3       14 UNK        -0.2598 
      8 C8        -50.3301  -29.6334    9.1059 C.3       14 UNK         0.0286 
      9 C9        -51.7435  -29.1041    8.9222 C.ar      14 UNK        -0.0844 
     10 C10       -52.0218  -27.7655    9.2016 C.ar      14 UNK        -0.0881 
     11 C11       -53.2724  -27.2154    8.9077 C.ar      14 UNK        -0.0643 
     12 C12       -54.2669  -28.0430    8.3696 C.ar      14 UNK        -0.0930 
     13 C13       -54.0101  -29.3945    8.1106 C.ar      14 UNK        -0.0827 
     14 C14       -52.7447  -29.9184    8.3901 C.ar      14 UNK        -0.1249 
     15 C15       -55.0656  -30.2739    7.4496 C.3       14 UNK         0.0141 
     16 S16       -56.3367  -30.8718    8.6097 S.3       14 UNK        -0.2313 
     17 C17       -55.3593  -31.8712    9.7882 C.3       14 UNK        -0.0915 
     18 CA        -55.4839  -31.3573   11.2462 C.3       13 UNK         0.0968 
     19 C         -54.6046  -32.1932   12.2137 C.2       13 UNK         0.5732 
     20 N         -55.1072  -33.3276   12.6821 N.am      13 UNK        -0.7310 
     21 O         -53.4624  -31.8479   12.5109 O.2       13 UNK        -0.5035 
     22 N         -55.2202  -29.9161   11.3382 N.am      13 UNK        -0.4233 
     23 C         -55.6085  -29.1378   12.3517 C.2       13 UNK         0.4989 
     24 O         -56.1932  -29.5494   13.3577 O.2       13 UNK        -0.4996 
     25 CA        -55.3739  -27.6339   12.1581 C.3       12 UNK         0.0216 
     26 CB        -56.4326  -27.0466   11.2072 C.3       12 UNK        -0.1964 
     27 N         -55.4488  -26.9191   13.4307 N.am      12 UNK        -0.4276 
     28 C         -54.4216  -26.7434   14.2659 C.2       12 UNK         0.5020 
     29 O         -53.2663  -27.1125   14.0403 O.2       12 UNK        -0.5489 
     30 CA        -54.7510  -26.0610   15.5964 C.3       11 UNK         0.0294 
     31 CB        -55.1267  -27.1110   16.6607 C.3       11 UNK        -0.2019 
     32 N         -53.5829  -25.2981   16.0177 N.am      11 UNK        -0.4493 
     33 C         -53.5423  -24.3804   16.9900 C.2       11 UNK         0.4932 
     34 O         -54.5292  -24.0312   17.6405 O.2       11 UNK        -0.5029 
     35 CA        -52.1654  -23.7489   17.2793 C.3       10 UNK         0.0280 
     36 CB        -52.0751  -23.0987   18.6759 C.3       10 UNK        -0.1976 
     37 N         -51.0570  -24.6849   17.0600 N.am      10 UNK        -0.4242 
     38 C         -50.8179  -25.8440   17.6937 C.2       10 UNK         0.5072 
     39 O         -51.4814  -26.2667   18.6414 O.2       10 UNK        -0.5224 
     40 CA        -49.6508  -26.6963   17.1639 C.3       9 UNK         0.0343 
     41 CB        -50.1898  -27.8310   16.2776 C.3       9 UNK        -0.2003 
     42 N         -48.6707  -25.9135   16.4048 N.am      9 UNK        -0.4272 
     43 C         -47.7589  -25.1049   16.9654 C.2       9 UNK         0.4988 
     44 O         -47.5899  -25.0020   18.1810 O.2       9 UNK        -0.5108 
     45 CA        -46.9100  -24.2437   16.0142 C.3       8 UNK         0.0248 
     46 CB        -45.7648  -25.0684   15.4075 C.3       8 UNK        -0.2001 
     47 N         -47.7002  -23.6199   14.9479 N.am      8 UNK        -0.4140 
     48 C         -48.6584  -22.7027   15.1514 C.2       8 UNK         0.5028 
     49 O         -48.9760  -22.2745   16.2605 O.2       8 UNK        -0.5428 
     50 CA        -49.4074  -22.1862   13.9153 C.3       7 UNK         0.0264 
     51 CB        -48.6319  -21.0395   13.2468 C.3       7 UNK        -0.1988 
     52 N         -49.6548  -23.2459   12.9390 N.am      7 UNK        -0.4454 
     53 C         -50.6027  -24.1871   13.0616 C.2       7 UNK         0.5027 
     54 O         -51.3754  -24.2582   14.0179 O.2       7 UNK        -0.5083 
     55 CA        -50.6681  -25.2361   11.9287 C.3       6 UNK         0.0844 
     56 C56       -51.4138  -24.6606   10.6892 C.3       14 UNK        -0.0967 
     57 S57       -53.1974  -25.0543   10.7282 S.3       14 UNK        -0.2604 
     58 C58       -53.5200  -25.7148    9.0569 C.3       14 UNK         0.0134 
     59 N         -49.3383  -25.7600   11.5889 N.am      6 UNK        -0.4116 
     60 C         -48.5142  -26.3805   12.4498 C.2       5 UNK         0.5034 
     61 O         -48.7977  -26.6287   13.6206 O.2       5 UNK        -0.5045 
     62 CA        -47.1033  -26.7313   11.9468 C.3       5 UNK         0.0224 
     63 CB        -47.0857  -28.1369   11.3282 C.3       5 UNK        -0.1978 
     64 N         -46.5482  -25.7724   10.9885 N.am      5 UNK        -0.4737 
     65 C         -46.4361  -24.4467   11.1585 C.2       4 UNK         0.5027 
     66 O         -46.7810  -23.8656   12.1881 O.2       4 UNK        -0.5211 
     67 CA        -45.8670  -23.6225    9.9853 C.3       4 UNK         0.0297 
     68 CB        -44.5612  -22.9271   10.4038 C.3       4 UNK        -0.1993 
     69 N         -45.6274  -24.3945    8.7578 N.am      4 UNK        -0.4486 
     70 C         -46.5752  -24.9427    7.9850 C.2       3 UNK         0.4961 
     71 O         -47.7829  -24.8530    8.2169 O.2       3 UNK        -0.5105 
     72 CA        -46.0617  -25.8010    6.8157 C.3       3 UNK         0.0299 
     73 CB        -45.5432  -27.1549    7.3324 C.3       3 UNK        -0.1972 
     74 N         -47.0955  -26.0516    5.8126 N.am      3 UNK        -0.4305 
     75 C         -47.5571  -25.1495    4.9361 C.2       2 UNK         0.5006 
     76 O         -47.1168  -24.0025    4.8411 O.2       2 UNK        -0.5106 
     77 CA        -48.6769  -25.6014    3.9782 C.3       2 UNK         0.0296 
     78 CB        -48.1235  -25.7987    2.5569 C.3       2 UNK        -0.2002 
     79 N         -49.3508  -26.8341    4.3960 N.am      2 UNK        -0.4032 
     80 C         -50.2283  -26.9331    5.4022 C.2       1 UNK         0.5000 
     81 O         -50.6035  -25.9711    6.0740 O.2       1 UNK        -0.5238 
     82 H82       -51.8374  -29.3509    1.4174 H         1 UNK         0.0889 
     83 H83       -52.9587  -29.8857    2.6713 H         1 UNK         0.0889 
     84 H84       -51.6721  -30.9613    2.1223 H         1 UNK         0.0889 
     85 H85       -52.5126  -28.9346    4.6226 H         1 UNK         0.3028 
     86 H86       -51.6047  -28.1718    6.4114 H         1 UNK         0.0864 
     87 H87       -50.2373  -30.3048    6.4309 H         1 UNK         0.0720 
     88 H88       -48.9209  -29.4561    5.6787 H         1 UNK         0.0720 
     89 H89       -50.0120  -29.4594   10.1348 H         1 UNK         0.0814 
     90 H90       -50.2877  -30.7120    8.9467 H         1 UNK         0.0814 
     91 H91       -51.2274  -27.1478    9.5860 H         1 UNK         0.1469 
     92 H92       -55.2319  -27.6285    8.1117 H         1 UNK         0.1381 
     93 H93       -52.5246  -30.9501    8.1522 H         1 UNK         0.1206 
     94 H94       -54.5994  -31.1319    6.9624 H         1 UNK         0.0813 
     95 H95       -55.5572  -29.7106    6.6552 H         1 UNK         0.0813 
     96 H96       -55.7168  -32.9002    9.7226 H         1 UNK         0.0638 
     97 H97       -54.3151  -31.9011    9.4776 H         1 UNK         0.0638 
     98 H98       -56.5229  -31.5037   11.5492 H         1 UNK         0.0568 
     99 H99       -56.0375  -33.6281   12.4360 H         1 UNK         0.3450 
    100 H100      -54.5458  -33.8924   13.2999 H         1 UNK         0.3450 
    101 H101      -54.7402  -29.5084   10.5482 H         1 UNK         0.2987 
    102 H102      -54.3837  -27.4998   11.7189 H         1 UNK         0.0766 
    103 H103      -56.2443  -25.9911   11.0106 H         1 UNK         0.0798 
    104 H104      -57.4394  -27.1380   11.6166 H         1 UNK         0.0798 
    105 H105      -56.4304  -27.5585   10.2449 H         1 UNK         0.0798 
    106 H106      -56.3723  -26.6427   13.7313 H         1 UNK         0.3198 
    107 H107      -55.5838  -25.3702   15.4480 H         1 UNK         0.0843 
    108 H108      -54.2929  -27.7829   16.8692 H         1 UNK         0.0831 
    109 H109      -55.9650  -27.7246   16.3278 H         1 UNK         0.0831 
    110 H110      -55.4226  -26.6447   17.6003 H         1 UNK         0.0831 
    111 H111      -52.7474  -25.4797   15.4690 H         1 UNK         0.3133 
    112 H112      -52.0360  -22.9569   16.5403 H         1 UNK         0.0566 
    113 H113      -51.0926  -22.6565   18.8421 H         1 UNK         0.0814 
    114 H114      -52.8109  -22.3010   18.7839 H         1 UNK         0.0814 
    115 H115      -52.2592  -23.8201   19.4724 H         1 UNK         0.0814 
    116 H116      -50.4579  -24.4542   16.2790 H         1 UNK         0.3091 
    117 H117      -49.1489  -27.1448   18.0240 H         1 UNK         0.0702 
    118 H118      -50.8837  -28.4646   16.8316 H         1 UNK         0.0785 
    119 H119      -49.3842  -28.4695   15.9148 H         1 UNK         0.0785 
    120 H120      -50.7265  -27.4441   15.4097 H         1 UNK         0.0785 
    121 H121      -48.7145  -25.9944   15.3908 H         1 UNK         0.2998 
    122 H122      -46.4673  -23.4366   16.6017 H         1 UNK         0.0697 
    123 H123      -46.1364  -25.9537   14.8944 H         1 UNK         0.0825 
    124 H124      -45.0821  -25.4115   16.1859 H         1 UNK         0.0825 
    125 H125      -45.1806  -24.4836   14.6964 H         1 UNK         0.0825 
    126 H126      -47.4625  -23.8637   13.9895 H         1 UNK         0.3029 
    127 H127      -50.3706  -21.7939   14.2503 H         1 UNK         0.0897 
    128 H128      -49.1848  -20.6258   12.4033 H         1 UNK         0.0792 
    129 H129      -47.6569  -21.3651   12.8819 H         1 UNK         0.0792 
    130 H130      -48.4598  -20.2245   13.9513 H         1 UNK         0.0792 
    131 H131      -49.0002  -23.3096   12.1708 H         1 UNK         0.3086 
    132 H132      -51.2280  -26.0912   12.3150 H         1 UNK         0.0583 
    133 H133      -51.3059  -23.5765   10.6111 H         1 UNK         0.1020 
    134 H134      -50.9825  -25.0322    9.7601 H         1 UNK         0.1020 
    135 H135      -54.5581  -25.4855    8.8120 H         1 UNK         0.0694 
    136 H136      -52.9152  -25.1778    8.3247 H         1 UNK         0.0694 
    137 H137      -48.9989  -25.5842   10.6535 H         1 UNK         0.2989 
    138 H138      -46.4406  -26.7386   12.8120 H         1 UNK         0.1055 
    139 H139      -47.6847  -28.1826   10.4196 H         1 UNK         0.0806 
    140 H140      -47.4885  -28.8759   12.0226 H         1 UNK         0.0806 
    141 H141      -46.0718  -28.4496   11.0777 H         1 UNK         0.0806 
    142 H142      -46.2415  -26.1488   10.1044 H         1 UNK         0.3061 
    143 H143      -46.6052  -22.8513    9.7559 H         1 UNK         0.0734 
    144 H144      -44.1875  -22.2734    9.6155 H         1 UNK         0.0832 
    145 H145      -44.7141  -22.3063   11.2881 H         1 UNK         0.0832 
    146 H146      -43.7788  -23.6478   10.6449 H         1 UNK         0.0832 
    147 H147      -44.6597  -24.5346    8.5023 H         1 UNK         0.3156 
    148 H148      -45.2376  -25.2708    6.3336 H         1 UNK         0.0589 
    149 H149      -46.3215  -27.7156    7.8514 H         1 UNK         0.0808 
    150 H150      -45.1735  -27.7757    6.5160 H         1 UNK         0.0808 
    151 H151      -44.7161  -27.0238    8.0313 H         1 UNK         0.0808 
    152 H152      -47.5498  -26.9515    5.8484 H         1 UNK         0.3098 
    153 H153      -49.4187  -24.8005    3.9475 H         1 UNK         0.0720 
    154 H154      -47.3811  -26.5970    2.5208 H         1 UNK         0.0791 
    155 H155      -47.6433  -24.8891    2.1934 H         1 UNK         0.0791 
    156 H156      -48.9180  -26.0473    1.8528 H         1 UNK         0.0791 
    157 H157      -49.1642  -27.6788    3.8601 H         1 UNK         0.3028 
@<TRIPOS>BOND
     1    1    2 1    
     2    1   82 1    
     3    1   83 1    
     4    1   84 1    
     5    2    3 2    
     6    2    4 am   BACKBONE|DICT|INTERRES
     7    4    5 1    
     8    4   85 1    
     9    5    6 1    
    10    5   80 1    
    11    5   86 1    
    12    6    7 1    
    13    6   87 1    
    14    6   88 1    
    15    7    8 1    
    16    8    9 1    
    17    8   89 1    
    18    8   90 1    
    19    9   10 ar   
    20    9   14 ar   
    21   10   11 ar   
    22   10   91 1    
    23   11   12 ar   
    24   11   58 1    
    25   12   13 ar   
    26   12   92 1    
    27   13   14 ar   
    28   13   15 1    
    29   14   93 1    
    30   15   16 1    
    31   15   94 1    
    32   15   95 1    
    33   16   17 1    
    34   17   18 1    
    35   17   96 1    
    36   17   97 1    
    37   18   19 1    
    38   18   22 1    
    39   18   98 1    
    40   19   20 am   BACKBONE|DICT|INTERRES
    41   19   21 2    
    42   20   99 1    
    43   20  100 1    
    44   22   23 am   BACKBONE|DICT|INTERRES
    45   22  101 1    
    46   23   24 2    
    47   23   25 1    
    48   25   26 1    
    49   25   27 1    
    50   25  102 1    
    51   26  103 1    
    52   26  104 1    
    53   26  105 1    
    54   27   28 am   BACKBONE|DICT|INTERRES
    55   27  106 1    
    56   28   29 2    
    57   28   30 1    
    58   30   31 1    
    59   30   32 1    
    60   30  107 1    
    61   31  108 1    
    62   31  109 1    
    63   31  110 1    
    64   32   33 am   BACKBONE|DICT|INTERRES
    65   32  111 1    
    66   33   34 2    
    67   33   35 1    
    68   35   36 1    
    69   35   37 1    
    70   35  112 1    
    71   36  113 1    
    72   36  114 1    
    73   36  115 1    
    74   37   38 am   BACKBONE|DICT|INTERRES
    75   37  116 1    
    76   38   39 2    
    77   38   40 1    
    78   40   41 1    
    79   40   42 1    
    80   40  117 1    
    81   41  118 1    
    82   41  119 1    
    83   41  120 1    
    84   42   43 am   BACKBONE|DICT|INTERRES
    85   42  121 1    
    86   43   44 2    
    87   43   45 1    
    88   45   46 1    
    89   45   47 1    
    90   45  122 1    
    91   46  123 1    
    92   46  124 1    
    93   46  125 1    
    94   47   48 am   BACKBONE|DICT|INTERRES
    95   47  126 1    
    96   48   49 2    
    97   48   50 1    
    98   50   51 1    
    99   50   52 1    
   100   50  127 1    
   101   51  128 1    
   102   51  129 1    
   103   51  130 1    
   104   52   53 am   BACKBONE|DICT|INTERRES
   105   52  131 1    
   106   53   54 2    
   107   53   55 1    
   108   55   56 1    
   109   55   59 1    
   110   55  132 1    
   111   56   57 1    
   112   56  133 1    
   113   56  134 1    
   114   57   58 1    
   115   58  135 1    
   116   58  136 1    
   117   59   60 am   BACKBONE|DICT|INTERRES
   118   59  137 1    
   119   60   61 2    
   120   60   62 1    
   121   62   63 1    
   122   62   64 1    
   123   62  138 1    
   124   63  139 1    
   125   63  140 1    
   126   63  141 1    
   127   64   65 am   BACKBONE|DICT|INTERRES
   128   64  142 1    
   129   65   66 2    
   130   65   67 1    
   131   67   68 1    
   132   67   69 1    
   133   67  143 1    
   134   68  144 1    
   135   68  145 1    
   136   68  146 1    
   137   69   70 am   BACKBONE|DICT|INTERRES
   138   69  147 1    
   139   70   71 2    
   140   70   72 1    
   141   72   73 1    
   142   72   74 1    
   143   72  148 1    
   144   73  149 1    
   145   73  150 1    
   146   73  151 1    
   147   74   75 am   BACKBONE|DICT|INTERRES
   148   74  152 1    
   149   75   76 2    
   150   75   77 1    
   151   77   78 1    
   152   77   79 1    
   153   77  153 1    
   154   78  154 1    
   155   78  155 1    
   156   78  156 1    
   157   79   80 am   BACKBONE|DICT|INTERRES
   158   79  157 1    
   159   80   81 2    
@<TRIPOS>SUBSTRUCTURE
     1 UNK         1 GROUP             0       ****    0 ROOT    
