@<TRIPOS>MOLECULE
3R207
157   159    1
SMALL
USER_CHARGES


@<TRIPOS>ATOM
      1 CA        -46.9953  -32.1777    3.1823 C.3       0 UNK        -0.1975 
      2 C         -47.3354  -30.7047    3.0131 C.2       0 UNK         0.4852 
      3 O         -46.4831  -29.9246    2.5869 O.2       0 UNK        -0.5216 
      4 N         -48.5744  -30.3179    3.3453 N.am      1 UNK        -0.4461 
      5 CA        -49.0814  -28.9416    3.2635 C.3       1 UNK         0.0864 
      6 C6        -50.6325  -28.8920    3.2549 C.3       14 UNK        -0.0898 
      7 S7        -51.4229  -29.8375    4.6041 S.3       14 UNK        -0.2598 
      8 C8        -52.0037  -28.5002    5.6897 C.3       14 UNK         0.0286 
      9 C9        -52.5579  -29.0600    6.9894 C.ar      14 UNK        -0.0844 
     10 C10       -51.6810  -29.5524    7.9581 C.ar      14 UNK        -0.0881 
     11 C11       -52.1678  -30.0894    9.1537 C.ar      14 UNK        -0.0643 
     12 C12       -53.5482  -30.1477    9.3641 C.ar      14 UNK        -0.0930 
     13 C13       -54.4395  -29.6358    8.4144 C.ar      14 UNK        -0.0827 
     14 C14       -53.9357  -29.0951    7.2260 C.ar      14 UNK        -0.1249 
     15 C15       -55.9474  -29.6890    8.6500 C.3       14 UNK         0.0141 
     16 S16       -56.4607  -29.0678   10.2900 S.3       14 UNK        -0.2313 
     17 C17       -55.8730  -27.3426   10.2422 C.3       14 UNK        -0.0915 
     18 CA        -54.5709  -27.1490   11.0612 C.3       13 UNK         0.0968 
     19 C         -53.9385  -25.7652   10.7833 C.2       13 UNK         0.5732 
     20 N         -53.1603  -25.6556    9.7171 N.am      13 UNK        -0.7310 
     21 O         -54.1580  -24.7961   11.5074 O.2       13 UNK        -0.5035 
     22 N         -54.7879  -27.3189   12.5018 N.am      13 UNK        -0.4233 
     23 C         -54.2464  -28.2656   13.2736 C.2       13 UNK         0.4989 
     24 O         -53.6152  -29.2279   12.8357 O.2       13 UNK        -0.4996 
     25 CA        -54.4296  -28.0998   14.7965 C.3       12 UNK         0.0216 
     26 CB        -53.6189  -29.1309   15.6031 C.3       12 UNK        -0.1964 
     27 N         -54.0646  -26.7549   15.2550 N.am      12 UNK        -0.4276 
     28 C         -54.8470  -25.6708   15.1707 C.2       12 UNK         0.5020 
     29 O         -55.9714  -25.6998   14.6658 O.2       12 UNK        -0.5489 
     30 CA        -54.2852  -24.3323   15.6919 C.3       11 UNK         0.0294 
     31 CB        -55.3954  -23.3720   16.1710 C.3       11 UNK        -0.2019 
     32 N         -53.2336  -24.4642   16.7095 N.am      11 UNK        -0.4493 
     33 C         -53.3590  -25.0077   17.9300 C.2       11 UNK         0.4932 
     34 O         -54.4014  -25.5146   18.3484 O.2       11 UNK        -0.5029 
     35 CA        -52.1149  -24.9587   18.8412 C.3       10 UNK         0.0280 
     36 CB        -52.2689  -25.8283   20.1072 C.3       10 UNK        -0.1976 
     37 N         -50.8557  -25.2804   18.1598 N.am      10 UNK        -0.4242 
     38 C         -50.5440  -26.3994   17.4909 C.2       10 UNK         0.5072 
     39 O         -51.3412  -27.3150   17.2833 O.2       10 UNK        -0.5224 
     40 CA        -49.0869  -26.5106   16.9880 C.3       9 UNK         0.0343 
     41 CB        -48.8154  -27.8377   16.2558 C.3       9 UNK        -0.2003 
     42 N         -48.7093  -25.4003   16.1103 N.am      9 UNK        -0.4272 
     43 C         -48.4637  -24.1403   16.4950 C.2       9 UNK         0.4988 
     44 O         -48.4430  -23.7803   17.6732 O.2       9 UNK        -0.5108 
     45 CA        -48.2792  -23.0919   15.3835 C.3       8 UNK         0.0248 
     46 CB        -46.8110  -23.0201   14.9358 C.3       8 UNK        -0.2001 
     47 N         -49.1478  -23.3260   14.2243 N.am      8 UNK        -0.4140 
     48 C         -50.4898  -23.3345   14.2718 C.2       8 UNK         0.5028 
     49 O         -51.1427  -23.0922   15.2885 O.2       8 UNK        -0.5428 
     50 CA        -51.2297  -23.7189   12.9819 C.3       7 UNK         0.0264 
     51 CB        -51.2747  -22.5371   12.0017 C.3       7 UNK        -0.1988 
     52 N         -50.6510  -24.8999   12.3386 N.am      7 UNK        -0.4454 
     53 C         -50.6716  -26.1328   12.8688 C.2       7 UNK         0.5027 
     54 O         -51.2686  -26.4095   13.9088 O.2       7 UNK        -0.5083 
     55 CA        -49.8506  -27.2338   12.1628 C.3       6 UNK         0.0844 
     56 C56       -50.6832  -27.9988   11.1150 C.3       14 UNK        -0.0967 
     57 S57       -49.8159  -29.5011   10.5489 S.3       14 UNK        -0.2604 
     58 C58       -51.2138  -30.6226   10.2168 C.3       14 UNK         0.0134 
     59 N         -48.6053  -26.7173   11.5924 N.am      6 UNK        -0.4116 
     60 C         -47.5825  -26.2467   12.3159 C.2       5 UNK         0.5034 
     61 O         -47.5650  -26.2190   13.5456 O.2       5 UNK        -0.5045 
     62 CA        -46.4000  -25.6652   11.5303 C.3       5 UNK         0.0224 
     63 CB        -45.4873  -26.7843   11.0046 C.3       5 UNK        -0.1978 
     64 N         -46.8501  -24.8236   10.4197 N.am      5 UNK        -0.4737 
     65 C         -47.4466  -23.6334   10.5747 C.2       4 UNK         0.5027 
     66 O         -47.6552  -23.1108   11.6695 O.2       4 UNK        -0.5211 
     67 CA        -47.9211  -22.9268    9.2942 C.3       4 UNK         0.0297 
     68 CB        -46.7566  -22.1827    8.6219 C.3       4 UNK        -0.1993 
     69 N         -48.5407  -23.8456    8.3352 N.am      4 UNK        -0.4486 
     70 C         -49.6919  -24.4956    8.5552 C.2       3 UNK         0.4961 
     71 O         -50.3599  -24.3766    9.5785 O.2       3 UNK        -0.5105 
     72 CA        -50.1718  -25.4694    7.4705 C.3       3 UNK         0.0299 
     73 CB        -50.9994  -24.7269    6.4099 C.3       3 UNK        -0.1972 
     74 N         -49.0951  -26.2190    6.8213 N.am      3 UNK        -0.4305 
     75 C         -48.2265  -27.0339    7.4333 C.2       2 UNK         0.5006 
     76 O         -48.1648  -27.1612    8.6578 O.2       2 UNK        -0.5106 
     77 CA        -47.2708  -27.8312    6.5196 C.3       2 UNK         0.0296 
     78 CB        -46.4154  -28.8413    7.3071 C.3       2 UNK        -0.2002 
     79 N         -47.9578  -28.5448    5.4344 N.am      2 UNK        -0.4032 
     80 C         -48.4770  -27.9951    4.3251 C.2       1 UNK         0.5000 
     81 O         -48.4947  -26.7791    4.1216 O.2       1 UNK        -0.5238 
     82 H82       -46.1562  -32.2925    3.8674 H         1 UNK         0.0889 
     83 H83       -46.7135  -32.6095    2.2228 H         1 UNK         0.0889 
     84 H84       -47.8360  -32.7482    3.5767 H         1 UNK         0.0889 
     85 H85       -49.2404  -30.9995    3.6838 H         1 UNK         0.3028 
     86 H86       -48.7513  -28.5409    2.3023 H         1 UNK         0.0864 
     87 H87       -50.9927  -29.3174    2.3169 H         1 UNK         0.0720 
     88 H88       -50.9934  -27.8614    3.2564 H         1 UNK         0.0720 
     89 H89       -52.7571  -27.9082    5.1688 H         1 UNK         0.0814 
     90 H90       -51.1751  -27.8300    5.9103 H         1 UNK         0.0814 
     91 H91       -50.6150  -29.5211    7.7781 H         1 UNK         0.1469 
     92 H92       -53.9321  -30.5700   10.2831 H         1 UNK         0.1381 
     93 H93       -54.6164  -28.7129    6.4775 H         1 UNK         0.1206 
     94 H94       -56.2776  -30.7235    8.5506 H         1 UNK         0.0813 
     95 H95       -56.4790  -29.1232    7.8833 H         1 UNK         0.0813 
     96 H96       -56.6649  -26.6959   10.6239 H         1 UNK         0.0638 
     97 H97       -55.7241  -27.0558    9.1995 H         1 UNK         0.0638 
     98 H98       -53.8417  -27.8835   10.7242 H         1 UNK         0.0568 
     99 H99       -53.0194  -26.4351    9.0957 H         1 UNK         0.3450 
    100 H100      -52.6907  -24.7796    9.5447 H         1 UNK         0.3450 
    101 H101      -55.2687  -26.5532   12.9626 H         1 UNK         0.2987 
    102 H102      -55.4866  -28.2698   15.0115 H         1 UNK         0.0766 
    103 H103      -53.7754  -29.0086   16.6750 H         1 UNK         0.0798 
    104 H104      -52.5491  -29.0363   15.4103 H         1 UNK         0.0798 
    105 H105      -53.9105  -30.1500   15.3464 H         1 UNK         0.0798 
    106 H106      -53.1245  -26.6463   15.6183 H         1 UNK         0.3198 
    107 H107      -53.8127  -23.8591   14.8332 H         1 UNK         0.0843 
    108 H108      -54.9801  -22.4253   16.5163 H         1 UNK         0.0831 
    109 H109      -55.9795  -23.8013   16.9854 H         1 UNK         0.0831 
    110 H110      -56.0898  -23.1418   15.3620 H         1 UNK         0.0831 
    111 H111      -52.3339  -24.0706   16.4380 H         1 UNK         0.3133 
    112 H112      -52.0237  -23.9215   19.1660 H         1 UNK         0.0566 
    113 H113      -51.3964  -25.7454   20.7550 H         1 UNK         0.0814 
    114 H114      -53.1352  -25.5194   20.6934 H         1 UNK         0.0814 
    115 H115      -52.4031  -26.8815   19.8581 H         1 UNK         0.0814 
    116 H116      -50.1222  -24.5790   18.2259 H         1 UNK         0.3091 
    117 H117      -48.4425  -26.4834   17.8690 H         1 UNK         0.0702 
    118 H118      -47.7763  -27.9100   15.9343 H         1 UNK         0.0785 
    119 H119      -49.4469  -27.9443   15.3736 H         1 UNK         0.0785 
    120 H120      -49.0152  -28.6910   16.9050 H         1 UNK         0.0785 
    121 H121      -48.6497  -25.6145   15.1198 H         1 UNK         0.2998 
    122 H122      -48.5526  -22.1212   15.8019 H         1 UNK         0.0697 
    123 H123      -46.6590  -22.2298   14.2005 H         1 UNK         0.0825 
    124 H124      -46.1556  -22.8070   15.7813 H         1 UNK         0.0825 
    125 H125      -46.4760  -23.9574   14.4921 H         1 UNK         0.0825 
    126 H126      -48.6869  -23.4822   13.3319 H         1 UNK         0.3029 
    127 H127      -52.2567  -23.9672   13.2469 H         1 UNK         0.0897 
    128 H128      -51.9041  -22.7653   11.1414 H         1 UNK         0.0792 
    129 H129      -51.6917  -21.6494   12.4789 H         1 UNK         0.0792 
    130 H130      -50.2829  -22.2764   11.6322 H         1 UNK         0.0792 
    131 H131      -50.2341  -24.7566   11.4219 H         1 UNK         0.3086 
    132 H132      -49.5719  -27.9485   12.9401 H         1 UNK         0.0583 
    133 H133      -51.6418  -28.2936   11.5385 H         1 UNK         0.1020 
    134 H134      -50.9022  -27.3683   10.2519 H         1 UNK         0.1020 
    135 H135      -50.8224  -31.5851    9.8859 H         1 UNK         0.0694 
    136 H136      -51.7419  -30.8060   11.1541 H         1 UNK         0.0694 
    137 H137      -48.5171  -26.7537   10.5807 H         1 UNK         0.2989 
    138 H138      -45.8193  -25.0433   12.2155 H         1 UNK         0.1055 
    139 H139      -45.1022  -27.3882   11.8273 H         1 UNK         0.0806 
    140 H140      -44.6277  -26.3794   10.4704 H         1 UNK         0.0806 
    141 H141      -46.0174  -27.4571   10.3301 H         1 UNK         0.0806 
    142 H142      -46.7779  -25.2127    9.4904 H         1 UNK         0.3061 
    143 H143      -48.6728  -22.1894    9.5843 H         1 UNK         0.0734 
    144 H144      -47.0973  -21.6074    7.7609 H         1 UNK         0.0832 
    145 H145      -46.2931  -21.4796    9.3156 H         1 UNK         0.0832 
    146 H146      -45.9775  -22.8667    8.2832 H         1 UNK         0.0832 
    147 H147      -48.0572  -24.0056    7.4636 H         1 UNK         0.3156 
    148 H148      -50.8200  -26.2015    7.9557 H         1 UNK         0.0589 
    149 H149      -50.3972  -23.9989    5.8651 H         1 UNK         0.0808 
    150 H150      -51.4304  -25.4137    5.6820 H         1 UNK         0.0808 
    151 H151      -51.8275  -24.1860    6.8702 H         1 UNK         0.0808 
    152 H152      -49.0387  -26.1702    5.8064 H         1 UNK         0.3098 
    153 H153      -46.5912  -27.1056    6.0681 H         1 UNK         0.0720 
    154 H154      -47.0340  -29.5764    7.8239 H         1 UNK         0.0791 
    155 H155      -45.8096  -28.3372    8.0605 H         1 UNK         0.0791 
    156 H156      -45.7285  -29.3782    6.6525 H         1 UNK         0.0791 
    157 H157      -48.0204  -29.5478    5.5284 H         1 UNK         0.3028 
@<TRIPOS>BOND
     1    1    2 1    
     2    1   82 1    
     3    1   83 1    
     4    1   84 1    
     5    2    3 2    
     6    2    4 am   BACKBONE|DICT|INTERRES
     7    4    5 1    
     8    4   85 1    
     9    5    6 1    
    10    5   80 1    
    11    5   86 1    
    12    6    7 1    
    13    6   87 1    
    14    6   88 1    
    15    7    8 1    
    16    8    9 1    
    17    8   89 1    
    18    8   90 1    
    19    9   10 ar   
    20    9   14 ar   
    21   10   11 ar   
    22   10   91 1    
    23   11   12 ar   
    24   11   58 1    
    25   12   13 ar   
    26   12   92 1    
    27   13   14 ar   
    28   13   15 1    
    29   14   93 1    
    30   15   16 1    
    31   15   94 1    
    32   15   95 1    
    33   16   17 1    
    34   17   18 1    
    35   17   96 1    
    36   17   97 1    
    37   18   19 1    
    38   18   22 1    
    39   18   98 1    
    40   19   20 am   BACKBONE|DICT|INTERRES
    41   19   21 2    
    42   20   99 1    
    43   20  100 1    
    44   22   23 am   BACKBONE|DICT|INTERRES
    45   22  101 1    
    46   23   24 2    
    47   23   25 1    
    48   25   26 1    
    49   25   27 1    
    50   25  102 1    
    51   26  103 1    
    52   26  104 1    
    53   26  105 1    
    54   27   28 am   BACKBONE|DICT|INTERRES
    55   27  106 1    
    56   28   29 2    
    57   28   30 1    
    58   30   31 1    
    59   30   32 1    
    60   30  107 1    
    61   31  108 1    
    62   31  109 1    
    63   31  110 1    
    64   32   33 am   BACKBONE|DICT|INTERRES
    65   32  111 1    
    66   33   34 2    
    67   33   35 1    
    68   35   36 1    
    69   35   37 1    
    70   35  112 1    
    71   36  113 1    
    72   36  114 1    
    73   36  115 1    
    74   37   38 am   BACKBONE|DICT|INTERRES
    75   37  116 1    
    76   38   39 2    
    77   38   40 1    
    78   40   41 1    
    79   40   42 1    
    80   40  117 1    
    81   41  118 1    
    82   41  119 1    
    83   41  120 1    
    84   42   43 am   BACKBONE|DICT|INTERRES
    85   42  121 1    
    86   43   44 2    
    87   43   45 1    
    88   45   46 1    
    89   45   47 1    
    90   45  122 1    
    91   46  123 1    
    92   46  124 1    
    93   46  125 1    
    94   47   48 am   BACKBONE|DICT|INTERRES
    95   47  126 1    
    96   48   49 2    
    97   48   50 1    
    98   50   51 1    
    99   50   52 1    
   100   50  127 1    
   101   51  128 1    
   102   51  129 1    
   103   51  130 1    
   104   52   53 am   BACKBONE|DICT|INTERRES
   105   52  131 1    
   106   53   54 2    
   107   53   55 1    
   108   55   56 1    
   109   55   59 1    
   110   55  132 1    
   111   56   57 1    
   112   56  133 1    
   113   56  134 1    
   114   57   58 1    
   115   58  135 1    
   116   58  136 1    
   117   59   60 am   BACKBONE|DICT|INTERRES
   118   59  137 1    
   119   60   61 2    
   120   60   62 1    
   121   62   63 1    
   122   62   64 1    
   123   62  138 1    
   124   63  139 1    
   125   63  140 1    
   126   63  141 1    
   127   64   65 am   BACKBONE|DICT|INTERRES
   128   64  142 1    
   129   65   66 2    
   130   65   67 1    
   131   67   68 1    
   132   67   69 1    
   133   67  143 1    
   134   68  144 1    
   135   68  145 1    
   136   68  146 1    
   137   69   70 am   BACKBONE|DICT|INTERRES
   138   69  147 1    
   139   70   71 2    
   140   70   72 1    
   141   72   73 1    
   142   72   74 1    
   143   72  148 1    
   144   73  149 1    
   145   73  150 1    
   146   73  151 1    
   147   74   75 am   BACKBONE|DICT|INTERRES
   148   74  152 1    
   149   75   76 2    
   150   75   77 1    
   151   77   78 1    
   152   77   79 1    
   153   77  153 1    
   154   78  154 1    
   155   78  155 1    
   156   78  156 1    
   157   79   80 am   BACKBONE|DICT|INTERRES
   158   79  157 1    
   159   80   81 2    
@<TRIPOS>SUBSTRUCTURE
     1 UNK         1 GROUP             0       ****    0 ROOT    
