@<TRIPOS>MOLECULE
3R207
157   159    1
SMALL
USER_CHARGES


@<TRIPOS>ATOM
      1 CA        -52.6145  -27.1361    3.4469 C.3       0 UNK        -0.1975 
      2 C         -51.3328  -26.9475    4.2451 C.2       0 UNK         0.4852 
      3 O         -50.3284  -26.5065    3.6862 O.2       0 UNK        -0.5216 
      4 N         -51.3672  -27.2764    5.5458 N.am      1 UNK        -0.4461 
      5 CA        -50.2487  -27.1743    6.4960 C.3       1 UNK         0.0864 
      6 C6        -49.0699  -28.1238    6.1350 C.3       14 UNK        -0.0898 
      7 S7        -48.1650  -28.7510    7.5932 S.3       14 UNK        -0.2598 
      8 C8        -48.9556  -30.3689    7.8887 C.3       14 UNK         0.0286 
      9 C9        -49.8095  -30.3367    9.1469 C.ar      14 UNK        -0.0844 
     10 C10       -49.2747  -30.7574   10.3680 C.ar      14 UNK        -0.0881 
     11 C11       -50.0350  -30.6961   11.5433 C.ar      14 UNK        -0.0643 
     12 C12       -51.3392  -30.1955   11.4790 C.ar      14 UNK        -0.0930 
     13 C13       -51.8938  -29.7874   10.2614 C.ar      14 UNK        -0.0827 
     14 C14       -51.1290  -29.8812    9.0950 C.ar      14 UNK        -0.1249 
     15 C15       -53.3018  -29.2100   10.2025 C.3       14 UNK         0.0141 
     16 S16       -54.5826  -30.4844   10.4293 S.3       14 UNK        -0.2313 
     17 C17       -54.9127  -30.3677   12.2221 C.3       14 UNK        -0.0915 
     18 CA        -56.2697  -29.6839   12.5391 C.3       13 UNK         0.0968 
     19 C         -56.5999  -29.7461   14.0599 C.2       13 UNK         0.5732 
     20 N         -56.8881  -28.6410   14.7397 N.am      13 UNK        -0.7310 
     21 O         -56.6111  -30.8301   14.6383 O.2       13 UNK        -0.5035 
     22 N         -56.3362  -28.3243   11.9829 N.am      13 UNK        -0.4233 
     23 C         -57.4474  -27.7501   11.5028 C.2       13 UNK         0.4989 
     24 O         -58.5248  -28.3390   11.3945 O.2       13 UNK        -0.4996 
     25 CA        -57.3425  -26.2702   11.0685 C.3       12 UNK         0.0216 
     26 CB        -58.6993  -25.5360   11.1353 C.3       12 UNK        -0.1964 
     27 N         -56.3104  -25.5089   11.7875 N.am      12 UNK        -0.4276 
     28 C         -56.2188  -25.3352   13.1134 C.2       12 UNK         0.5020 
     29 O         -57.0302  -25.7761   13.9316 O.2       12 UNK        -0.5489 
     30 CA        -54.9695  -24.5948   13.6154 C.3       11 UNK         0.0294 
     31 CB        -55.3482  -23.2578   14.2720 C.3       11 UNK        -0.2019 
     32 N         -54.2153  -25.4082   14.5698 N.am      11 UNK        -0.4493 
     33 C         -53.7092  -26.6246   14.3283 C.2       11 UNK         0.4932 
     34 O         -53.8109  -27.2093   13.2473 O.2       11 UNK        -0.5029 
     35 CA        -52.9472  -27.2772   15.4942 C.3       10 UNK         0.0280 
     36 CB        -52.5161  -28.7225   15.1842 C.3       10 UNK        -0.1976 
     37 N         -51.7595  -26.4963   15.8373 N.am      10 UNK        -0.4242 
     38 C         -51.7357  -25.3956   16.6006 C.2       10 UNK         0.5072 
     39 O         -52.7386  -24.9062   17.1231 O.2       10 UNK        -0.5224 
     40 CA        -50.3725  -24.7151   16.7885 C.3       9 UNK         0.0343 
     41 CB        -49.4537  -25.5647   17.6830 C.3       9 UNK        -0.2003 
     42 N         -49.7283  -24.5007   15.4932 N.am      9 UNK        -0.4272 
     43 C         -49.6794  -23.3300   14.8412 C.2       9 UNK         0.4988 
     44 O         -50.1026  -22.2687   15.3008 O.2       9 UNK        -0.5108 
     45 CA        -49.0475  -23.3341   13.4343 C.3       8 UNK         0.0248 
     46 CB        -47.5526  -22.9862   13.5243 C.3       8 UNK        -0.2001 
     47 N         -49.1981  -24.6084   12.7286 N.am      8 UNK        -0.4140 
     48 C         -50.3721  -25.1582   12.3763 C.2       8 UNK         0.5028 
     49 O         -51.4602  -24.6054   12.5318 O.2       8 UNK        -0.5428 
     50 CA        -50.3300  -26.5808   11.7839 C.3       7 UNK         0.0264 
     51 CB        -50.2903  -26.4854   10.2524 C.3       7 UNK        -0.1988 
     52 N         -49.1883  -27.3898   12.2275 N.am      7 UNK        -0.4454 
     53 C         -48.8150  -27.6186   13.4957 C.2       7 UNK         0.5027 
     54 O         -49.4753  -27.2624   14.4717 O.2       7 UNK        -0.5083 
     55 CA        -47.4341  -28.2638   13.7411 C.3       6 UNK         0.0844 
     56 C56       -47.5621  -29.6912   14.3329 C.3       14 UNK        -0.0967 
     57 S57       -47.6965  -31.0299   13.0957 S.3       14 UNK        -0.2604 
     58 C58       -49.5008  -31.2146   12.8793 C.3       14 UNK         0.0134 
     59 N         -46.5040  -28.2052   12.6049 N.am      6 UNK        -0.4116 
     60 C         -46.1046  -27.1096   11.9443 C.2       5 UNK         0.5034 
     61 O         -46.5020  -25.9708   12.2073 O.2       5 UNK        -0.5045 
     62 CA        -45.1402  -27.3222   10.7674 C.3       5 UNK         0.0224 
     63 CB        -45.1644  -28.7527   10.1818 C.3       5 UNK        -0.1978 
     64 N         -45.4621  -26.3517    9.7257 N.am      5 UNK        -0.4737 
     65 C         -44.6046  -25.8474    8.8335 C.2       4 UNK         0.5027 
     66 O         -43.4176  -26.1693    8.7676 O.2       4 UNK        -0.5211 
     67 CA        -45.1603  -24.8152    7.8365 C.3       4 UNK         0.0297 
     68 CB        -45.3895  -25.4747    6.4665 C.3       4 UNK        -0.1993 
     69 N         -46.4095  -24.1874    8.2832 N.am      4 UNK        -0.4486 
     70 C         -46.4807  -23.2180    9.2108 C.2       3 UNK         0.4961 
     71 O         -45.4929  -22.7652    9.7902 O.2       3 UNK        -0.5105 
     72 CA        -47.8745  -22.6434    9.5268 C.3       3 UNK         0.0299 
     73 CB        -47.8303  -21.1906   10.0388 C.3       3 UNK        -0.1972 
     74 N         -48.7331  -22.7247    8.3480 N.am      3 UNK        -0.4305 
     75 C         -50.0257  -23.0643    8.3509 C.2       2 UNK         0.5006 
     76 O         -50.7016  -23.2052    9.3690 O.2       2 UNK        -0.5106 
     77 CA        -50.6711  -23.3448    6.9810 C.3       2 UNK         0.0296 
     78 CB        -49.9524  -22.6628    5.7936 C.3       2 UNK        -0.2002 
     79 N         -50.8021  -24.7879    6.7420 N.am      2 UNK        -0.4032 
     80 C         -49.8215  -25.7087    6.7584 C.2       1 UNK         0.5000 
     81 O         -48.6387  -25.4371    6.9787 O.2       1 UNK        -0.5238 
     82 H82       -53.4233  -27.5349    4.0589 H         1 UNK         0.0889 
     83 H83       -52.4431  -27.8262    2.6212 H         1 UNK         0.0889 
     84 H84       -52.9414  -26.1830    3.0320 H         1 UNK         0.0889 
     85 H85       -52.2293  -27.6372    5.9312 H         1 UNK         0.3028 
     86 H86       -50.6668  -27.5140    7.4424 H         1 UNK         0.0864 
     87 H87       -48.3599  -27.6281    5.4702 H         1 UNK         0.0720 
     88 H88       -49.4335  -28.9795    5.5653 H         1 UNK         0.0720 
     89 H89       -48.1741  -31.1240    7.9863 H         1 UNK         0.0814 
     90 H90       -49.5610  -30.6766    7.0356 H         1 UNK         0.0814 
     91 H91       -48.2639  -31.1390   10.3954 H         1 UNK         0.1469 
     92 H92       -51.9296  -30.1366   12.3803 H         1 UNK         0.1381 
     93 H93       -51.5493  -29.5709    8.1489 H         1 UNK         0.1206 
     94 H94       -53.4703  -28.7290    9.2380 H         1 UNK         0.0813 
     95 H95       -53.4087  -28.4210   10.9466 H         1 UNK         0.0813 
     96 H96       -54.1021  -29.8373   12.7188 H         1 UNK         0.0638 
     97 H97       -54.8948  -31.3847   12.6177 H         1 UNK         0.0638 
     98 H98       -57.0413  -30.2876   12.0582 H         1 UNK         0.0568 
     99 H99       -57.1096  -28.7179   15.7189 H         1 UNK         0.3450 
    100 H100      -56.9124  -27.7305   14.2921 H         1 UNK         0.3450 
    101 H101      -55.4997  -27.7661   12.1086 H         1 UNK         0.2987 
    102 H102      -57.0314  -26.2909   10.0230 H         1 UNK         0.0766 
    103 H103      -58.6074  -24.5008   10.8067 H         1 UNK         0.0798 
    104 H104      -59.1066  -25.5317   12.1470 H         1 UNK         0.0798 
    105 H105      -59.4377  -26.0133   10.4898 H         1 UNK         0.0798 
    106 H106      -55.5710  -25.1315   11.2100 H         1 UNK         0.3198 
    107 H107      -54.3077  -24.3887   12.7713 H         1 UNK         0.0843 
    108 H108      -55.9827  -23.4041   15.1473 H         1 UNK         0.0831 
    109 H109      -55.8959  -22.6224   13.5747 H         1 UNK         0.0831 
    110 H110      -54.4625  -22.7053   14.5867 H         1 UNK         0.0831 
    111 H111      -54.0544  -25.0124   15.4891 H         1 UNK         0.3133 
    112 H112      -53.6188  -27.3064   16.3546 H         1 UNK         0.0566 
    113 H113      -51.9932  -29.1704   16.0292 H         1 UNK         0.0814 
    114 H114      -53.3820  -29.3497   14.9708 H         1 UNK         0.0814 
    115 H115      -51.8526  -28.7664   14.3202 H         1 UNK         0.0814 
    116 H116      -50.8917  -26.8036   15.3998 H         1 UNK         0.3091 
    117 H117      -50.5409  -23.7606   17.2918 H         1 UNK         0.0702 
    118 H118      -48.5083  -25.0555   17.8710 H         1 UNK         0.0785 
    119 H119      -49.2265  -26.5331   17.2354 H         1 UNK         0.0785 
    120 H120      -49.9184  -25.7528   18.6519 H         1 UNK         0.0785 
    121 H121      -49.3987  -25.3321   15.0158 H         1 UNK         0.2998 
    122 H122      -49.5480  -22.5669   12.8398 H         1 UNK         0.0697 
    123 H123      -47.0065  -23.7118   14.1288 H         1 UNK         0.0825 
    124 H124      -47.4066  -22.0054   13.9790 H         1 UNK         0.0825 
    125 H125      -47.0851  -22.9610   12.5404 H         1 UNK         0.0825 
    126 H126      -48.3454  -25.1300   12.5504 H         1 UNK         0.3029 
    127 H127      -51.2409  -27.1012   12.0870 H         1 UNK         0.0897 
    128 H128      -49.4417  -25.8929    9.9073 H         1 UNK         0.0792 
    129 H129      -51.1960  -26.0136    9.8690 H         1 UNK         0.0792 
    130 H130      -50.2112  -27.4675    9.7946 H         1 UNK         0.0792 
    131 H131      -48.5938  -27.7527   11.4978 H         1 UNK         0.3086 
    132 H132      -46.9792  -27.6444   14.5171 H         1 UNK         0.0583 
    133 H133      -46.6630  -29.9022   14.9141 H         1 UNK         0.1020 
    134 H134      -48.3770  -29.7599   15.0569 H         1 UNK         0.1020 
    135 H135      -49.7425  -32.2759   12.9468 H         1 UNK         0.0694 
    136 H136      -50.0214  -30.7322   13.7078 H         1 UNK         0.0694 
    137 H137      -46.1564  -29.1020   12.2965 H         1 UNK         0.2989 
    138 H138      -44.1375  -27.1129   11.1468 H         1 UNK         0.1055 
    139 H139      -44.8023  -29.4879   10.9014 H         1 UNK         0.0806 
    140 H140      -44.5197  -28.8321    9.3063 H         1 UNK         0.0806 
    141 H141      -46.1684  -29.0489    9.8755 H         1 UNK         0.0806 
    142 H142      -46.4006  -25.9783    9.7498 H         1 UNK         0.3061 
    143 H143      -44.4053  -24.0353    7.7154 H         1 UNK         0.0734 
    144 H144      -45.7647  -24.7581    5.7358 H         1 UNK         0.0832 
    145 H145      -44.4599  -25.8860    6.0711 H         1 UNK         0.0832 
    146 H146      -46.1059  -26.2952    6.5300 H         1 UNK         0.0832 
    147 H147      -47.2652  -24.5534    7.8646 H         1 UNK         0.3156 
    148 H148      -48.2852  -23.2745   10.3170 H         1 UNK         0.0589 
    149 H149      -47.4136  -20.5152    9.2910 H         1 UNK         0.0808 
    150 H150      -48.8275  -20.8331   10.2961 H         1 UNK         0.0808 
    151 H151      -47.2173  -21.1034   10.9363 H         1 UNK         0.0808 
    152 H152      -48.2656  -22.6459    7.4552 H         1 UNK         0.3098 
    153 H153      -51.6832  -22.9400    7.0300 H         1 UNK         0.0720 
    154 H154      -50.5249  -22.7859    4.8741 H         1 UNK         0.0791 
    155 H155      -48.9588  -23.0738    5.6116 H         1 UNK         0.0791 
    156 H156      -49.8455  -21.5900    5.9606 H         1 UNK         0.0791 
    157 H157      -51.7428  -25.1145    6.5740 H         1 UNK         0.3028 
@<TRIPOS>BOND
     1    1    2 1    
     2    1   82 1    
     3    1   83 1    
     4    1   84 1    
     5    2    3 2    
     6    2    4 am   BACKBONE|DICT|INTERRES
     7    4    5 1    
     8    4   85 1    
     9    5    6 1    
    10    5   80 1    
    11    5   86 1    
    12    6    7 1    
    13    6   87 1    
    14    6   88 1    
    15    7    8 1    
    16    8    9 1    
    17    8   89 1    
    18    8   90 1    
    19    9   10 ar   
    20    9   14 ar   
    21   10   11 ar   
    22   10   91 1    
    23   11   12 ar   
    24   11   58 1    
    25   12   13 ar   
    26   12   92 1    
    27   13   14 ar   
    28   13   15 1    
    29   14   93 1    
    30   15   16 1    
    31   15   94 1    
    32   15   95 1    
    33   16   17 1    
    34   17   18 1    
    35   17   96 1    
    36   17   97 1    
    37   18   19 1    
    38   18   22 1    
    39   18   98 1    
    40   19   20 am   BACKBONE|DICT|INTERRES
    41   19   21 2    
    42   20   99 1    
    43   20  100 1    
    44   22   23 am   BACKBONE|DICT|INTERRES
    45   22  101 1    
    46   23   24 2    
    47   23   25 1    
    48   25   26 1    
    49   25   27 1    
    50   25  102 1    
    51   26  103 1    
    52   26  104 1    
    53   26  105 1    
    54   27   28 am   BACKBONE|DICT|INTERRES
    55   27  106 1    
    56   28   29 2    
    57   28   30 1    
    58   30   31 1    
    59   30   32 1    
    60   30  107 1    
    61   31  108 1    
    62   31  109 1    
    63   31  110 1    
    64   32   33 am   BACKBONE|DICT|INTERRES
    65   32  111 1    
    66   33   34 2    
    67   33   35 1    
    68   35   36 1    
    69   35   37 1    
    70   35  112 1    
    71   36  113 1    
    72   36  114 1    
    73   36  115 1    
    74   37   38 am   BACKBONE|DICT|INTERRES
    75   37  116 1    
    76   38   39 2    
    77   38   40 1    
    78   40   41 1    
    79   40   42 1    
    80   40  117 1    
    81   41  118 1    
    82   41  119 1    
    83   41  120 1    
    84   42   43 am   BACKBONE|DICT|INTERRES
    85   42  121 1    
    86   43   44 2    
    87   43   45 1    
    88   45   46 1    
    89   45   47 1    
    90   45  122 1    
    91   46  123 1    
    92   46  124 1    
    93   46  125 1    
    94   47   48 am   BACKBONE|DICT|INTERRES
    95   47  126 1    
    96   48   49 2    
    97   48   50 1    
    98   50   51 1    
    99   50   52 1    
   100   50  127 1    
   101   51  128 1    
   102   51  129 1    
   103   51  130 1    
   104   52   53 am   BACKBONE|DICT|INTERRES
   105   52  131 1    
   106   53   54 2    
   107   53   55 1    
   108   55   56 1    
   109   55   59 1    
   110   55  132 1    
   111   56   57 1    
   112   56  133 1    
   113   56  134 1    
   114   57   58 1    
   115   58  135 1    
   116   58  136 1    
   117   59   60 am   BACKBONE|DICT|INTERRES
   118   59  137 1    
   119   60   61 2    
   120   60   62 1    
   121   62   63 1    
   122   62   64 1    
   123   62  138 1    
   124   63  139 1    
   125   63  140 1    
   126   63  141 1    
   127   64   65 am   BACKBONE|DICT|INTERRES
   128   64  142 1    
   129   65   66 2    
   130   65   67 1    
   131   67   68 1    
   132   67   69 1    
   133   67  143 1    
   134   68  144 1    
   135   68  145 1    
   136   68  146 1    
   137   69   70 am   BACKBONE|DICT|INTERRES
   138   69  147 1    
   139   70   71 2    
   140   70   72 1    
   141   72   73 1    
   142   72   74 1    
   143   72  148 1    
   144   73  149 1    
   145   73  150 1    
   146   73  151 1    
   147   74   75 am   BACKBONE|DICT|INTERRES
   148   74  152 1    
   149   75   76 2    
   150   75   77 1    
   151   77   78 1    
   152   77   79 1    
   153   77  153 1    
   154   78  154 1    
   155   78  155 1    
   156   78  156 1    
   157   79   80 am   BACKBONE|DICT|INTERRES
   158   79  157 1    
   159   80   81 2    
@<TRIPOS>SUBSTRUCTURE
     1 UNK         1 GROUP             0       ****    0 ROOT    
