@<TRIPOS>MOLECULE
3R207
157   159    1
SMALL
USER_CHARGES


@<TRIPOS>ATOM
      1 CA        -51.4829  -28.5994    4.4464 C.3       0 UNK        -0.1975 
      2 C         -50.9618  -27.7155    5.5690 C.2       0 UNK         0.4852 
      3 O         -49.9239  -28.0255    6.1547 O.2       0 UNK        -0.5216 
      4 N         -51.6701  -26.6156    5.8646 N.am      1 UNK        -0.4461 
      5 CA        -51.4137  -25.6140    6.9159 C.3       1 UNK         0.0864 
      6 C6        -51.4362  -26.1891    8.3575 C.3       14 UNK        -0.0898 
      7 S7        -53.0878  -26.8198    8.8208 S.3       14 UNK        -0.2598 
      8 C8        -52.8991  -28.6281    8.6834 C.3       14 UNK         0.0286 
      9 C9        -51.9302  -29.1936    9.7113 C.ar      14 UNK        -0.0844 
     10 C10       -50.6556  -29.6138    9.3218 C.ar      14 UNK        -0.0881 
     11 C11       -49.7553  -30.1213   10.2629 C.ar      14 UNK        -0.0643 
     12 C12       -50.1462  -30.2270   11.6020 C.ar      14 UNK        -0.0930 
     13 C13       -51.4131  -29.7957   12.0045 C.ar      14 UNK        -0.0827 
     14 C14       -52.3052  -29.2921   11.0535 C.ar      14 UNK        -0.1249 
     15 C15       -51.8040  -29.8201   13.4714 C.3       14 UNK         0.0141 
     16 S16       -52.5356  -31.4159   13.9442 S.3       14 UNK        -0.2313 
     17 C17       -53.5698  -30.8661   15.3386 C.3       14 UNK        -0.0915 
     18 CA        -54.9898  -30.4453   14.8482 C.3       13 UNK         0.0968 
     19 C         -56.0944  -31.5319   15.0177 C.2       13 UNK         0.5732 
     20 N         -57.3479  -31.2096   14.7264 N.am      13 UNK        -0.7310 
     21 O         -55.8301  -32.6695   15.4009 O.2       13 UNK        -0.5035 
     22 N         -55.3676  -29.1142   15.3387 N.am      13 UNK        -0.4233 
     23 C         -55.7163  -28.7879   16.5902 C.2       13 UNK         0.4989 
     24 O         -55.7493  -29.5798   17.5325 O.2       13 UNK        -0.4996 
     25 CA        -56.0946  -27.3168   16.8278 C.3       12 UNK         0.0216 
     26 CB        -54.8389  -26.4751   17.1135 C.3       12 UNK        -0.1964 
     27 N         -56.8025  -26.7640   15.6703 N.am      12 UNK        -0.4276 
     28 C         -58.1298  -26.8306   15.4920 C.2       12 UNK         0.5020 
     29 O         -58.9163  -27.2414   16.3463 O.2       12 UNK        -0.5489 
     30 CA        -58.6798  -26.3801   14.1242 C.3       11 UNK         0.0294 
     31 CB        -59.0252  -24.8824   14.1504 C.3       11 UNK        -0.2019 
     32 N         -57.7648  -26.6469   13.0103 N.am      11 UNK        -0.4493 
     33 C         -57.3837  -27.8674   12.6044 C.2       11 UNK         0.4932 
     34 O         -57.8320  -28.9125   13.0737 O.2       11 UNK        -0.5029 
     35 CA        -56.2778  -27.9418   11.5330 C.3       10 UNK         0.0280 
     36 CB        -56.8976  -28.1152   10.1380 C.3       10 UNK        -0.1976 
     37 N         -55.3667  -26.7895   11.5192 N.am      10 UNK        -0.4242 
     38 C         -54.6294  -26.3691   12.5559 C.2       10 UNK         0.5072 
     39 O         -54.6438  -26.9088   13.6657 O.2       10 UNK        -0.5224 
     40 CA        -53.8294  -25.0767   12.3381 C.3       9 UNK         0.0343 
     41 CB        -54.7648  -23.8573   12.4075 C.3       9 UNK        -0.2003 
     42 N         -52.7877  -24.9210   13.3521 N.am      9 UNK        -0.4272 
     43 C         -51.5838  -25.4992   13.2929 C.2       9 UNK         0.4988 
     44 O         -51.1948  -26.1985   12.3571 O.2       9 UNK        -0.5108 
     45 CA        -50.6575  -25.2685   14.4965 C.3       8 UNK         0.0248 
     46 CB        -50.5585  -26.5426   15.3523 C.3       8 UNK        -0.2001 
     47 N         -49.3222  -24.8788   14.0442 N.am      8 UNK        -0.4140 
     48 C         -49.0115  -23.6802   13.5288 C.2       8 UNK         0.5028 
     49 O         -49.7888  -22.7247   13.5023 O.2       8 UNK        -0.5428 
     50 CA        -47.5954  -23.5115   12.9449 C.3       7 UNK         0.0264 
     51 CB        -46.6568  -22.8630   13.9749 C.3       7 UNK        -0.1988 
     52 N         -47.0047  -24.7696   12.4764 N.am      7 UNK        -0.4454 
     53 C         -47.4268  -25.4470   11.3999 C.2       7 UNK         0.5027 
     54 O         -48.3173  -25.0543   10.6456 O.2       7 UNK        -0.5083 
     55 CA        -46.7287  -26.7840   11.1240 C.3       6 UNK         0.0844 
     56 C56       -47.7255  -27.8378   10.5843 C.3       14 UNK        -0.0967 
     57 S57       -47.0562  -29.5328   10.6873 S.3       14 UNK        -0.2604 
     58 C58       -48.3444  -30.5044    9.8335 C.3       14 UNK         0.0134 
     59 N         -45.6531  -26.5191   10.1771 N.am      6 UNK        -0.4116 
     60 C         -44.3770  -26.8939   10.3132 C.2       5 UNK         0.5034 
     61 O         -43.9283  -27.4812   11.2983 O.2       5 UNK        -0.5045 
     62 CA        -43.4355  -26.5513    9.1512 C.3       5 UNK         0.0224 
     63 CB        -43.6894  -27.4881    7.9575 C.3       5 UNK        -0.1978 
     64 N         -43.6114  -25.1633    8.7208 N.am      5 UNK        -0.4737 
     65 C         -42.7467  -24.1704    8.9672 C.2       4 UNK         0.5027 
     66 O         -41.6854  -24.3218    9.5730 O.2       4 UNK        -0.5211 
     67 CA        -43.1077  -22.7684    8.4395 C.3       4 UNK         0.0297 
     68 CB        -42.3986  -22.5040    7.1013 C.3       4 UNK        -0.1993 
     69 N         -44.5470  -22.5592    8.2674 N.am      4 UNK        -0.4486 
     70 C         -45.4255  -22.4460    9.2726 C.2       3 UNK         0.4961 
     71 O         -45.1074  -22.4381   10.4615 O.2       3 UNK        -0.5105 
     72 CA        -46.9133  -22.3308    8.8931 C.3       3 UNK         0.0299 
     73 CB        -47.3373  -20.8541    8.8517 C.3       3 UNK        -0.1972 
     74 N         -47.3083  -22.9812    7.6356 N.am      3 UNK        -0.4305 
     75 C         -47.0905  -24.2593    7.2937 C.2       2 UNK         0.5006 
     76 O         -46.4080  -25.0465    7.9509 O.2       2 UNK        -0.5106 
     77 CA        -47.7515  -24.7425    5.9942 C.3       2 UNK         0.0296 
     78 CB        -46.8567  -25.7438    5.2414 C.3       2 UNK        -0.2002 
     79 N         -49.0382  -25.3761    6.2756 N.am      2 UNK        -0.4032 
     80 C         -50.1559  -24.7506    6.6652 C.2       1 UNK         0.5000 
     81 O         -50.2352  -23.5269    6.7928 O.2       1 UNK        -0.5238 
     82 H82       -52.4087  -28.2148    4.0190 H         1 UNK         0.0889 
     83 H83       -51.6743  -29.6046    4.8210 H         1 UNK         0.0889 
     84 H84       -50.7431  -28.6677    3.6494 H         1 UNK         0.0889 
     85 H85       -52.4956  -26.4244    5.3137 H         1 UNK         0.3028 
     86 H86       -52.2508  -24.9174    6.8424 H         1 UNK         0.0864 
     87 H87       -50.6784  -26.9612    8.4876 H         1 UNK         0.0720 
     88 H88       -51.1849  -25.4116    9.0823 H         1 UNK         0.0720 
     89 H89       -52.5878  -28.8875    7.6718 H         1 UNK         0.0814 
     90 H90       -53.8751  -29.0935    8.8244 H         1 UNK         0.0814 
     91 H91       -50.3554  -29.5233    8.2869 H         1 UNK         0.1469 
     92 H92       -49.4479  -30.6059   12.3355 H         1 UNK         0.1381 
     93 H93       -53.2827  -28.9497   11.3618 H         1 UNK         0.1206 
     94 H94       -50.9338  -29.6247   14.0992 H         1 UNK         0.0813 
     95 H95       -52.5093  -29.0101   13.6685 H         1 UNK         0.0813 
     96 H96       -53.6062  -31.6552   16.0910 H         1 UNK         0.0638 
     97 H97       -53.0593  -30.0366   15.8313 H         1 UNK         0.0638 
     98 H98       -54.9437  -30.2995   13.7683 H         1 UNK         0.0568 
     99 H99       -57.5658  -30.3057   14.3162 H         1 UNK         0.3450 
    100 H100      -58.0721  -31.9014   14.8316 H         1 UNK         0.3450 
    101 H101      -55.2988  -28.3663   14.6555 H         1 UNK         0.2987 
    102 H102      -56.7395  -27.2719   17.7082 H         1 UNK         0.0766 
    103 H103      -54.3081  -26.8538   17.9880 H         1 UNK         0.0798 
    104 H104      -55.0973  -25.4358   17.3169 H         1 UNK         0.0798 
    105 H105      -54.1384  -26.4885   16.2778 H         1 UNK         0.0798 
    106 H106      -56.2223  -26.4584   14.8972 H         1 UNK         0.3198 
    107 H107      -59.5989  -26.9411   13.9407 H         1 UNK         0.0843 
    108 H108      -58.1402  -24.2643   14.3074 H         1 UNK         0.0831 
    109 H109      -59.7250  -24.6588   14.9571 H         1 UNK         0.0831 
    110 H110      -59.4967  -24.5664   13.2197 H         1 UNK         0.0831 
    111 H111      -57.3592  -25.8452   12.5506 H         1 UNK         0.3133 
    112 H112      -55.6779  -28.8272   11.7512 H         1 UNK         0.0566 
    113 H113      -56.1320  -28.2578    9.3757 H         1 UNK         0.0814 
    114 H114      -57.5493  -28.9897   10.1066 H         1 UNK         0.0814 
    115 H115      -57.4985  -27.2509    9.8523 H         1 UNK         0.0814 
    116 H116      -55.2893  -26.2907   10.6437 H         1 UNK         0.3091 
    117 H117      -53.3657  -25.1119   11.3499 H         1 UNK         0.0702 
    118 H118      -54.2130  -22.9285   12.2609 H         1 UNK         0.0785 
    119 H119      -55.2775  -23.7929   13.3684 H         1 UNK         0.0785 
    120 H120      -55.5294  -23.8990   11.6307 H         1 UNK         0.0785 
    121 H121      -53.0392  -24.3990   14.1783 H         1 UNK         0.2998 
    122 H122      -51.0621  -24.4660   15.1173 H         1 UNK         0.0697 
    123 H123      -50.1218  -27.3703   14.7923 H         1 UNK         0.0825 
    124 H124      -51.5449  -26.8635   15.6904 H         1 UNK         0.0825 
    125 H125      -49.9483  -26.3785   16.2406 H         1 UNK         0.0825 
    126 H126      -48.6308  -25.6112   13.9943 H         1 UNK         0.3029 
    127 H127      -47.6762  -22.8366   12.0903 H         1 UNK         0.0897 
    128 H128      -45.6777  -22.6568   13.5413 H         1 UNK         0.0792 
    129 H129      -46.5131  -23.4978   14.8500 H         1 UNK         0.0792 
    130 H130      -47.0603  -21.9115   14.3245 H         1 UNK         0.0792 
    131 H131      -46.2390  -25.1430   13.0198 H         1 UNK         0.3086 
    132 H132      -46.3257  -27.1455   12.0727 H         1 UNK         0.0583 
    133 H133      -48.6507  -27.8082   11.1644 H         1 UNK         0.1020 
    134 H134      -48.0088  -27.6176    9.5526 H         1 UNK         0.1020 
    135 H135      -48.2191  -30.3713    8.7576 H         1 UNK         0.0694 
    136 H136      -48.1826  -31.5642   10.0340 H         1 UNK         0.0694 
    137 H137      -45.9326  -25.9998    9.3450 H         1 UNK         0.2989 
    138 H138      -42.4124  -26.7178    9.4964 H         1 UNK         0.1055 
    139 H139      -44.6943  -27.3675    7.5507 H         1 UNK         0.0806 
    140 H140      -43.5794  -28.5331    8.2511 H         1 UNK         0.0806 
    141 H141      -42.9792  -27.3013    7.1520 H         1 UNK         0.0806 
    142 H142      -44.4921  -24.9412    8.2661 H         1 UNK         0.3061 
    143 H143      -42.7440  -22.0407    9.1683 H         1 UNK         0.0734 
    144 H144      -42.5795  -21.4886    6.7484 H         1 UNK         0.0832 
    145 H145      -41.3187  -22.6214    7.2030 H         1 UNK         0.0832 
    146 H146      -42.7286  -23.1956    6.3249 H         1 UNK         0.0832 
    147 H147      -44.9005  -22.5469    7.3219 H         1 UNK         0.3156 
    148 H148      -47.4818  -22.8138    9.6866 H         1 UNK         0.0589 
    149 H149      -48.4141  -20.7536    8.7134 H         1 UNK         0.0808 
    150 H150      -47.0856  -20.3485    9.7852 H         1 UNK         0.0808 
    151 H151      -46.8413  -20.3142    8.0441 H         1 UNK         0.0808 
    152 H152      -47.9229  -22.4441    7.0392 H         1 UNK         0.3098 
    153 H153      -47.9187  -23.8823    5.3425 H         1 UNK         0.0720 
    154 H154      -47.2953  -26.0229    4.2832 H         1 UNK         0.0791 
    155 H155      -46.7001  -26.6588    5.8146 H         1 UNK         0.0791 
    156 H156      -45.8750  -25.3146    5.0368 H         1 UNK         0.0791 
    157 H157      -49.0801  -26.3917    6.2197 H         1 UNK         0.3028 
@<TRIPOS>BOND
     1    1    2 1    
     2    1   82 1    
     3    1   83 1    
     4    1   84 1    
     5    2    3 2    
     6    2    4 am   BACKBONE|DICT|INTERRES
     7    4    5 1    
     8    4   85 1    
     9    5    6 1    
    10    5   80 1    
    11    5   86 1    
    12    6    7 1    
    13    6   87 1    
    14    6   88 1    
    15    7    8 1    
    16    8    9 1    
    17    8   89 1    
    18    8   90 1    
    19    9   10 ar   
    20    9   14 ar   
    21   10   11 ar   
    22   10   91 1    
    23   11   12 ar   
    24   11   58 1    
    25   12   13 ar   
    26   12   92 1    
    27   13   14 ar   
    28   13   15 1    
    29   14   93 1    
    30   15   16 1    
    31   15   94 1    
    32   15   95 1    
    33   16   17 1    
    34   17   18 1    
    35   17   96 1    
    36   17   97 1    
    37   18   19 1    
    38   18   22 1    
    39   18   98 1    
    40   19   20 am   BACKBONE|DICT|INTERRES
    41   19   21 2    
    42   20   99 1    
    43   20  100 1    
    44   22   23 am   BACKBONE|DICT|INTERRES
    45   22  101 1    
    46   23   24 2    
    47   23   25 1    
    48   25   26 1    
    49   25   27 1    
    50   25  102 1    
    51   26  103 1    
    52   26  104 1    
    53   26  105 1    
    54   27   28 am   BACKBONE|DICT|INTERRES
    55   27  106 1    
    56   28   29 2    
    57   28   30 1    
    58   30   31 1    
    59   30   32 1    
    60   30  107 1    
    61   31  108 1    
    62   31  109 1    
    63   31  110 1    
    64   32   33 am   BACKBONE|DICT|INTERRES
    65   32  111 1    
    66   33   34 2    
    67   33   35 1    
    68   35   36 1    
    69   35   37 1    
    70   35  112 1    
    71   36  113 1    
    72   36  114 1    
    73   36  115 1    
    74   37   38 am   BACKBONE|DICT|INTERRES
    75   37  116 1    
    76   38   39 2    
    77   38   40 1    
    78   40   41 1    
    79   40   42 1    
    80   40  117 1    
    81   41  118 1    
    82   41  119 1    
    83   41  120 1    
    84   42   43 am   BACKBONE|DICT|INTERRES
    85   42  121 1    
    86   43   44 2    
    87   43   45 1    
    88   45   46 1    
    89   45   47 1    
    90   45  122 1    
    91   46  123 1    
    92   46  124 1    
    93   46  125 1    
    94   47   48 am   BACKBONE|DICT|INTERRES
    95   47  126 1    
    96   48   49 2    
    97   48   50 1    
    98   50   51 1    
    99   50   52 1    
   100   50  127 1    
   101   51  128 1    
   102   51  129 1    
   103   51  130 1    
   104   52   53 am   BACKBONE|DICT|INTERRES
   105   52  131 1    
   106   53   54 2    
   107   53   55 1    
   108   55   56 1    
   109   55   59 1    
   110   55  132 1    
   111   56   57 1    
   112   56  133 1    
   113   56  134 1    
   114   57   58 1    
   115   58  135 1    
   116   58  136 1    
   117   59   60 am   BACKBONE|DICT|INTERRES
   118   59  137 1    
   119   60   61 2    
   120   60   62 1    
   121   62   63 1    
   122   62   64 1    
   123   62  138 1    
   124   63  139 1    
   125   63  140 1    
   126   63  141 1    
   127   64   65 am   BACKBONE|DICT|INTERRES
   128   64  142 1    
   129   65   66 2    
   130   65   67 1    
   131   67   68 1    
   132   67   69 1    
   133   67  143 1    
   134   68  144 1    
   135   68  145 1    
   136   68  146 1    
   137   69   70 am   BACKBONE|DICT|INTERRES
   138   69  147 1    
   139   70   71 2    
   140   70   72 1    
   141   72   73 1    
   142   72   74 1    
   143   72  148 1    
   144   73  149 1    
   145   73  150 1    
   146   73  151 1    
   147   74   75 am   BACKBONE|DICT|INTERRES
   148   74  152 1    
   149   75   76 2    
   150   75   77 1    
   151   77   78 1    
   152   77   79 1    
   153   77  153 1    
   154   78  154 1    
   155   78  155 1    
   156   78  156 1    
   157   79   80 am   BACKBONE|DICT|INTERRES
   158   79  157 1    
   159   80   81 2    
@<TRIPOS>SUBSTRUCTURE
     1 UNK         1 GROUP             0       ****    0 ROOT    
