@<TRIPOS>MOLECULE
3R207
157   159    1
SMALL
USER_CHARGES


@<TRIPOS>ATOM
      1 CA        -51.1144  -28.2438    0.5993 C.3       0 UNK        -0.1975 
      2 C         -51.4026  -27.4396    1.8583 C.2       0 UNK         0.4852 
      3 O         -51.8907  -26.3127    1.7661 O.2       0 UNK        -0.5216 
      4 N         -51.1046  -28.0102    3.0335 N.am      1 UNK        -0.4461 
      5 CA        -51.2905  -27.3824    4.3484 C.3       1 UNK         0.0864 
      6 C6        -51.2128  -28.4234    5.4945 C.3       14 UNK        -0.0898 
      7 S7        -49.6433  -29.3646    5.5411 S.3       14 UNK        -0.2598 
      8 C8        -50.1925  -30.9916    6.1454 C.3       14 UNK         0.0286 
      9 C9        -50.5942  -30.9483    7.6133 C.ar      14 UNK        -0.0844 
     10 C10       -49.6453  -31.1758    8.6145 C.ar      14 UNK        -0.0881 
     11 C11       -50.0178  -31.1532    9.9616 C.ar      14 UNK        -0.0643 
     12 C12       -51.3522  -30.8999   10.3023 C.ar      14 UNK        -0.0930 
     13 C13       -52.3151  -30.6661    9.3110 C.ar      14 UNK        -0.0827 
     14 C14       -51.9216  -30.6969    7.9701 C.ar      14 UNK        -0.1249 
     15 C15       -53.7834  -30.3640    9.6234 C.3       14 UNK         0.0141 
     16 S16       -54.3736  -30.8903   11.2695 S.3       14 UNK        -0.2313 
     17 C17       -54.0590  -29.3995   12.2763 C.3       14 UNK        -0.0915 
     18 CA        -55.3122  -28.4837   12.4067 C.3       13 UNK         0.0968 
     19 C         -56.3126  -28.9559   13.5088 C.2       13 UNK         0.5732 
     20 N         -56.7706  -28.1024   14.4171 N.am      13 UNK        -0.7310 
     21 O         -56.7016  -30.1205   13.5355 O.2       13 UNK        -0.5035 
     22 N         -54.9287  -27.0654   12.5114 N.am      13 UNK        -0.4233 
     23 C         -55.6691  -26.0460   12.0559 C.2       13 UNK         0.4989 
     24 O         -56.7193  -26.1914   11.4273 O.2       13 UNK        -0.4996 
     25 CA        -55.1442  -24.6283   12.3615 C.3       12 UNK         0.0216 
     26 CB        -56.1684  -23.5239   12.0233 C.3       12 UNK        -0.1964 
     27 N         -54.6588  -24.4676   13.7394 N.am      12 UNK        -0.4276 
     28 C         -55.3421  -24.6598   14.8760 C.2       12 UNK         0.5020 
     29 O         -56.4965  -25.0886   14.9268 O.2       12 UNK        -0.5489 
     30 CA        -54.5635  -24.3495   16.1665 C.3       11 UNK         0.0294 
     31 CB        -55.4772  -24.1084   17.3880 C.3       11 UNK        -0.2019 
     32 N         -53.5589  -25.3872   16.4268 N.am      11 UNK        -0.4493 
     33 C         -53.7770  -26.6749   16.7369 C.2       11 UNK         0.4932 
     34 O         -54.8882  -27.1544   16.9581 O.2       11 UNK        -0.5029 
     35 CA        -52.5588  -27.6106   16.7970 C.3       10 UNK         0.0280 
     36 CB        -52.6408  -28.6607   15.6778 C.3       10 UNK        -0.1976 
     37 N         -51.2764  -26.9094   16.6938 N.am      10 UNK        -0.4242 
     38 C         -50.5828  -26.4509   17.7433 C.2       10 UNK         0.5072 
     39 O         -50.9839  -26.5023   18.9070 O.2       10 UNK        -0.5224 
     40 CA        -49.1949  -25.8580   17.4543 C.3       9 UNK         0.0343 
     41 CB        -48.1748  -26.9814   17.2081 C.3       9 UNK        -0.2003 
     42 N         -49.1729  -24.9142   16.3334 N.am      9 UNK        -0.4272 
     43 C         -49.7396  -23.6986   16.3624 C.2       9 UNK         0.4988 
     44 O         -50.4041  -23.2746   17.3083 O.2       9 UNK        -0.5108 
     45 CA        -49.5172  -22.7917   15.1400 C.3       8 UNK         0.0248 
     46 CB        -48.0822  -22.2397   15.1246 C.3       8 UNK        -0.2001 
     47 N         -49.7976  -23.4668   13.8742 N.am      8 UNK        -0.4140 
     48 C         -51.0150  -23.8647   13.4829 C.2       8 UNK         0.5028 
     49 O         -52.0488  -23.6471   14.1146 O.2       8 UNK        -0.5428 
     50 CA        -51.0976  -24.6953   12.1922 C.3       7 UNK         0.0264 
     51 CB        -51.0933  -23.7907   10.9515 C.3       7 UNK        -0.1988 
     52 N         -50.0390  -25.7011   12.0895 N.am      7 UNK        -0.4454 
     53 C         -49.8446  -26.6822   12.9846 C.2       7 UNK         0.5027 
     54 O         -50.5315  -26.8430   13.9925 O.2       7 UNK        -0.5083 
     55 CA        -48.6739  -27.6390   12.7164 C.3       6 UNK         0.0844 
     56 C56       -49.1048  -28.6614   11.6411 C.3       14 UNK        -0.0967 
     57 S57       -47.8855  -29.9764   11.3301 S.3       14 UNK        -0.2604 
     58 C58       -48.9815  -31.4087   11.0521 C.3       14 UNK         0.0134 
     59 N         -47.4593  -26.8927   12.3751 N.am      6 UNK        -0.4116 
     60 C         -46.8242  -26.0586   13.2142 C.2       5 UNK         0.5034 
     61 O         -47.1573  -25.8728   14.3844 O.2       5 UNK        -0.5045 
     62 CA        -45.6559  -25.2452   12.6346 C.3       5 UNK         0.0224 
     63 CB        -44.3878  -26.1074   12.5296 C.3       5 UNK        -0.1978 
     64 N         -45.9695  -24.6643   11.3272 N.am      5 UNK        -0.4737 
     65 C         -46.9447  -23.7712   11.1019 C.2       4 UNK         0.5027 
     66 O         -47.6425  -23.2819   11.9886 O.2       4 UNK        -0.5211 
     67 CA        -47.2217  -23.4001    9.6344 C.3       4 UNK         0.0297 
     68 CB        -46.3911  -22.1748    9.2239 C.3       4 UNK        -0.1993 
     69 N         -46.9714  -24.4983    8.6956 N.am      4 UNK        -0.4486 
     70 C         -47.5636  -25.6988    8.7263 C.2       3 UNK         0.4961 
     71 O         -48.4329  -26.0103    9.5439 O.2       3 UNK        -0.5105 
     72 CA        -47.0736  -26.7159    7.6788 C.3       3 UNK         0.0299 
     73 CB        -47.3950  -28.1643    8.0845 C.3       3 UNK        -0.1972 
     74 N         -47.6340  -26.4534    6.3534 N.am      3 UNK        -0.4305 
     75 C         -47.3123  -25.4249    5.5538 C.2       2 UNK         0.5006 
     76 O         -46.4592  -24.5842    5.8451 O.2       2 UNK        -0.5106 
     77 CA        -48.0320  -25.3117    4.1937 C.3       2 UNK         0.0296 
     78 CB        -47.0328  -25.4805    3.0363 C.3       2 UNK        -0.2002 
     79 N         -49.1222  -26.2742    4.0153 N.am      2 UNK        -0.4032 
     80 C         -50.3264  -26.2027    4.6015 C.2       1 UNK         0.5000 
     81 O         -50.6778  -25.2743    5.3310 O.2       1 UNK        -0.5238 
     82 H82       -50.6884  -29.2207    0.8276 H         1 UNK         0.0889 
     83 H83       -50.4104  -27.7068   -0.0358 H         1 UNK         0.0889 
     84 H84       -52.0335  -28.3986    0.0348 H         1 UNK         0.0889 
     85 H85       -50.7121  -28.9415    3.0517 H         1 UNK         0.3028 
     86 H86       -52.2978  -26.9597    4.3626 H         1 UNK         0.0864 
     87 H87       -51.3633  -27.9473    6.4657 H         1 UNK         0.0720 
     88 H88       -52.0396  -29.1252    5.3803 H         1 UNK         0.0720 
     89 H89       -49.3805  -31.7072    6.0079 H         1 UNK         0.0814 
     90 H90       -51.0189  -31.3541    5.5321 H         1 UNK         0.0814 
     91 H91       -48.6146  -31.3662    8.3475 H         1 UNK         0.1469 
     92 H92       -51.6314  -30.8821   11.3456 H         1 UNK         0.1381 
     93 H93       -52.6568  -30.5234    7.1964 H         1 UNK         0.1206 
     94 H94       -54.4090  -30.8680    8.8850 H         1 UNK         0.0813 
     95 H95       -53.9646  -29.2961    9.4937 H         1 UNK         0.0813 
     96 H96       -53.2276  -28.8564   11.8234 H         1 UNK         0.0638 
     97 H97       -53.7035  -29.7216   13.2548 H         1 UNK         0.0638 
     98 H98       -55.8686  -28.5819   11.4727 H         1 UNK         0.0568 
     99 H99       -57.4094  -28.4390   15.1188 H         1 UNK         0.3450 
    100 H100      -56.4971  -27.1272   14.4259 H         1 UNK         0.3450 
    101 H101      -54.1010  -26.8626   13.0502 H         1 UNK         0.2987 
    102 H102      -54.2827  -24.4789   11.7099 H         1 UNK         0.0766 
    103 H103      -55.7585  -22.5318   12.2125 H         1 UNK         0.0798 
    104 H104      -57.0819  -23.6267   12.6103 H         1 UNK         0.0798 
    105 H105      -56.4519  -23.5597   10.9706 H         1 UNK         0.0798 
    106 H106      -53.6975  -24.1318   13.8370 H         1 UNK         0.3198 
    107 H107      -54.0126  -23.4229   15.9953 H         1 UNK         0.0843 
    108 H108      -56.1104  -24.9675   17.6098 H         1 UNK         0.0831 
    109 H109      -56.1409  -23.2618   17.2091 H         1 UNK         0.0831 
    110 H110      -54.8940  -23.8820   18.2804 H         1 UNK         0.0831 
    111 H111      -52.6019  -25.1105   16.2522 H         1 UNK         0.3133 
    112 H112      -52.6044  -28.1405   17.7508 H         1 UNK         0.0566 
    113 H113      -52.6525  -28.1923   14.6944 H         1 UNK         0.0814 
    114 H114      -51.7957  -29.3484   15.7124 H         1 UNK         0.0814 
    115 H115      -53.5494  -29.2579   15.7666 H         1 UNK         0.0814 
    116 H116      -50.8830  -26.8240   15.7562 H         1 UNK         0.3091 
    117 H117      -48.8797  -25.3150   18.3480 H         1 UNK         0.0702 
    118 H118      -47.1644  -26.5837   17.1112 H         1 UNK         0.0785 
    119 H119      -48.4016  -27.5409   16.2995 H         1 UNK         0.0785 
    120 H120      -48.1650  -27.6913   18.0363 H         1 UNK         0.0785 
    121 H121      -48.6189  -25.1846   15.5254 H         1 UNK         0.2998 
    122 H122      -50.2027  -21.9457   15.2253 H         1 UNK         0.0697 
    123 H123      -47.3444  -23.0325   14.9935 H         1 UNK         0.0825 
    124 H124      -47.8497  -21.7254   16.0580 H         1 UNK         0.0825 
    125 H125      -47.9442  -21.5222   14.3154 H         1 UNK         0.0825 
    126 H126      -49.0064  -23.6278   13.2543 H         1 UNK         0.3029 
    127 H127      -52.0430  -25.2393   12.2112 H         1 UNK         0.0897 
    128 H128      -51.9466  -23.1113   10.9639 H         1 UNK         0.0792 
    129 H129      -51.1536  -24.3729   10.0315 H         1 UNK         0.0792 
    130 H130      -50.1939  -23.1777   10.9038 H         1 UNK         0.0792 
    131 H131      -49.4379  -25.6631   11.2707 H         1 UNK         0.3086 
    132 H132      -48.4756  -28.1833   13.6424 H         1 UNK         0.0583 
    133 H133      -50.0360  -29.1319   11.9603 H         1 UNK         0.1020 
    134 H134      -49.3275  -28.1744   10.6901 H         1 UNK         0.1020 
    135 H135      -48.3718  -32.2709   10.7782 H         1 UNK         0.0694 
    136 H136      -49.4702  -31.6696   11.9922 H         1 UNK         0.0694 
    137 H137      -47.1550  -26.9489   11.4145 H         1 UNK         0.2989 
    138 H138      -45.4563  -24.4224   13.3251 H         1 UNK         0.1055 
    139 H139      -44.1301  -26.5393   13.4978 H         1 UNK         0.0806 
    140 H140      -43.5320  -25.5157   12.2039 H         1 UNK         0.0806 
    141 H141      -44.5125  -26.9329   11.8277 H         1 UNK         0.0806 
    142 H142      -45.4430  -25.0013   10.5344 H         1 UNK         0.3061 
    143 H143      -48.2778  -23.1387    9.5529 H         1 UNK         0.0734 
    144 H144      -46.5807  -21.3341    9.8929 H         1 UNK         0.0832 
    145 H145      -46.6402  -21.8462    8.2146 H         1 UNK         0.0832 
    146 H146      -45.3208  -22.3820    9.2558 H         1 UNK         0.0832 
    147 H147      -46.3439  -24.3117    7.9205 H         1 UNK         0.3156 
    148 H148      -45.9871  -26.6291    7.6123 H         1 UNK         0.0589 
    149 H149      -48.4675  -28.3294    8.1975 H         1 UNK         0.0808 
    150 H150      -47.0219  -28.8783    7.3502 H         1 UNK         0.0808 
    151 H151      -46.9250  -28.4090    9.0366 H         1 UNK         0.0808 
    152 H152      -48.3496  -27.0936    6.0401 H         1 UNK         0.3098 
    153 H153      -48.4519  -24.3052    4.1371 H         1 UNK         0.0720 
    154 H154      -47.5168  -25.3382    2.0697 H         1 UNK         0.0791 
    155 H155      -46.5728  -26.4695    3.0408 H         1 UNK         0.0791 
    156 H156      -46.2279  -24.7469    3.1027 H         1 UNK         0.0791 
    157 H157      -48.9263  -27.0807    3.4399 H         1 UNK         0.3028 
@<TRIPOS>BOND
     1    1    2 1    
     2    1   82 1    
     3    1   83 1    
     4    1   84 1    
     5    2    3 2    
     6    2    4 am   BACKBONE|DICT|INTERRES
     7    4    5 1    
     8    4   85 1    
     9    5    6 1    
    10    5   80 1    
    11    5   86 1    
    12    6    7 1    
    13    6   87 1    
    14    6   88 1    
    15    7    8 1    
    16    8    9 1    
    17    8   89 1    
    18    8   90 1    
    19    9   10 ar   
    20    9   14 ar   
    21   10   11 ar   
    22   10   91 1    
    23   11   12 ar   
    24   11   58 1    
    25   12   13 ar   
    26   12   92 1    
    27   13   14 ar   
    28   13   15 1    
    29   14   93 1    
    30   15   16 1    
    31   15   94 1    
    32   15   95 1    
    33   16   17 1    
    34   17   18 1    
    35   17   96 1    
    36   17   97 1    
    37   18   19 1    
    38   18   22 1    
    39   18   98 1    
    40   19   20 am   BACKBONE|DICT|INTERRES
    41   19   21 2    
    42   20   99 1    
    43   20  100 1    
    44   22   23 am   BACKBONE|DICT|INTERRES
    45   22  101 1    
    46   23   24 2    
    47   23   25 1    
    48   25   26 1    
    49   25   27 1    
    50   25  102 1    
    51   26  103 1    
    52   26  104 1    
    53   26  105 1    
    54   27   28 am   BACKBONE|DICT|INTERRES
    55   27  106 1    
    56   28   29 2    
    57   28   30 1    
    58   30   31 1    
    59   30   32 1    
    60   30  107 1    
    61   31  108 1    
    62   31  109 1    
    63   31  110 1    
    64   32   33 am   BACKBONE|DICT|INTERRES
    65   32  111 1    
    66   33   34 2    
    67   33   35 1    
    68   35   36 1    
    69   35   37 1    
    70   35  112 1    
    71   36  113 1    
    72   36  114 1    
    73   36  115 1    
    74   37   38 am   BACKBONE|DICT|INTERRES
    75   37  116 1    
    76   38   39 2    
    77   38   40 1    
    78   40   41 1    
    79   40   42 1    
    80   40  117 1    
    81   41  118 1    
    82   41  119 1    
    83   41  120 1    
    84   42   43 am   BACKBONE|DICT|INTERRES
    85   42  121 1    
    86   43   44 2    
    87   43   45 1    
    88   45   46 1    
    89   45   47 1    
    90   45  122 1    
    91   46  123 1    
    92   46  124 1    
    93   46  125 1    
    94   47   48 am   BACKBONE|DICT|INTERRES
    95   47  126 1    
    96   48   49 2    
    97   48   50 1    
    98   50   51 1    
    99   50   52 1    
   100   50  127 1    
   101   51  128 1    
   102   51  129 1    
   103   51  130 1    
   104   52   53 am   BACKBONE|DICT|INTERRES
   105   52  131 1    
   106   53   54 2    
   107   53   55 1    
   108   55   56 1    
   109   55   59 1    
   110   55  132 1    
   111   56   57 1    
   112   56  133 1    
   113   56  134 1    
   114   57   58 1    
   115   58  135 1    
   116   58  136 1    
   117   59   60 am   BACKBONE|DICT|INTERRES
   118   59  137 1    
   119   60   61 2    
   120   60   62 1    
   121   62   63 1    
   122   62   64 1    
   123   62  138 1    
   124   63  139 1    
   125   63  140 1    
   126   63  141 1    
   127   64   65 am   BACKBONE|DICT|INTERRES
   128   64  142 1    
   129   65   66 2    
   130   65   67 1    
   131   67   68 1    
   132   67   69 1    
   133   67  143 1    
   134   68  144 1    
   135   68  145 1    
   136   68  146 1    
   137   69   70 am   BACKBONE|DICT|INTERRES
   138   69  147 1    
   139   70   71 2    
   140   70   72 1    
   141   72   73 1    
   142   72   74 1    
   143   72  148 1    
   144   73  149 1    
   145   73  150 1    
   146   73  151 1    
   147   74   75 am   BACKBONE|DICT|INTERRES
   148   74  152 1    
   149   75   76 2    
   150   75   77 1    
   151   77   78 1    
   152   77   79 1    
   153   77  153 1    
   154   78  154 1    
   155   78  155 1    
   156   78  156 1    
   157   79   80 am   BACKBONE|DICT|INTERRES
   158   79  157 1    
   159   80   81 2    
@<TRIPOS>SUBSTRUCTURE
     1 UNK         1 GROUP             0       ****    0 ROOT    
