@<TRIPOS>MOLECULE
3R207
157   159    1
SMALL
USER_CHARGES


@<TRIPOS>ATOM
      1 CA        -47.6677  -22.9427    4.0590 C.3       0 UNK        -0.1975 
      2 C         -48.1302  -23.8666    5.1748 C.2       0 UNK         0.4852 
      3 O         -47.5644  -24.9460    5.3479 O.2       0 UNK        -0.5216 
      4 N         -49.1320  -23.4391    5.9581 N.am      1 UNK        -0.4461 
      5 CA        -49.8118  -24.2015    7.0226 C.3       1 UNK         0.0864 
      6 C6        -50.5970  -25.4260    6.4797 C.3       14 UNK        -0.0898 
      7 S7        -51.8657  -24.9709    5.2538 S.3       14 UNK        -0.2598 
      8 C8        -52.7042  -26.5777    5.0094 C.3       14 UNK         0.0286 
      9 C9        -53.3843  -27.1525    6.2542 C.ar      14 UNK        -0.0844 
     10 C10       -53.9076  -26.3298    7.2584 C.ar      14 UNK        -0.0881 
     11 C11       -54.5146  -26.8817    8.3880 C.ar      14 UNK        -0.0643 
     12 C12       -54.6457  -28.2685    8.4906 C.ar      14 UNK        -0.0930 
     13 C13       -54.1135  -29.1125    7.5080 C.ar      14 UNK        -0.0827 
     14 C14       -53.4940  -28.5404    6.3914 C.ar      14 UNK        -0.1249 
     15 C15       -54.1829  -30.6394    7.6002 C.3       14 UNK         0.0141 
     16 S16       -54.6074  -31.3307    9.2391 S.3       14 UNK        -0.2313 
     17 C17       -53.1147  -30.9385   10.2145 C.3       14 UNK        -0.0915 
     18 CA        -53.3941  -30.9678   11.7408 C.3       13 UNK         0.0968 
     19 C         -52.0766  -30.8717   12.5600 C.2       13 UNK         0.5732 
     20 N         -51.3669  -31.9824   12.7129 N.am      13 UNK        -0.7310 
     21 O         -51.6804  -29.8123   13.0380 O.2       13 UNK        -0.5035 
     22 N         -54.3904  -29.9563   12.1203 N.am      13 UNK        -0.4233 
     23 C         -55.0321  -29.9033   13.2924 C.2       13 UNK         0.4989 
     24 O         -54.8929  -30.7233   14.2034 O.2       13 UNK        -0.4996 
     25 CA        -56.0632  -28.7695   13.4431 C.3       12 UNK         0.0216 
     26 CB        -57.4939  -29.3262   13.3518 C.3       12 UNK        -0.1964 
     27 N         -55.9168  -28.0077   14.6872 N.am      12 UNK        -0.4276 
     28 C         -54.8208  -27.3228   15.0359 C.2       12 UNK         0.5020 
     29 O         -53.7736  -27.3137   14.3857 O.2       12 UNK        -0.5489 
     30 CA        -54.9023  -26.4847   16.3166 C.3       11 UNK         0.0294 
     31 CB        -54.6739  -27.3494   17.5697 C.3       11 UNK        -0.2019 
     32 N         -53.8604  -25.4725   16.2104 N.am      11 UNK        -0.4493 
     33 C         -53.7768  -24.3094   16.8611 C.2       11 UNK         0.4932 
     34 O         -54.6110  -23.9195   17.6800 O.2       11 UNK        -0.5029 
     35 CA        -52.5423  -23.4466   16.5255 C.3       10 UNK         0.0280 
     36 CB        -52.2666  -22.3402   17.5659 C.3       10 UNK        -0.1976 
     37 N         -51.3463  -24.2644   16.2798 N.am      10 UNK        -0.4242 
     38 C         -50.7294  -25.0772   17.1536 C.2       10 UNK         0.5072 
     39 O         -51.0302  -25.1761   18.3440 O.2       10 UNK        -0.5224 
     40 CA        -49.5943  -25.9548   16.6022 C.3       9 UNK         0.0343 
     41 CB        -50.1612  -27.2843   16.0749 C.3       9 UNK        -0.2003 
     42 N         -48.8252  -25.3098   15.5388 N.am      9 UNK        -0.4272 
     43 C         -48.0023  -24.2641   15.6980 C.2       9 UNK         0.4988 
     44 O         -47.7745  -23.7243   16.7810 O.2       9 UNK        -0.5108 
     45 CA        -47.3244  -23.7280   14.4275 C.3       8 UNK         0.0248 
     46 CB        -46.0973  -24.5779   14.0560 C.3       8 UNK        -0.2001 
     47 N         -48.2600  -23.6975   13.3022 N.am      8 UNK        -0.4140 
     48 C         -49.1159  -22.6950   13.0632 C.2       8 UNK         0.5028 
     49 O         -49.1575  -21.6584   13.7267 O.2       8 UNK        -0.5428 
     50 CA        -50.0913  -22.8612   11.8844 C.3       7 UNK         0.0264 
     51 CB        -49.5564  -22.1291   10.6444 C.3       7 UNK        -0.1988 
     52 N         -50.3924  -24.2587   11.5504 N.am      7 UNK        -0.4454 
     53 C         -51.1520  -25.0558   12.3167 C.2       7 UNK         0.5027 
     54 O         -51.6068  -24.7135   13.4107 O.2       7 UNK        -0.5083 
     55 CA        -51.4098  -26.4836   11.7901 C.3       6 UNK         0.0844 
     56 C56       -52.3937  -26.4757   10.5909 C.3       14 UNK        -0.0967 
     57 S57       -54.1418  -26.3377   11.0971 S.3       14 UNK        -0.2604 
     58 C58       -54.9853  -25.9772    9.5189 C.3       14 UNK         0.0134 
     59 N         -50.2013  -27.2473   11.4593 N.am      6 UNK        -0.4116 
     60 C         -49.0326  -27.3037   12.1077 C.2       5 UNK         0.5034 
     61 O         -48.7451  -26.6027   13.0758 O.2       5 UNK        -0.5045 
     62 CA        -47.9709  -28.2905   11.5898 C.3       5 UNK         0.0224 
     63 CB        -47.9713  -29.5839   12.4264 C.3       5 UNK        -0.1978 
     64 N         -48.0226  -28.5814   10.1486 N.am      5 UNK        -0.4737 
     65 C         -48.9597  -29.2330    9.4419 C.2       4 UNK         0.5027 
     66 O         -49.9859  -29.6891    9.9418 O.2       4 UNK        -0.5211 
     67 CA        -48.7554  -29.3493    7.9189 C.3       4 UNK         0.0297 
     68 CB        -50.0750  -29.1110    7.1632 C.3       4 UNK        -0.1993 
     69 N         -47.7454  -28.4054    7.4338 N.am      4 UNK        -0.4486 
     70 C         -46.4450  -28.6829    7.2691 C.2       3 UNK         0.4961 
     71 O         -45.9575  -29.8046    7.4065 O.2       3 UNK        -0.5105 
     72 CA        -45.5239  -27.4963    6.9386 C.3       3 UNK         0.0299 
     73 CB        -45.3192  -27.3803    5.4200 C.3       3 UNK        -0.1972 
     74 N         -46.0245  -26.2234    7.4722 N.am      3 UNK        -0.4305 
     75 C         -46.0248  -25.9005    8.7774 C.2       2 UNK         0.5006 
     76 O         -45.5979  -26.6468    9.6578 O.2       2 UNK        -0.5106 
     77 CA        -46.6266  -24.5431    9.1857 C.3       2 UNK         0.0296 
     78 CB        -45.5315  -23.4703    9.2865 C.3       2 UNK        -0.2002 
     79 N         -47.6665  -24.0943    8.2599 N.am      2 UNK        -0.4032 
     80 C         -48.8993  -24.6158    8.2027 C.2       1 UNK         0.5000 
     81 O         -49.3286  -25.3969    9.0542 O.2       1 UNK        -0.5238 
     82 H82       -46.6170  -22.6880    4.1937 H         1 UNK         0.0889 
     83 H83       -48.2421  -22.0170    4.0306 H         1 UNK         0.0889 
     84 H84       -47.7771  -23.4394    3.0955 H         1 UNK         0.0889 
     85 H85       -49.5345  -22.5308    5.7704 H         1 UNK         0.3028 
     86 H86       -50.5394  -23.5157    7.4594 H         1 UNK         0.0864 
     87 H87       -51.1063  -25.9357    7.2982 H         1 UNK         0.0720 
     88 H88       -49.9223  -26.1565    6.0305 H         1 UNK         0.0720 
     89 H89       -51.9704  -27.2875    4.6240 H         1 UNK         0.0814 
     90 H90       -53.4577  -26.4599    4.2299 H         1 UNK         0.0814 
     91 H91       -53.8254  -25.2554    7.1749 H         1 UNK         0.1469 
     92 H92       -55.1358  -28.6776    9.3609 H         1 UNK         0.1381 
     93 H93       -53.0890  -29.1843    5.6223 H         1 UNK         0.1206 
     94 H94       -54.9257  -30.9895    6.8825 H         1 UNK         0.0813 
     95 H95       -53.2285  -31.0663    7.2881 H         1 UNK         0.0813 
     96 H96       -52.7293  -29.9615    9.9184 H         1 UNK         0.0638 
     97 H97       -52.3443  -31.6637    9.9461 H         1 UNK         0.0638 
     98 H98       -53.8354  -31.9384   11.9764 H         1 UNK         0.0568 
     99 H99       -50.5064  -31.9406   13.2342 H         1 UNK         0.3450 
    100 H100      -51.6724  -32.8572   12.3173 H         1 UNK         0.3450 
    101 H101      -54.5312  -29.2120   11.4555 H         1 UNK         0.2987 
    102 H102      -55.9296  -28.0650   12.6210 H         1 UNK         0.0766 
    103 H103      -58.2351  -28.5269   13.3688 H         1 UNK         0.0798 
    104 H104      -57.7142  -30.0088   14.1738 H         1 UNK         0.0798 
    105 H105      -57.6383  -29.8793   12.4225 H         1 UNK         0.0798 
    106 H106      -56.7185  -27.9875   15.3007 H         1 UNK         0.3198 
    107 H107      -55.8778  -25.9962   16.3651 H         1 UNK         0.0843 
    108 H108      -53.7034  -27.8469   17.5408 H         1 UNK         0.0831 
    109 H109      -55.4367  -28.1239   17.6576 H         1 UNK         0.0831 
    110 H110      -54.7145  -26.7503   18.4795 H         1 UNK         0.0831 
    111 H111      -53.1736  -25.6954   15.4957 H         1 UNK         0.3133 
    112 H112      -52.7663  -22.9556   15.5775 H         1 UNK         0.0566 
    113 H113      -51.3873  -21.7547   17.2976 H         1 UNK         0.0814 
    114 H114      -53.1082  -21.6497   17.6317 H         1 UNK         0.0814 
    115 H115      -52.1064  -22.7498   18.5635 H         1 UNK         0.0814 
    116 H116      -51.0684  -24.3262   15.3042 H         1 UNK         0.3091 
    117 H117      -48.9119  -26.1740   17.4260 H         1 UNK         0.0702 
    118 H118      -49.3652  -27.9549   15.7507 H         1 UNK         0.0785 
    119 H119      -50.8311  -27.1311   15.2266 H         1 UNK         0.0785 
    120 H120      -50.7293  -27.8031   16.8482 H         1 UNK         0.0785 
    121 H121      -48.9005  -25.7264   14.6118 H         1 UNK         0.2998 
    122 H122      -46.9770  -22.7132   14.6337 H         1 UNK         0.0697 
    123 H123      -46.3638  -25.6148   13.8487 H         1 UNK         0.0825 
    124 H124      -45.3708  -24.5862   14.8695 H         1 UNK         0.0825 
    125 H125      -45.5926  -24.1805   13.1752 H         1 UNK         0.0825 
    126 H126      -48.3492  -24.5505   12.7638 H         1 UNK         0.3029 
    127 H127      -51.0295  -22.3825   12.1747 H         1 UNK         0.0897 
    128 H128      -50.2352  -22.2256    9.7973 H         1 UNK         0.0792 
    129 H129      -49.4425  -21.0630   10.8454 H         1 UNK         0.0792 
    130 H130      -48.5774  -22.5037   10.3480 H         1 UNK         0.0792 
    131 H131      -50.0144  -24.6367   10.6846 H         1 UNK         0.3086 
    132 H132      -51.8683  -27.0440   12.6057 H         1 UNK         0.0583 
    133 H133      -52.1498  -25.6916    9.8712 H         1 UNK         0.1020 
    134 H134      -52.3050  -27.4127   10.0383 H         1 UNK         0.1020 
    135 H135      -56.0609  -26.0980    9.6540 H         1 UNK         0.0694 
    136 H136      -54.8207  -24.9275    9.2707 H         1 UNK         0.0694 
    137 H137      -50.3104  -27.9360   10.7235 H         1 UNK         0.2989 
    138 H138      -47.0088  -27.8010   11.7511 H         1 UNK         0.1055 
    139 H139      -47.8344  -29.3613   13.4856 H         1 UNK         0.0806 
    140 H140      -47.1635  -30.2514   12.1271 H         1 UNK         0.0806 
    141 H141      -48.9110  -30.1284   12.3319 H         1 UNK         0.0806 
    142 H142      -47.2378  -28.2074    9.6296 H         1 UNK         0.3061 
    143 H143      -48.4323  -30.3720    7.7140 H         1 UNK         0.0734 
    144 H144      -49.9274  -29.1001    6.0833 H         1 UNK         0.0832 
    145 H145      -50.7953  -29.9003    7.3824 H         1 UNK         0.0832 
    146 H146      -50.5404  -28.1701    7.4533 H         1 UNK         0.0832 
    147 H147      -48.0443  -27.4484    7.3131 H         1 UNK         0.3156 
    148 H148      -44.5515  -27.6942    7.3950 H         1 UNK         0.0589 
    149 H149      -46.2625  -27.2281    4.8941 H         1 UNK         0.0808 
    150 H150      -44.8678  -28.2885    5.0185 H         1 UNK         0.0808 
    151 H151      -44.6575  -26.5511    5.1691 H         1 UNK         0.0808 
    152 H152      -46.4409  -25.5888    6.7950 H         1 UNK         0.3098 
    153 H153      -47.0707  -24.6655   10.1764 H         1 UNK         0.0720 
    154 H154      -44.7560  -23.7715    9.9923 H         1 UNK         0.0791 
    155 H155      -45.9369  -22.5218    9.6393 H         1 UNK         0.0791 
    156 H156      -45.0473  -23.2934    8.3253 H         1 UNK         0.0791 
    157 H157      -47.3917  -23.4465    7.5356 H         1 UNK         0.3028 
@<TRIPOS>BOND
     1    1    2 1    
     2    1   82 1    
     3    1   83 1    
     4    1   84 1    
     5    2    3 2    
     6    2    4 am   BACKBONE|DICT|INTERRES
     7    4    5 1    
     8    4   85 1    
     9    5    6 1    
    10    5   80 1    
    11    5   86 1    
    12    6    7 1    
    13    6   87 1    
    14    6   88 1    
    15    7    8 1    
    16    8    9 1    
    17    8   89 1    
    18    8   90 1    
    19    9   10 ar   
    20    9   14 ar   
    21   10   11 ar   
    22   10   91 1    
    23   11   12 ar   
    24   11   58 1    
    25   12   13 ar   
    26   12   92 1    
    27   13   14 ar   
    28   13   15 1    
    29   14   93 1    
    30   15   16 1    
    31   15   94 1    
    32   15   95 1    
    33   16   17 1    
    34   17   18 1    
    35   17   96 1    
    36   17   97 1    
    37   18   19 1    
    38   18   22 1    
    39   18   98 1    
    40   19   20 am   BACKBONE|DICT|INTERRES
    41   19   21 2    
    42   20   99 1    
    43   20  100 1    
    44   22   23 am   BACKBONE|DICT|INTERRES
    45   22  101 1    
    46   23   24 2    
    47   23   25 1    
    48   25   26 1    
    49   25   27 1    
    50   25  102 1    
    51   26  103 1    
    52   26  104 1    
    53   26  105 1    
    54   27   28 am   BACKBONE|DICT|INTERRES
    55   27  106 1    
    56   28   29 2    
    57   28   30 1    
    58   30   31 1    
    59   30   32 1    
    60   30  107 1    
    61   31  108 1    
    62   31  109 1    
    63   31  110 1    
    64   32   33 am   BACKBONE|DICT|INTERRES
    65   32  111 1    
    66   33   34 2    
    67   33   35 1    
    68   35   36 1    
    69   35   37 1    
    70   35  112 1    
    71   36  113 1    
    72   36  114 1    
    73   36  115 1    
    74   37   38 am   BACKBONE|DICT|INTERRES
    75   37  116 1    
    76   38   39 2    
    77   38   40 1    
    78   40   41 1    
    79   40   42 1    
    80   40  117 1    
    81   41  118 1    
    82   41  119 1    
    83   41  120 1    
    84   42   43 am   BACKBONE|DICT|INTERRES
    85   42  121 1    
    86   43   44 2    
    87   43   45 1    
    88   45   46 1    
    89   45   47 1    
    90   45  122 1    
    91   46  123 1    
    92   46  124 1    
    93   46  125 1    
    94   47   48 am   BACKBONE|DICT|INTERRES
    95   47  126 1    
    96   48   49 2    
    97   48   50 1    
    98   50   51 1    
    99   50   52 1    
   100   50  127 1    
   101   51  128 1    
   102   51  129 1    
   103   51  130 1    
   104   52   53 am   BACKBONE|DICT|INTERRES
   105   52  131 1    
   106   53   54 2    
   107   53   55 1    
   108   55   56 1    
   109   55   59 1    
   110   55  132 1    
   111   56   57 1    
   112   56  133 1    
   113   56  134 1    
   114   57   58 1    
   115   58  135 1    
   116   58  136 1    
   117   59   60 am   BACKBONE|DICT|INTERRES
   118   59  137 1    
   119   60   61 2    
   120   60   62 1    
   121   62   63 1    
   122   62   64 1    
   123   62  138 1    
   124   63  139 1    
   125   63  140 1    
   126   63  141 1    
   127   64   65 am   BACKBONE|DICT|INTERRES
   128   64  142 1    
   129   65   66 2    
   130   65   67 1    
   131   67   68 1    
   132   67   69 1    
   133   67  143 1    
   134   68  144 1    
   135   68  145 1    
   136   68  146 1    
   137   69   70 am   BACKBONE|DICT|INTERRES
   138   69  147 1    
   139   70   71 2    
   140   70   72 1    
   141   72   73 1    
   142   72   74 1    
   143   72  148 1    
   144   73  149 1    
   145   73  150 1    
   146   73  151 1    
   147   74   75 am   BACKBONE|DICT|INTERRES
   148   74  152 1    
   149   75   76 2    
   150   75   77 1    
   151   77   78 1    
   152   77   79 1    
   153   77  153 1    
   154   78  154 1    
   155   78  155 1    
   156   78  156 1    
   157   79   80 am   BACKBONE|DICT|INTERRES
   158   79  157 1    
   159   80   81 2    
@<TRIPOS>SUBSTRUCTURE
     1 UNK         1 GROUP             0       ****    0 ROOT    
