@<TRIPOS>MOLECULE
3R207
157   159    1
SMALL
USER_CHARGES


@<TRIPOS>ATOM
      1 CA        -49.9560  -30.1010    7.0553 C.3       0 UNK        -0.1975 
      2 C         -50.0552  -29.0257    5.9858 C.2       0 UNK         0.4852 
      3 O         -49.0528  -28.7103    5.3449 O.2       0 UNK        -0.5216 
      4 N         -51.2592  -28.4718    5.7809 N.am      1 UNK        -0.4461 
      5 CA        -51.5593  -27.4477    4.7693 C.3       1 UNK         0.0864 
      6 C6        -53.0759  -27.1360    4.6315 C.3       14 UNK        -0.0898 
      7 S7        -54.1581  -28.6051    4.5967 S.3       14 UNK        -0.2598 
      8 C8        -55.0309  -28.4450    6.1916 C.3       14 UNK         0.0286 
      9 C9        -54.1160  -28.7646    7.3650 C.ar      14 UNK        -0.0844 
     10 C10       -53.4557  -27.7451    8.0595 C.ar      14 UNK        -0.0881 
     11 C11       -52.5790  -28.0494    9.1072 C.ar      14 UNK        -0.0643 
     12 C12       -52.4085  -29.3854    9.4869 C.ar      14 UNK        -0.0930 
     13 C13       -53.0700  -30.4105    8.8058 C.ar      14 UNK        -0.0827 
     14 C14       -53.9190  -30.0937    7.7439 C.ar      14 UNK        -0.1249 
     15 C15       -52.8314  -31.8645    9.1847 C.3       14 UNK         0.0141 
     16 S16       -53.6368  -32.3176   10.7505 S.3       14 UNK        -0.2313 
     17 C17       -55.4144  -32.1769   10.3393 C.3       14 UNK        -0.0915 
     18 CA        -56.1751  -31.1433   11.2120 C.3       13 UNK         0.0968 
     19 C         -56.2796  -31.6141   12.6931 C.2       13 UNK         0.5732 
     20 N         -55.4692  -31.0890   13.6058 N.am      13 UNK        -0.7310 
     21 O         -57.1122  -32.4589   13.0138 O.2       13 UNK        -0.5035 
     22 N         -55.6295  -29.7879   11.0532 N.am      13 UNK        -0.4233 
     23 C         -56.2450  -28.6725   11.4626 C.2       13 UNK         0.4989 
     24 O         -57.4086  -28.6342   11.8678 O.2       13 UNK        -0.4996 
     25 CA        -55.3923  -27.3920   11.4800 C.3       12 UNK         0.0216 
     26 CB        -56.2109  -26.1435   11.1083 C.3       12 UNK        -0.1964 
     27 N         -54.7705  -27.1922   12.7922 N.am      12 UNK        -0.4276 
     28 C         -53.8439  -27.9929   13.3353 C.2       12 UNK         0.5020 
     29 O         -53.3502  -28.9584   12.7505 O.2       12 UNK        -0.5489 
     30 CA        -53.4093  -27.6666   14.7700 C.3       11 UNK         0.0294 
     31 CB        -52.2766  -28.5862   15.2651 C.3       11 UNK        -0.2019 
     32 N         -52.9572  -26.2822   14.8687 N.am      11 UNK        -0.4493 
     33 C         -53.6245  -25.2798   15.4515 C.2       11 UNK         0.4932 
     34 O         -54.7871  -25.3720   15.8487 O.2       11 UNK        -0.5029 
     35 CA        -52.8333  -23.9682   15.6363 C.3       10 UNK         0.0280 
     36 CB        -53.5226  -22.9679   16.5875 C.3       10 UNK        -0.1976 
     37 N         -51.4464  -24.2245   16.0492 N.am      10 UNK        -0.4242 
     38 C         -51.0243  -24.8711   17.1488 C.2       10 UNK         0.5072 
     39 O         -51.7632  -25.2227   18.0695 O.2       10 UNK        -0.5224 
     40 CA        -49.5275  -25.2315   17.2278 C.3       9 UNK         0.0343 
     41 CB        -49.3290  -26.7285   16.9391 C.3       9 UNK        -0.2003 
     42 N         -48.6833  -24.4594   16.3131 N.am      9 UNK        -0.4272 
     43 C         -48.3672  -23.1683   16.4848 C.2       9 UNK         0.4988 
     44 O         -48.7022  -22.5043   17.4664 O.2       9 UNK        -0.5108 
     45 CA        -47.5624  -22.4970   15.3602 C.3       8 UNK         0.0248 
     46 CB        -46.0608  -22.7702   15.5401 C.3       8 UNK        -0.2001 
     47 N         -47.9937  -22.9099   14.0192 N.am      8 UNK        -0.4140 
     48 C         -49.2070  -22.6521   13.5040 C.2       8 UNK         0.5028 
     49 O         -50.0798  -22.0162   14.0948 O.2       8 UNK        -0.5428 
     50 CA        -49.5253  -23.2341   12.1179 C.3       7 UNK         0.0264 
     51 CB        -48.8500  -22.4162   11.0056 C.3       7 UNK        -0.1988 
     52 N         -49.1425  -24.6399   12.0007 N.am      7 UNK        -0.4454 
     53 C         -49.6892  -25.6473   12.6984 C.2       7 UNK         0.5027 
     54 O         -50.6225  -25.5076   13.4888 O.2       7 UNK        -0.5083 
     55 CA        -49.0576  -27.0434   12.5286 C.3       6 UNK         0.0844 
     56 C56       -49.7588  -27.9311   11.4642 C.3       14 UNK        -0.0967 
     57 S57       -50.0306  -27.1677    9.8215 S.3       14 UNK        -0.2604 
     58 C58       -51.8396  -26.9299    9.8335 C.3       14 UNK         0.0134 
     59 N         -47.6025  -26.9662   12.3640 N.am      6 UNK        -0.4116 
     60 C         -46.7669  -26.6157   13.3553 C.2       5 UNK         0.5034 
     61 O         -47.1395  -26.3005   14.4865 O.2       5 UNK        -0.5045 
     62 CA        -45.2651  -26.5893   13.0301 C.3       5 UNK         0.0224 
     63 CB        -44.7034  -28.0152   12.9074 C.3       5 UNK        -0.1978 
     64 N         -44.9559  -25.8295   11.8183 N.am      5 UNK        -0.4737 
     65 C         -45.1491  -24.5105   11.6823 C.2       4 UNK         0.5027 
     66 O         -45.6043  -23.7870   12.5663 O.2       4 UNK        -0.5211 
     67 CA        -44.8266  -23.9040   10.3060 C.3       4 UNK         0.0297 
     68 CB        -43.3260  -23.5917   10.1928 C.3       4 UNK        -0.1993 
     69 N         -45.2489  -24.7284    9.1659 N.am      4 UNK        -0.4486 
     70 C         -46.4910  -25.1937    8.9797 C.2       3 UNK         0.4961 
     71 O         -47.3970  -25.0816    9.8080 O.2       3 UNK        -0.5105 
     72 CA        -46.7678  -25.9321    7.6612 C.3       3 UNK         0.0299 
     73 CB        -46.5029  -27.4374    7.8245 C.3       3 UNK        -0.1972 
     74 N         -48.1629  -25.7349    7.2734 N.am      3 UNK        -0.4305 
     75 C         -48.6766  -24.5716    6.8518 C.2       2 UNK         0.5006 
     76 O         -47.9954  -23.6004    6.5156 O.2       2 UNK        -0.5106 
     77 CA        -50.2126  -24.4842    6.8483 C.3       2 UNK         0.0296 
     78 CB        -50.7572  -23.2041    6.1779 C.3       2 UNK        -0.2002 
     79 N         -50.8410  -25.6908    6.3009 N.am      2 UNK        -0.4032 
     80 C         -50.7943  -26.1359    5.0347 C.2       1 UNK         0.5000 
     81 O         -50.2059  -25.5714    4.1109 O.2       1 UNK        -0.5238 
     82 H82       -50.8564  -30.7131    7.0782 H         1 UNK         0.0889 
     83 H83       -49.8135  -29.6496    8.0363 H         1 UNK         0.0889 
     84 H84       -49.1110  -30.7600    6.8581 H         1 UNK         0.0889 
     85 H85       -52.0524  -28.7904    6.3241 H         1 UNK         0.3028 
     86 H86       -51.2115  -27.8415    3.8117 H         1 UNK         0.0864 
     87 H87       -53.4186  -26.4712    5.4255 H         1 UNK         0.0720 
     88 H88       -53.2484  -26.5844    3.7054 H         1 UNK         0.0720 
     89 H89       -55.8811  -29.1290    6.1961 H         1 UNK         0.0814 
     90 H90       -55.4522  -27.4431    6.2884 H         1 UNK         0.0814 
     91 H91       -53.6183  -26.7143    7.7765 H         1 UNK         0.1469 
     92 H92       -51.7498  -29.6351   10.3062 H         1 UNK         0.1381 
     93 H93       -54.4222  -30.8834    7.2023 H         1 UNK         0.1206 
     94 H94       -53.1762  -32.5354    8.3963 H         1 UNK         0.0813 
     95 H95       -51.7586  -32.0371    9.2813 H         1 UNK         0.0813 
     96 H96       -55.5275  -31.9170    9.2867 H         1 UNK         0.0638 
     97 H97       -55.8660  -33.1653   10.4414 H         1 UNK         0.0638 
     98 H98       -57.2001  -31.1121   10.8378 H         1 UNK         0.0568 
     99 H99       -55.5354  -31.3945   14.5631 H         1 UNK         0.3450 
    100 H100      -54.7463  -30.4397   13.3205 H         1 UNK         0.3450 
    101 H101      -54.6500  -29.7404   10.8031 H         1 UNK         0.2987 
    102 H102      -54.6031  -27.5001   10.7394 H         1 UNK         0.0766 
    103 H103      -55.5765  -25.2594   11.0424 H         1 UNK         0.0798 
    104 H104      -56.9967  -25.9395   11.8368 H         1 UNK         0.0798 
    105 H105      -56.6910  -26.2696   10.1369 H         1 UNK         0.0798 
    106 H106      -55.1362  -26.4405   13.3600 H         1 UNK         0.3198 
    107 H107      -54.2764  -27.8311   15.4134 H         1 UNK         0.0843 
    108 H108      -51.3823  -28.4927   14.6480 H         1 UNK         0.0831 
    109 H109      -52.5825  -29.6329   15.2408 H         1 UNK         0.0831 
    110 H110      -52.0012  -28.3544   16.2940 H         1 UNK         0.0831 
    111 H111      -52.0430  -26.0736   14.4679 H         1 UNK         0.3133 
    112 H112      -52.7744  -23.5033   14.6511 H         1 UNK         0.0566 
    113 H113      -52.9387  -22.0531   16.6892 H         1 UNK         0.0814 
    114 H114      -54.5055  -22.6847   16.2092 H         1 UNK         0.0814 
    115 H115      -53.6672  -23.3870   17.5836 H         1 UNK         0.0814 
    116 H116      -50.7494  -24.0007   15.3501 H         1 UNK         0.3091 
    117 H117      -49.1969  -25.0343   18.2497 H         1 UNK         0.0702 
    118 H118      -49.9171  -27.3422   17.6227 H         1 UNK         0.0785 
    119 H119      -49.6339  -26.9845   15.9240 H         1 UNK         0.0785 
    120 H120      -48.2854  -27.0206   17.0579 H         1 UNK         0.0785 
    121 H121      -48.3057  -24.9553   15.5114 H         1 UNK         0.2998 
    122 H122      -47.7217  -21.4197   15.4404 H         1 UNK         0.0697 
    123 H123      -45.8255  -23.8281   15.4152 H         1 UNK         0.0825 
    124 H124      -45.7242  -22.4743   16.5346 H         1 UNK         0.0825 
    125 H125      -45.4676  -22.2085   14.8183 H         1 UNK         0.0825 
    126 H126      -47.3064  -23.4030   13.4543 H         1 UNK         0.3029 
    127 H127      -50.6064  -23.1745   11.9739 H         1 UNK         0.0897 
    128 H128      -49.1339  -22.7817   10.0182 H         1 UNK         0.0792 
    129 H129      -47.7626  -22.4605   11.0755 H         1 UNK         0.0792 
    130 H130      -49.1404  -21.3663   11.0603 H         1 UNK         0.0792 
    131 H131      -48.4182  -24.8587   11.3170 H         1 UNK         0.3086 
    132 H132      -49.2192  -27.5541   13.4808 H         1 UNK         0.0583 
    133 H133      -49.1887  -28.8497   11.3182 H         1 UNK         0.1020 
    134 H134      -50.7173  -28.2625   11.8673 H         1 UNK         0.1020 
    135 H135      -52.2084  -26.8483   10.8566 H         1 UNK         0.0694 
    136 H136      -52.0527  -25.9678    9.3662 H         1 UNK         0.0694 
    137 H137      -47.2363  -27.1293   11.4377 H         1 UNK         0.2989 
    138 H138      -44.7623  -26.0981   13.8666 H         1 UNK         0.1055 
    139 H139      -44.9188  -28.5972   13.8048 H         1 UNK         0.0806 
    140 H140      -43.6202  -28.0045   12.7842 H         1 UNK         0.0806 
    141 H141      -45.1318  -28.5521   12.0602 H         1 UNK         0.0806 
    142 H142      -44.5923  -26.3426   11.0284 H         1 UNK         0.3061 
    143 H143      -45.3733  -22.9614   10.2361 H         1 UNK         0.0734 
    144 H144      -43.1002  -23.0492    9.2747 H         1 UNK         0.0832 
    145 H145      -42.9944  -22.9674   11.0240 H         1 UNK         0.0832 
    146 H146      -42.7208  -24.4990   10.2059 H         1 UNK         0.0832 
    147 H147      -44.5627  -24.8815    8.4405 H         1 UNK         0.3156 
    148 H148      -46.1214  -25.5340    6.8765 H         1 UNK         0.0589 
    149 H149      -47.1235  -27.8752    8.6078 H         1 UNK         0.0808 
    150 H150      -46.7058  -27.9770    6.8989 H         1 UNK         0.0808 
    151 H151      -45.4616  -27.6269    8.0878 H         1 UNK         0.0808 
    152 H152      -48.8058  -26.4529    7.5736 H         1 UNK         0.3098 
    153 H153      -50.5049  -24.4432    7.8989 H         1 UNK         0.0720 
    154 H154      -51.8462  -23.1715    6.2099 H         1 UNK         0.0791 
    155 H155      -50.4486  -23.1262    5.1351 H         1 UNK         0.0791 
    156 H156      -50.3919  -22.3128    6.6895 H         1 UNK         0.0791 
    157 H157      -51.3231  -26.2717    6.9709 H         1 UNK         0.3028 
@<TRIPOS>BOND
     1    1    2 1    
     2    1   82 1    
     3    1   83 1    
     4    1   84 1    
     5    2    3 2    
     6    2    4 am   BACKBONE|DICT|INTERRES
     7    4    5 1    
     8    4   85 1    
     9    5    6 1    
    10    5   80 1    
    11    5   86 1    
    12    6    7 1    
    13    6   87 1    
    14    6   88 1    
    15    7    8 1    
    16    8    9 1    
    17    8   89 1    
    18    8   90 1    
    19    9   10 ar   
    20    9   14 ar   
    21   10   11 ar   
    22   10   91 1    
    23   11   12 ar   
    24   11   58 1    
    25   12   13 ar   
    26   12   92 1    
    27   13   14 ar   
    28   13   15 1    
    29   14   93 1    
    30   15   16 1    
    31   15   94 1    
    32   15   95 1    
    33   16   17 1    
    34   17   18 1    
    35   17   96 1    
    36   17   97 1    
    37   18   19 1    
    38   18   22 1    
    39   18   98 1    
    40   19   20 am   BACKBONE|DICT|INTERRES
    41   19   21 2    
    42   20   99 1    
    43   20  100 1    
    44   22   23 am   BACKBONE|DICT|INTERRES
    45   22  101 1    
    46   23   24 2    
    47   23   25 1    
    48   25   26 1    
    49   25   27 1    
    50   25  102 1    
    51   26  103 1    
    52   26  104 1    
    53   26  105 1    
    54   27   28 am   BACKBONE|DICT|INTERRES
    55   27  106 1    
    56   28   29 2    
    57   28   30 1    
    58   30   31 1    
    59   30   32 1    
    60   30  107 1    
    61   31  108 1    
    62   31  109 1    
    63   31  110 1    
    64   32   33 am   BACKBONE|DICT|INTERRES
    65   32  111 1    
    66   33   34 2    
    67   33   35 1    
    68   35   36 1    
    69   35   37 1    
    70   35  112 1    
    71   36  113 1    
    72   36  114 1    
    73   36  115 1    
    74   37   38 am   BACKBONE|DICT|INTERRES
    75   37  116 1    
    76   38   39 2    
    77   38   40 1    
    78   40   41 1    
    79   40   42 1    
    80   40  117 1    
    81   41  118 1    
    82   41  119 1    
    83   41  120 1    
    84   42   43 am   BACKBONE|DICT|INTERRES
    85   42  121 1    
    86   43   44 2    
    87   43   45 1    
    88   45   46 1    
    89   45   47 1    
    90   45  122 1    
    91   46  123 1    
    92   46  124 1    
    93   46  125 1    
    94   47   48 am   BACKBONE|DICT|INTERRES
    95   47  126 1    
    96   48   49 2    
    97   48   50 1    
    98   50   51 1    
    99   50   52 1    
   100   50  127 1    
   101   51  128 1    
   102   51  129 1    
   103   51  130 1    
   104   52   53 am   BACKBONE|DICT|INTERRES
   105   52  131 1    
   106   53   54 2    
   107   53   55 1    
   108   55   56 1    
   109   55   59 1    
   110   55  132 1    
   111   56   57 1    
   112   56  133 1    
   113   56  134 1    
   114   57   58 1    
   115   58  135 1    
   116   58  136 1    
   117   59   60 am   BACKBONE|DICT|INTERRES
   118   59  137 1    
   119   60   61 2    
   120   60   62 1    
   121   62   63 1    
   122   62   64 1    
   123   62  138 1    
   124   63  139 1    
   125   63  140 1    
   126   63  141 1    
   127   64   65 am   BACKBONE|DICT|INTERRES
   128   64  142 1    
   129   65   66 2    
   130   65   67 1    
   131   67   68 1    
   132   67   69 1    
   133   67  143 1    
   134   68  144 1    
   135   68  145 1    
   136   68  146 1    
   137   69   70 am   BACKBONE|DICT|INTERRES
   138   69  147 1    
   139   70   71 2    
   140   70   72 1    
   141   72   73 1    
   142   72   74 1    
   143   72  148 1    
   144   73  149 1    
   145   73  150 1    
   146   73  151 1    
   147   74   75 am   BACKBONE|DICT|INTERRES
   148   74  152 1    
   149   75   76 2    
   150   75   77 1    
   151   77   78 1    
   152   77   79 1    
   153   77  153 1    
   154   78  154 1    
   155   78  155 1    
   156   78  156 1    
   157   79   80 am   BACKBONE|DICT|INTERRES
   158   79  157 1    
   159   80   81 2    
@<TRIPOS>SUBSTRUCTURE
     1 UNK         1 GROUP             0       ****    0 ROOT    
