@<TRIPOS>MOLECULE
3R207
157   159    1
SMALL
USER_CHARGES


@<TRIPOS>ATOM
      1 CA        -47.8006  -32.9122    4.6966 C.3       0 UNK        -0.1975 
      2 C         -48.2596  -31.4711    4.8611 C.2       0 UNK         0.4852 
      3 O         -48.6724  -31.0925    5.9565 O.2       0 UNK        -0.5216 
      4 N         -48.1561  -30.6737    3.7866 N.am      1 UNK        -0.4461 
      5 CA        -48.5672  -29.2696    3.5812 C.3       1 UNK         0.0864 
      6 C6        -50.0802  -29.0920    3.2644 C.3       14 UNK        -0.0898 
      7 S7        -51.2386  -29.5036    4.6120 S.3       14 UNK        -0.2598 
      8 C8        -51.5545  -27.8458    5.2926 C.3       14 UNK         0.0286 
      9 C9        -52.1988  -27.8808    6.6712 C.ar      14 UNK        -0.0844 
     10 C10       -51.6569  -28.6728    7.6876 C.ar      14 UNK        -0.0881 
     11 C11       -52.2153  -28.6639    8.9667 C.ar      14 UNK        -0.0643 
     12 C12       -53.3127  -27.8417    9.2342 C.ar      14 UNK        -0.0930 
     13 C13       -53.8745  -27.0443    8.2273 C.ar      14 UNK        -0.0827 
     14 C14       -53.3064  -27.0739    6.9490 C.ar      14 UNK        -0.1249 
     15 C15       -55.0701  -26.1161    8.4646 C.3       14 UNK         0.0141 
     16 S16       -55.9501  -26.3191   10.0538 S.3       14 UNK        -0.2313 
     17 C17       -56.6830  -27.9795    9.8540 C.3       14 UNK        -0.0915 
     18 CA        -57.9649  -28.1873   10.7134 C.3       13 UNK         0.0968 
     19 C         -58.6591  -29.5543   10.4249 C.2       13 UNK         0.5732 
     20 N         -59.2661  -30.2109   11.4067 N.am      13 UNK        -0.7310 
     21 O         -58.6835  -30.0146    9.2855 O.2       13 UNK        -0.5035 
     22 N         -57.7694  -27.8853   12.1457 N.am      13 UNK        -0.4233 
     23 C         -56.9197  -28.4993   12.9792 C.2       13 UNK         0.4989 
     24 O         -56.1762  -29.4303   12.6599 O.2       13 UNK        -0.4996 
     25 CA        -56.9545  -28.0211   14.4399 C.3       12 UNK         0.0216 
     26 CB        -58.0174  -28.7995   15.2340 C.3       12 UNK        -0.1964 
     27 N         -55.6540  -28.1947   15.0888 N.am      12 UNK        -0.4276 
     28 C         -54.6160  -27.3650   14.9343 C.2       12 UNK         0.5020 
     29 O         -54.6537  -26.3336   14.2577 O.2       12 UNK        -0.5489 
     30 CA        -53.3124  -27.7716   15.6415 C.3       11 UNK         0.0294 
     31 CB        -52.4344  -28.6272   14.7143 C.3       11 UNK        -0.2019 
     32 N         -52.5538  -26.5950   16.0648 N.am      11 UNK        -0.4493 
     33 C         -52.8517  -25.8400   17.1305 C.2       11 UNK         0.4932 
     34 O         -53.7717  -26.0949   17.9108 O.2       11 UNK        -0.5029 
     35 CA        -51.9624  -24.6011   17.3602 C.3       10 UNK         0.0280 
     36 CB        -52.1627  -23.9521   18.7462 C.3       10 UNK        -0.1976 
     37 N         -50.5437  -24.8721   17.1036 N.am      10 UNK        -0.4242 
     38 C         -49.7477  -25.7524   17.7309 C.2       10 UNK         0.5072 
     39 O         -50.0930  -26.4180   18.7085 O.2       10 UNK        -0.5224 
     40 CA        -48.3274  -25.9552   17.1657 C.3       9 UNK         0.0343 
     41 CB        -48.2234  -27.3279   16.4796 C.3       9 UNK        -0.2003 
     42 N         -47.9129  -24.9203   16.2144 N.am      9 UNK        -0.4272 
     43 C         -47.5733  -23.6660   16.5420 C.2       9 UNK         0.4988 
     44 O         -47.4989  -23.2566   17.7010 O.2       9 UNK        -0.5108 
     45 CA        -47.3060  -22.6935   15.3787 C.3       8 UNK         0.0248 
     46 CB        -45.8565  -22.8228   14.8843 C.3       8 UNK        -0.2001 
     47 N         -48.2339  -22.8668   14.2543 N.am      8 UNK        -0.4140 
     48 C         -49.5609  -22.6784   14.3294 C.2       8 UNK         0.5028 
     49 O         -50.1421  -22.3047   15.3479 O.2       8 UNK        -0.5428 
     50 CA        -50.3923  -23.0074   13.0792 C.3       7 UNK         0.0264 
     51 CB        -50.2958  -21.8776   12.0419 C.3       7 UNK        -0.1988 
     52 N         -50.0141  -24.2835   12.4688 N.am      7 UNK        -0.4454 
     53 C         -50.1381  -25.4783   13.0660 C.2       7 UNK         0.5027 
     54 O         -50.6453  -25.6359   14.1769 O.2       7 UNK        -0.5083 
     55 CA        -49.5597  -26.7025   12.3296 C.3       6 UNK         0.0844 
     56 C56       -50.5573  -27.2472   11.2865 C.3       14 UNK        -0.0967 
     57 S57       -50.0403  -28.8794   10.6620 S.3       14 UNK        -0.2604 
     58 C58       -51.6246  -29.5373   10.0626 C.3       14 UNK         0.0134 
     59 N         -48.2470  -26.4211   11.7431 N.am      6 UNK        -0.4116 
     60 C         -47.1566  -26.0779   12.4420 C.2       5 UNK         0.5034 
     61 O         -47.1170  -26.0100   13.6696 O.2       5 UNK        -0.5045 
     62 CA        -45.9163  -25.6850   11.6290 C.3       5 UNK         0.0224 
     63 CB        -45.1590  -26.9314   11.1452 C.3       5 UNK        -0.1978 
     64 N         -46.2687  -24.8319   10.4916 N.am      5 UNK        -0.4737 
     65 C         -46.7040  -23.5694   10.6121 C.2       4 UNK         0.5027 
     66 O         -46.8106  -22.9844   11.6895 O.2       4 UNK        -0.5211 
     67 CA        -47.1263  -22.8513    9.3199 C.3       4 UNK         0.0297 
     68 CB        -45.9045  -22.2354    8.6206 C.3       4 UNK        -0.1993 
     69 N         -47.8409  -23.7248    8.3855 N.am      4 UNK        -0.4486 
     70 C         -49.0377  -24.2787    8.6284 C.2       3 UNK         0.4961 
     71 O         -49.6775  -24.1014    9.6635 O.2       3 UNK        -0.5105 
     72 CA        -49.6002  -25.2171    7.5480 C.3       3 UNK         0.0299 
     73 CB        -50.3289  -24.3974    6.4701 C.3       3 UNK        -0.1972 
     74 N         -48.5889  -26.0798    6.9236 N.am      3 UNK        -0.4305 
     75 C         -47.7793  -26.9266    7.5757 C.2       2 UNK         0.5006 
     76 O         -47.7617  -27.0415    8.8029 O.2       2 UNK        -0.5106 
     77 CA        -46.8112  -27.7567    6.7100 C.3       2 UNK         0.0296 
     78 CB        -45.8836  -28.6518    7.5526 C.3       2 UNK        -0.2002 
     79 N         -47.5050  -28.5970    5.7314 N.am      2 UNK        -0.4032 
     80 C         -48.0128  -28.2003    4.5595 C.2       1 UNK         0.5000 
     81 O         -48.0259  -27.0162    4.2140 O.2       1 UNK        -0.5238 
     82 H82       -46.9882  -33.1286    5.3898 H         1 UNK         0.0889 
     83 H83       -47.4485  -33.1179    3.6859 H         1 UNK         0.0889 
     84 H84       -48.6235  -33.5928    4.9132 H         1 UNK         0.0889 
     85 H85       -47.7576  -31.0898    2.9560 H         1 UNK         0.3028 
     86 H86       -48.0582  -29.0162    2.6496 H         1 UNK         0.0864 
     87 H87       -50.2784  -28.0753    2.9193 H         1 UNK         0.0720 
     88 H88       -50.3396  -29.7300    2.4183 H         1 UNK         0.0720 
     89 H89       -52.1711  -27.2876    4.5863 H         1 UNK         0.0814 
     90 H90       -50.6126  -27.3086    5.3765 H         1 UNK         0.0814 
     91 H91       -50.7908  -29.2900    7.4875 H         1 UNK         0.1469 
     92 H92       -53.7174  -27.8290   10.2356 H         1 UNK         0.1381 
     93 H93       -53.7211  -26.4496    6.1691 H         1 UNK         0.1206 
     94 H94       -54.7155  -25.0861    8.4077 H         1 UNK         0.0813 
     95 H95       -55.7895  -26.2366    7.6531 H         1 UNK         0.0813 
     96 H96       -55.9314  -28.7306   10.0987 H         1 UNK         0.0638 
     97 H97       -56.9137  -28.1183    8.7964 H         1 UNK         0.0638 
     98 H98       -58.6909  -27.4491   10.3716 H         1 UNK         0.0568 
     99 H99       -59.7220  -31.0866   11.2045 H         1 UNK         0.3450 
    100 H100      -59.2678  -29.8446   12.3441 H         1 UNK         0.3450 
    101 H101      -58.3550  -27.1478   12.5099 H         1 UNK         0.2987 
    102 H102      -57.2152  -26.9602   14.4580 H         1 UNK         0.0766 
    103 H103      -58.0630  -28.4637   16.2703 H         1 UNK         0.0798 
    104 H104      -57.8160  -29.8717   15.2373 H         1 UNK         0.0798 
    105 H105      -59.0107  -28.6557   14.8068 H         1 UNK         0.0798 
    106 H106      -55.5235  -29.0480   15.6130 H         1 UNK         0.3198 
    107 H107      -53.5580  -28.3612   16.5277 H         1 UNK         0.0843 
    108 H108      -52.1614  -28.0834   13.8113 H         1 UNK         0.0831 
    109 H109      -52.9572  -29.5325   14.4029 H         1 UNK         0.0831 
    110 H110      -51.5140  -28.9359   15.2102 H         1 UNK         0.0831 
    111 H111      -51.8251  -26.2700   15.4310 H         1 UNK         0.3133 
    112 H112      -52.2661  -23.8701   16.6095 H         1 UNK         0.0566 
    113 H113      -51.5312  -23.0716   18.8653 H         1 UNK         0.0814 
    114 H114      -53.1959  -23.6297   18.8801 H         1 UNK         0.0814 
    115 H115      -51.9315  -24.6440   19.5565 H         1 UNK         0.0814 
    116 H116      -50.1590  -24.3883   16.3015 H         1 UNK         0.3091 
    117 H117      -47.6350  -25.9412   18.0099 H         1 UNK         0.0702 
    118 H118      -47.2105  -27.5185   16.1243 H         1 UNK         0.0785 
    119 H119      -48.8970  -27.4008   15.6248 H         1 UNK         0.0785 
    120 H120      -48.4821  -28.1328   17.1688 H         1 UNK         0.0785 
    121 H121      -47.8646  -25.1977   15.2370 H         1 UNK         0.2998 
    122 H122      -47.4431  -21.6799   15.7609 H         1 UNK         0.0697 
    123 H123      -45.6593  -23.8089   14.4636 H         1 UNK         0.0825 
    124 H124      -45.1499  -22.6685   15.7009 H         1 UNK         0.0825 
    125 H125      -45.6319  -22.0817   14.1169 H         1 UNK         0.0825 
    126 H126      -47.8240  -23.1241   13.3599 H         1 UNK         0.3029 
    127 H127      -51.4357  -23.0909   13.3912 H         1 UNK         0.0897 
    128 H128      -50.9486  -22.0667   11.1895 H         1 UNK         0.0792 
    129 H129      -50.5964  -20.9229   12.4754 H         1 UNK         0.0792 
    130 H130      -49.2801  -21.7598   11.6640 H         1 UNK         0.0792 
    131 H131      -49.6615  -24.2446   11.5140 H         1 UNK         0.3086 
    132 H132      -49.4109  -27.4762   13.0861 H         1 UNK         0.0583 
    133 H133      -51.5558  -27.3400   11.7162 H         1 UNK         0.1020 
    134 H134      -50.6534  -26.5617   10.4426 H         1 UNK         0.1020 
    135 H135      -51.4659  -30.5453    9.6767 H         1 UNK         0.0694 
    136 H136      -52.3167  -29.6350   10.9007 H         1 UNK         0.0694 
    137 H137      -48.1744  -26.4996   10.7331 H         1 UNK         0.2989 
    138 H138      -45.2531  -25.1173   12.2857 H         1 UNK         0.1055 
    139 H139      -44.8133  -27.5251   11.9924 H         1 UNK         0.0806 
    140 H140      -44.2807  -26.6627   10.5582 H         1 UNK         0.0806 
    141 H141      -45.7892  -27.5788   10.5354 H         1 UNK         0.0806 
    142 H142      -46.2785  -25.2651    9.5789 H         1 UNK         0.3061 
    143 H143      -47.8022  -22.0405    9.5999 H         1 UNK         0.0734 
    144 H144      -46.1986  -21.6483    7.7504 H         1 UNK         0.0832 
    145 H145      -45.3684  -21.5653    9.2943 H         1 UNK         0.0832 
    146 H146      -45.1978  -22.9977    8.2901 H         1 UNK         0.0832 
    147 H147      -47.3893  -23.9283    7.5059 H         1 UNK         0.3156 
    148 H148      -50.3292  -25.8715    8.0303 H         1 UNK         0.0589 
    149 H149      -51.0846  -23.7513    6.9195 H         1 UNK         0.0808 
    150 H150      -49.6422  -23.7576    5.9145 H         1 UNK         0.0808 
    151 H151      -50.8446  -25.0345    5.7540 H         1 UNK         0.0808 
    152 H152      -48.5238  -26.0672    5.9101 H         1 UNK         0.3098 
    153 H153      -46.1800  -27.0484    6.1693 H         1 UNK         0.0720 
    154 H154      -46.4493  -29.3642    8.1550 H         1 UNK         0.0791 
    155 H155      -45.2764  -28.0537    8.2322 H         1 UNK         0.0791 
    156 H156      -45.1963  -29.2166    6.9226 H         1 UNK         0.0791 
    157 H157      -47.6726  -29.5671    5.9897 H         1 UNK         0.3028 
@<TRIPOS>BOND
     1    1    2 1    
     2    1   82 1    
     3    1   83 1    
     4    1   84 1    
     5    2    3 2    
     6    2    4 am   BACKBONE|DICT|INTERRES
     7    4    5 1    
     8    4   85 1    
     9    5    6 1    
    10    5   80 1    
    11    5   86 1    
    12    6    7 1    
    13    6   87 1    
    14    6   88 1    
    15    7    8 1    
    16    8    9 1    
    17    8   89 1    
    18    8   90 1    
    19    9   10 ar   
    20    9   14 ar   
    21   10   11 ar   
    22   10   91 1    
    23   11   12 ar   
    24   11   58 1    
    25   12   13 ar   
    26   12   92 1    
    27   13   14 ar   
    28   13   15 1    
    29   14   93 1    
    30   15   16 1    
    31   15   94 1    
    32   15   95 1    
    33   16   17 1    
    34   17   18 1    
    35   17   96 1    
    36   17   97 1    
    37   18   19 1    
    38   18   22 1    
    39   18   98 1    
    40   19   20 am   BACKBONE|DICT|INTERRES
    41   19   21 2    
    42   20   99 1    
    43   20  100 1    
    44   22   23 am   BACKBONE|DICT|INTERRES
    45   22  101 1    
    46   23   24 2    
    47   23   25 1    
    48   25   26 1    
    49   25   27 1    
    50   25  102 1    
    51   26  103 1    
    52   26  104 1    
    53   26  105 1    
    54   27   28 am   BACKBONE|DICT|INTERRES
    55   27  106 1    
    56   28   29 2    
    57   28   30 1    
    58   30   31 1    
    59   30   32 1    
    60   30  107 1    
    61   31  108 1    
    62   31  109 1    
    63   31  110 1    
    64   32   33 am   BACKBONE|DICT|INTERRES
    65   32  111 1    
    66   33   34 2    
    67   33   35 1    
    68   35   36 1    
    69   35   37 1    
    70   35  112 1    
    71   36  113 1    
    72   36  114 1    
    73   36  115 1    
    74   37   38 am   BACKBONE|DICT|INTERRES
    75   37  116 1    
    76   38   39 2    
    77   38   40 1    
    78   40   41 1    
    79   40   42 1    
    80   40  117 1    
    81   41  118 1    
    82   41  119 1    
    83   41  120 1    
    84   42   43 am   BACKBONE|DICT|INTERRES
    85   42  121 1    
    86   43   44 2    
    87   43   45 1    
    88   45   46 1    
    89   45   47 1    
    90   45  122 1    
    91   46  123 1    
    92   46  124 1    
    93   46  125 1    
    94   47   48 am   BACKBONE|DICT|INTERRES
    95   47  126 1    
    96   48   49 2    
    97   48   50 1    
    98   50   51 1    
    99   50   52 1    
   100   50  127 1    
   101   51  128 1    
   102   51  129 1    
   103   51  130 1    
   104   52   53 am   BACKBONE|DICT|INTERRES
   105   52  131 1    
   106   53   54 2    
   107   53   55 1    
   108   55   56 1    
   109   55   59 1    
   110   55  132 1    
   111   56   57 1    
   112   56  133 1    
   113   56  134 1    
   114   57   58 1    
   115   58  135 1    
   116   58  136 1    
   117   59   60 am   BACKBONE|DICT|INTERRES
   118   59  137 1    
   119   60   61 2    
   120   60   62 1    
   121   62   63 1    
   122   62   64 1    
   123   62  138 1    
   124   63  139 1    
   125   63  140 1    
   126   63  141 1    
   127   64   65 am   BACKBONE|DICT|INTERRES
   128   64  142 1    
   129   65   66 2    
   130   65   67 1    
   131   67   68 1    
   132   67   69 1    
   133   67  143 1    
   134   68  144 1    
   135   68  145 1    
   136   68  146 1    
   137   69   70 am   BACKBONE|DICT|INTERRES
   138   69  147 1    
   139   70   71 2    
   140   70   72 1    
   141   72   73 1    
   142   72   74 1    
   143   72  148 1    
   144   73  149 1    
   145   73  150 1    
   146   73  151 1    
   147   74   75 am   BACKBONE|DICT|INTERRES
   148   74  152 1    
   149   75   76 2    
   150   75   77 1    
   151   77   78 1    
   152   77   79 1    
   153   77  153 1    
   154   78  154 1    
   155   78  155 1    
   156   78  156 1    
   157   79   80 am   BACKBONE|DICT|INTERRES
   158   79  157 1    
   159   80   81 2    
@<TRIPOS>SUBSTRUCTURE
     1 UNK         1 GROUP             0       ****    0 ROOT    
