@<TRIPOS>MOLECULE
3R207
157   159    1
SMALL
USER_CHARGES


@<TRIPOS>ATOM
      1 CA        -46.0332  -32.5602    4.8695 C.3       0 UNK        -0.1975 
      2 C         -46.8243  -31.3703    4.3468 C.2       0 UNK         0.4852 
      3 O         -46.3938  -30.7206    3.3932 O.2       0 UNK        -0.5216 
      4 N         -47.9777  -31.0804    4.9641 N.am      1 UNK        -0.4461 
      5 CA        -48.8815  -29.9826    4.5911 C.3       1 UNK         0.0864 
      6 C6        -50.2538  -30.0864    5.3017 C.3       14 UNK        -0.0898 
      7 S7        -51.0494  -31.7224    5.1816 S.3       14 UNK        -0.2598 
      8 C8        -52.7531  -31.3342    5.7166 C.3       14 UNK         0.0286 
      9 C9        -52.8184  -30.4550    6.9638 C.ar      14 UNK        -0.0844 
     10 C10       -52.1313  -30.8125    8.1308 C.ar      14 UNK        -0.0881 
     11 C11       -52.1730  -29.9913    9.2624 C.ar      14 UNK        -0.0643 
     12 C12       -52.9433  -28.8262    9.2319 C.ar      14 UNK        -0.0930 
     13 C13       -53.6244  -28.4513    8.0725 C.ar      14 UNK        -0.0827 
     14 C14       -53.5607  -29.2689    6.9412 C.ar      14 UNK        -0.1249 
     15 C15       -54.4050  -27.1484    8.0519 C.3       14 UNK         0.0141 
     16 S16       -55.9826  -27.3201    8.9358 S.3       14 UNK        -0.2313 
     17 C17       -56.3031  -25.5831    9.3906 C.3       14 UNK        -0.0915 
     18 CA        -55.6452  -25.1806   10.7387 C.3       13 UNK         0.0968 
     19 C         -55.9404  -23.6905   11.0634 C.2       13 UNK         0.5732 
     20 N         -55.1369  -22.7727   10.5432 N.am      13 UNK        -0.7310 
     21 O         -56.9146  -23.3586   11.7372 O.2       13 UNK        -0.5035 
     22 N         -56.0299  -26.1011   11.8181 N.am      13 UNK        -0.4233 
     23 C         -55.5180  -26.1140   13.0541 C.2       13 UNK         0.4989 
     24 O         -54.6557  -25.3259   13.4476 O.2       13 UNK        -0.4996 
     25 CA        -56.0626  -27.1797   14.0300 C.3       12 UNK         0.0216 
     26 CB        -56.8794  -28.3076   13.3553 C.3       12 UNK        -0.1964 
     27 N         -54.9948  -27.7387   14.8671 N.am      12 UNK        -0.4276 
     28 C         -53.9055  -28.4040   14.4558 C.2       12 UNK         0.5020 
     29 O         -53.6885  -28.7237   13.2853 O.2       12 UNK        -0.5489 
     30 CA        -52.8744  -28.7320   15.5496 C.3       11 UNK         0.0294 
     31 CB        -51.6861  -29.5588   15.0218 C.3       11 UNK        -0.2019 
     32 N         -52.3645  -27.4931   16.1358 N.am      11 UNK        -0.4493 
     33 C         -52.9184  -26.8217   17.1531 C.2       11 UNK         0.4932 
     34 O         -53.9355  -27.2055   17.7338 O.2       11 UNK        -0.5029 
     35 CA        -52.2626  -25.4838   17.5543 C.3       10 UNK         0.0280 
     36 CB        -52.5280  -25.1010   19.0257 C.3       10 UNK        -0.1976 
     37 N         -50.8320  -25.4116   17.2318 N.am      10 UNK        -0.4242 
     38 C         -49.8339  -26.1538   17.7384 C.2       10 UNK         0.5072 
     39 O         -49.9850  -26.9755   18.6437 O.2       10 UNK        -0.5224 
     40 CA        -48.4275  -25.9841   17.1252 C.3       9 UNK         0.0343 
     41 CB        -47.9772  -27.2893   16.4460 C.3       9 UNK        -0.2003 
     42 N         -48.3313  -24.8928   16.1515 N.am      9 UNK        -0.4272 
     43 C         -48.2437  -23.5914   16.4585 C.2       9 UNK         0.4988 
     44 O         -48.1584  -23.1641   17.6101 O.2       9 UNK        -0.5108 
     45 CA        -48.2988  -22.5945   15.2854 C.3       8 UNK         0.0248 
     46 CB        -46.8971  -22.3747   14.6951 C.3       8 UNK        -0.2001 
     47 N         -49.2289  -22.9969   14.2229 N.am      8 UNK        -0.4140 
     48 C         -50.5520  -23.1479   14.3896 C.2       8 UNK         0.5028 
     49 O         -51.1359  -22.9196   15.4490 O.2       8 UNK        -0.5428 
     50 CA        -51.3553  -23.7048   13.2025 C.3       7 UNK         0.0264 
     51 CB        -51.6590  -22.6028   12.1764 C.3       7 UNK        -0.1988 
     52 N         -50.6997  -24.8379   12.5438 N.am      7 UNK        -0.4454 
     53 C         -50.4042  -25.9984   13.1491 C.2       7 UNK         0.5027 
     54 O         -50.6697  -26.2402   14.3250 O.2       7 UNK        -0.5083 
     55 CA        -49.6363  -27.0546   12.3299 C.3       6 UNK         0.0844 
     56 C56       -50.5934  -27.7867   11.3641 C.3       14 UNK        -0.0967 
     57 S57       -49.8843  -29.3243   10.6876 S.3       14 UNK        -0.2604 
     58 C58       -51.3812  -30.3553   10.5119 C.3       14 UNK         0.0134 
     59 N         -48.4752  -26.4675   11.6546 N.am      6 UNK        -0.4116 
     60 C         -47.4644  -25.8494   12.2852 C.2       5 UNK         0.5034 
     61 O         -47.3409  -25.8012   13.5088 O.2       5 UNK        -0.5045 
     62 CA        -46.4600  -25.0927   11.4058 C.3       5 UNK         0.0224 
     63 CB        -45.3795  -26.0376   10.8564 C.3       5 UNK        -0.1978 
     64 N         -47.1330  -24.3903   10.3099 N.am      5 UNK        -0.4737 
     65 C         -47.8912  -23.2969   10.4791 C.2       4 UNK         0.5027 
     66 O         -48.0550  -22.7459   11.5670 O.2       4 UNK        -0.5211 
     67 CA        -48.6147  -22.7425    9.2396 C.3       4 UNK         0.0297 
     68 CB        -47.6934  -21.7910    8.4606 C.3       4 UNK        -0.1993 
     69 N         -49.1039  -23.7941    8.3454 N.am      4 UNK        -0.4486 
     70 C         -50.0755  -24.6639    8.6558 C.2       3 UNK         0.4961 
     71 O         -50.7089  -24.6353    9.7098 O.2       3 UNK        -0.5105 
     72 CA        -50.3554  -25.7878    7.6426 C.3       3 UNK         0.0299 
     73 CB        -51.4246  -25.3509    6.6297 C.3       3 UNK        -0.1972 
     74 N         -49.1646  -26.2591    6.9264 N.am      3 UNK        -0.4305 
     75 C         -48.0571  -26.7503    7.5001 C.2       2 UNK         0.5006 
     76 O         -47.8941  -26.8160    8.7195 O.2       2 UNK        -0.5106 
     77 CA        -46.9700  -27.2748    6.5442 C.3       2 UNK         0.0296 
     78 CB        -45.6297  -27.5330    7.2572 C.3       2 UNK        -0.2002 
     79 N         -47.4252  -28.5151    5.9195 N.am      2 UNK        -0.4032 
     80 C         -48.2934  -28.5907    4.9005 C.2       1 UNK         0.5000 
     81 O         -48.6869  -27.6073    4.2689 O.2       1 UNK        -0.5238 
     82 H82       -46.5310  -33.0439    5.7098 H         1 UNK         0.0889 
     83 H83       -45.0458  -32.2386    5.1995 H         1 UNK         0.0889 
     84 H84       -45.9048  -33.3005    4.0804 H         1 UNK         0.0889 
     85 H85       -48.3025  -31.6711    5.7171 H         1 UNK         0.3028 
     86 H86       -49.0465  -30.0375    3.5129 H         1 UNK         0.0864 
     87 H87       -50.1462  -29.8531    6.3634 H         1 UNK         0.0720 
     88 H88       -50.9429  -29.3423    4.8957 H         1 UNK         0.0720 
     89 H89       -53.2840  -32.2668    5.9115 H         1 UNK         0.0814 
     90 H90       -53.2712  -30.8560    4.8839 H         1 UNK         0.0814 
     91 H91       -51.5439  -31.7203    8.1469 H         1 UNK         0.1469 
     92 H92       -53.0094  -28.1984   10.1086 H         1 UNK         0.1381 
     93 H93       -54.0879  -28.9788    6.0426 H         1 UNK         0.1206 
     94 H94       -54.5947  -26.8203    7.0288 H         1 UNK         0.0813 
     95 H95       -53.8017  -26.3698    8.5206 H         1 UNK         0.0813 
     96 H96       -57.3852  -25.4484    9.4423 H         1 UNK         0.0638 
     97 H97       -55.9564  -24.9376    8.5812 H         1 UNK         0.0638 
     98 H98       -54.5631  -25.2774   10.6287 H         1 UNK         0.0568 
     99 H99       -55.3255  -21.8002   10.7277 H         1 UNK         0.3450 
    100 H100      -54.3504  -23.0299    9.9689 H         1 UNK         0.3450 
    101 H101      -56.7331  -26.7829   11.5786 H         1 UNK         0.2987 
    102 H102      -56.7317  -26.6492   14.7089 H         1 UNK         0.0766 
    103 H103      -57.2000  -29.0494   14.0869 H         1 UNK         0.0798 
    104 H104      -56.3030  -28.8294   12.5899 H         1 UNK         0.0798 
    105 H105      -57.7838  -27.9193   12.8855 H         1 UNK         0.0798 
    106 H106      -55.0300  -27.4912   15.8496 H         1 UNK         0.3198 
    107 H107      -53.3789  -29.3231   16.3170 H         1 UNK         0.0843 
    108 H108      -51.1394  -29.0304   14.2409 H         1 UNK         0.0831 
    109 H109      -52.0270  -30.5039   14.5973 H         1 UNK         0.0831 
    110 H110      -50.9826  -29.7953   15.8201 H         1 UNK         0.0831 
    111 H111      -51.6075  -27.0412   15.6225 H         1 UNK         0.3133 
    112 H112      -52.7396  -24.7262   16.9312 H         1 UNK         0.0566 
    113 H113      -52.0598  -24.1497   19.2783 H         1 UNK         0.0814 
    114 H114      -53.5968  -24.9945   19.2151 H         1 UNK         0.0814 
    115 H115      -52.1516  -25.8558   19.7166 H         1 UNK         0.0814 
    116 H116      -50.6027  -24.7709   16.4804 H         1 UNK         0.3091 
    117 H117      -47.7401  -25.7754   17.9475 H         1 UNK         0.0702 
    118 H118      -46.9653  -27.2016   16.0499 H         1 UNK         0.0785 
    119 H119      -48.6359  -27.5615   15.6206 H         1 UNK         0.0785 
    120 H120      -47.9777  -28.1211   17.1515 H         1 UNK         0.0785 
    121 H121      -48.3326  -25.1624   15.1723 H         1 UNK         0.2998 
    122 H122      -48.6520  -21.6407   15.6824 H         1 UNK         0.0697 
    123 H123      -46.4919  -23.2909   14.2655 H         1 UNK         0.0825 
    124 H124      -46.1989  -22.0373   15.4622 H         1 UNK         0.0825 
    125 H125      -46.9105  -21.6158   13.9125 H         1 UNK         0.0825 
    126 H126      -48.8314  -23.1456   13.2985 H         1 UNK         0.3029 
    127 H127      -52.3062  -24.0686   13.5968 H         1 UNK         0.0897 
    128 H128      -52.2852  -22.9792   11.3679 H         1 UNK         0.0792 
    129 H129      -52.1941  -21.7741   12.6418 H         1 UNK         0.0792 
    130 H130      -50.7487  -22.1983   11.7343 H         1 UNK         0.0792 
    131 H131      -50.5044  -24.7343   11.5497 H         1 UNK         0.3086 
    132 H132      -49.2519  -27.7872   13.0429 H         1 UNK         0.0583 
    133 H133      -51.5166  -28.0424   11.8872 H         1 UNK         0.1020 
    134 H134      -50.8824  -27.1377   10.5380 H         1 UNK         0.1020 
    135 H135      -51.0747  -31.4015   10.4701 H         1 UNK         0.0694 
    136 H136      -52.0125  -30.2625   11.3972 H         1 UNK         0.0694 
    137 H137      -48.4615  -26.5072   10.6402 H         1 UNK         0.2989 
    138 H138      -45.9660  -24.3471   12.0329 H         1 UNK         0.1055 
    139 H139      -44.8122  -26.4883   11.6718 H         1 UNK         0.0806 
    140 H140      -44.6691  -25.5057   10.2235 H         1 UNK         0.0806 
    141 H141      -45.8056  -26.8537   10.2735 H         1 UNK         0.0806 
    142 H142      -47.1203  -24.8429    9.4056 H         1 UNK         0.3061 
    143 H143      -49.4774  -22.1708    9.5881 H         1 UNK         0.0734 
    144 H144      -48.2170  -21.3261    7.6250 H         1 UNK         0.0832 
    145 H145      -47.3343  -20.9857    9.1032 H         1 UNK         0.0832 
    146 H146      -46.8172  -22.3064    8.0651 H         1 UNK         0.0832 
    147 H147      -48.6427  -23.8920    7.4527 H         1 UNK         0.3156 
    148 H148      -50.7505  -26.6385    8.2013 H         1 UNK         0.0589 
    149 H149      -51.0594  -24.5623    5.9707 H         1 UNK         0.0808 
    150 H150      -51.7457  -26.1878    6.0089 H         1 UNK         0.0808 
    151 H151      -52.3108  -24.9657    7.1354 H         1 UNK         0.0808 
    152 H152      -49.2209  -26.2939    5.9147 H         1 UNK         0.3098 
    153 H153      -46.8014  -26.5192    5.7739 H         1 UNK         0.0720 
    154 H154      -44.8682  -27.8749    6.5561 H         1 UNK         0.0791 
    155 H155      -45.7240  -28.2850    8.0419 H         1 UNK         0.0791 
    156 H156      -45.2542  -26.6206    7.7220 H         1 UNK         0.0791 
    157 H157      -47.1837  -29.3724    6.3947 H         1 UNK         0.3028 
@<TRIPOS>BOND
     1    1    2 1    
     2    1   82 1    
     3    1   83 1    
     4    1   84 1    
     5    2    3 2    
     6    2    4 am   BACKBONE|DICT|INTERRES
     7    4    5 1    
     8    4   85 1    
     9    5    6 1    
    10    5   80 1    
    11    5   86 1    
    12    6    7 1    
    13    6   87 1    
    14    6   88 1    
    15    7    8 1    
    16    8    9 1    
    17    8   89 1    
    18    8   90 1    
    19    9   10 ar   
    20    9   14 ar   
    21   10   11 ar   
    22   10   91 1    
    23   11   12 ar   
    24   11   58 1    
    25   12   13 ar   
    26   12   92 1    
    27   13   14 ar   
    28   13   15 1    
    29   14   93 1    
    30   15   16 1    
    31   15   94 1    
    32   15   95 1    
    33   16   17 1    
    34   17   18 1    
    35   17   96 1    
    36   17   97 1    
    37   18   19 1    
    38   18   22 1    
    39   18   98 1    
    40   19   20 am   BACKBONE|DICT|INTERRES
    41   19   21 2    
    42   20   99 1    
    43   20  100 1    
    44   22   23 am   BACKBONE|DICT|INTERRES
    45   22  101 1    
    46   23   24 2    
    47   23   25 1    
    48   25   26 1    
    49   25   27 1    
    50   25  102 1    
    51   26  103 1    
    52   26  104 1    
    53   26  105 1    
    54   27   28 am   BACKBONE|DICT|INTERRES
    55   27  106 1    
    56   28   29 2    
    57   28   30 1    
    58   30   31 1    
    59   30   32 1    
    60   30  107 1    
    61   31  108 1    
    62   31  109 1    
    63   31  110 1    
    64   32   33 am   BACKBONE|DICT|INTERRES
    65   32  111 1    
    66   33   34 2    
    67   33   35 1    
    68   35   36 1    
    69   35   37 1    
    70   35  112 1    
    71   36  113 1    
    72   36  114 1    
    73   36  115 1    
    74   37   38 am   BACKBONE|DICT|INTERRES
    75   37  116 1    
    76   38   39 2    
    77   38   40 1    
    78   40   41 1    
    79   40   42 1    
    80   40  117 1    
    81   41  118 1    
    82   41  119 1    
    83   41  120 1    
    84   42   43 am   BACKBONE|DICT|INTERRES
    85   42  121 1    
    86   43   44 2    
    87   43   45 1    
    88   45   46 1    
    89   45   47 1    
    90   45  122 1    
    91   46  123 1    
    92   46  124 1    
    93   46  125 1    
    94   47   48 am   BACKBONE|DICT|INTERRES
    95   47  126 1    
    96   48   49 2    
    97   48   50 1    
    98   50   51 1    
    99   50   52 1    
   100   50  127 1    
   101   51  128 1    
   102   51  129 1    
   103   51  130 1    
   104   52   53 am   BACKBONE|DICT|INTERRES
   105   52  131 1    
   106   53   54 2    
   107   53   55 1    
   108   55   56 1    
   109   55   59 1    
   110   55  132 1    
   111   56   57 1    
   112   56  133 1    
   113   56  134 1    
   114   57   58 1    
   115   58  135 1    
   116   58  136 1    
   117   59   60 am   BACKBONE|DICT|INTERRES
   118   59  137 1    
   119   60   61 2    
   120   60   62 1    
   121   62   63 1    
   122   62   64 1    
   123   62  138 1    
   124   63  139 1    
   125   63  140 1    
   126   63  141 1    
   127   64   65 am   BACKBONE|DICT|INTERRES
   128   64  142 1    
   129   65   66 2    
   130   65   67 1    
   131   67   68 1    
   132   67   69 1    
   133   67  143 1    
   134   68  144 1    
   135   68  145 1    
   136   68  146 1    
   137   69   70 am   BACKBONE|DICT|INTERRES
   138   69  147 1    
   139   70   71 2    
   140   70   72 1    
   141   72   73 1    
   142   72   74 1    
   143   72  148 1    
   144   73  149 1    
   145   73  150 1    
   146   73  151 1    
   147   74   75 am   BACKBONE|DICT|INTERRES
   148   74  152 1    
   149   75   76 2    
   150   75   77 1    
   151   77   78 1    
   152   77   79 1    
   153   77  153 1    
   154   78  154 1    
   155   78  155 1    
   156   78  156 1    
   157   79   80 am   BACKBONE|DICT|INTERRES
   158   79  157 1    
   159   80   81 2    
@<TRIPOS>SUBSTRUCTURE
     1 UNK         1 GROUP             0       ****    0 ROOT    
