@<TRIPOS>MOLECULE
3R207
157   159    1
SMALL
USER_CHARGES


@<TRIPOS>ATOM
      1 CA        -47.5696  -27.2101    5.7185 C.3       0 UNK        -0.1975 
      2 C         -48.8731  -26.4466    5.5471 C.2       0 UNK         0.4852 
      3 O         -48.8752  -25.3618    4.9627 O.2       0 UNK        -0.5216 
      4 N         -49.9844  -26.9931    6.0602 N.am      1 UNK        -0.4461 
      5 CA        -51.3326  -26.4101    5.9976 C.3       1 UNK         0.0864 
      6 C6        -52.4505  -27.4710    6.1946 C.3       14 UNK        -0.0898 
      7 S7        -52.2682  -28.9392    5.1159 S.3       14 UNK        -0.2598 
      8 C8        -53.1050  -30.2608    6.0694 C.3       14 UNK         0.0286 
      9 C9        -52.6680  -30.3111    7.5289 C.ar      14 UNK        -0.0844 
     10 C10       -51.3143  -30.4161    7.8572 C.ar      14 UNK        -0.0881 
     11 C11       -50.8964  -30.3108    9.1862 C.ar      14 UNK        -0.0643 
     12 C12       -51.8473  -30.1618   10.1999 C.ar      14 UNK        -0.0930 
     13 C13       -53.2085  -30.1053    9.8880 C.ar      14 UNK        -0.0827 
     14 C14       -53.6125  -30.1759    8.5511 C.ar      14 UNK        -0.1249 
     15 C15       -54.2431  -29.9199   10.9857 C.3       14 UNK         0.0141 
     16 S16       -54.5963  -31.4768   11.8601 S.3       14 UNK        -0.2313 
     17 C17       -53.6530  -31.2543   13.4077 C.3       14 UNK        -0.0915 
     18 CA        -54.5314  -30.6980   14.5646 C.3       13 UNK         0.0968 
     19 C         -53.7970  -30.7486   15.9349 C.2       13 UNK         0.5732 
     20 N         -53.7013  -29.6561   16.6856 N.am      13 UNK        -0.7310 
     21 O         -53.3212  -31.8070   16.3382 O.2       13 UNK        -0.5035 
     22 N         -55.0660  -29.3624   14.2474 N.am      13 UNK        -0.4233 
     23 C         -56.3615  -29.0750   14.0672 C.2       13 UNK         0.4989 
     24 O         -57.2730  -29.8978   14.1633 O.2       13 UNK        -0.4996 
     25 CA        -56.7141  -27.6246   13.7117 C.3       12 UNK         0.0216 
     26 CB        -57.0737  -26.8405   14.9849 C.3       12 UNK        -0.1964 
     27 N         -55.6113  -26.9405   13.0365 N.am      12 UNK        -0.4276 
     28 C         -55.5595  -26.6340   11.7321 C.2       12 UNK         0.5020 
     29 O         -56.4213  -26.9768   10.9212 O.2       12 UNK        -0.5489 
     30 CA        -54.3432  -25.8094   11.2441 C.3       11 UNK         0.0294 
     31 CB        -54.7309  -24.7870   10.1559 C.3       11 UNK        -0.2019 
     32 N         -53.5985  -25.1565   12.3307 N.am      11 UNK        -0.4493 
     33 C         -54.0759  -24.2753   13.2254 C.2       11 UNK         0.4932 
     34 O         -55.1860  -23.7485   13.1386 O.2       11 UNK        -0.5029 
     35 CA        -53.2006  -23.9760   14.4573 C.3       10 UNK         0.0280 
     36 CB        -54.0496  -23.7252   15.7217 C.3       10 UNK        -0.1976 
     37 N         -52.1716  -24.9864   14.7392 N.am      10 UNK        -0.4242 
     38 C         -52.3307  -26.2930   15.0136 C.2       10 UNK         0.5072 
     39 O         -53.4231  -26.8699   14.9764 O.2       10 UNK        -0.5224 
     40 CA        -51.0670  -27.1181   15.3462 C.3       9 UNK         0.0343 
     41 CB        -50.9996  -28.3839   14.4762 C.3       9 UNK        -0.2003 
     42 N         -49.8117  -26.3797   15.1828 N.am      9 UNK        -0.4272 
     43 C         -49.3024  -25.4815   16.0373 C.2       9 UNK         0.4988 
     44 O         -49.7878  -25.2318   17.1403 O.2       9 UNK        -0.5108 
     45 CA        -48.0859  -24.6739   15.5404 C.3       8 UNK         0.0248 
     46 CB        -46.7719  -25.4033   15.8602 C.3       8 UNK        -0.2001 
     47 N         -48.1575  -24.3655   14.1044 N.am      8 UNK        -0.4140 
     48 C         -49.1234  -23.6173   13.5475 C.2       8 UNK         0.5028 
     49 O         -49.9965  -23.0437   14.1969 O.2       8 UNK        -0.5428 
     50 CA        -49.1686  -23.5398   12.0145 C.3       7 UNK         0.0264 
     51 CB        -48.2229  -22.4419   11.5033 C.3       7 UNK        -0.1988 
     52 N         -48.8607  -24.8302   11.3904 N.am      7 UNK        -0.4454 
     53 C         -49.6758  -25.8982   11.4268 C.2       7 UNK         0.5027 
     54 O         -50.8173  -25.8704   11.8891 O.2       7 UNK        -0.5083 
     55 CA        -49.0980  -27.2369   10.9239 C.3       6 UNK         0.0844 
     56 C56       -49.3929  -27.4584    9.4224 C.3       14 UNK        -0.0967 
     57 S57       -48.5421  -28.9204    8.7240 S.3       14 UNK        -0.2604 
     58 C58       -49.4131  -30.3120    9.5160 C.3       14 UNK         0.0134 
     59 N         -47.6748  -27.3522   11.2444 N.am      6 UNK        -0.4116 
     60 C         -47.1959  -27.5914   12.4710 C.2       5 UNK         0.5034 
     61 O         -47.9092  -27.7396   13.4610 O.2       5 UNK        -0.5045 
     62 CA        -45.6676  -27.6428   12.6347 C.3       5 UNK         0.0224 
     63 CB        -45.1705  -29.0934   12.5342 C.3       5 UNK        -0.1978 
     64 N         -44.9433  -26.8136   11.6678 N.am      5 UNK        -0.4737 
     65 C         -45.0587  -25.4836   11.5549 C.2       4 UNK         0.5027 
     66 O         -45.7857  -24.8051   12.2837 O.2       4 UNK        -0.5211 
     67 CA        -44.2576  -24.7989   10.4268 C.3       4 UNK         0.0297 
     68 CB        -43.4690  -25.7816    9.5298 C.3       4 UNK        -0.1993 
     69 N         -45.0854  -23.9257    9.5844 N.am      4 UNK        -0.4486 
     70 C         -46.2246  -24.2494    8.9573 C.2       3 UNK         0.4961 
     71 O         -46.8011  -25.3354    9.0674 O.2       3 UNK        -0.5105 
     72 CA        -46.8141  -23.1774    8.0358 C.3       3 UNK         0.0299 
     73 CB        -46.1494  -23.2214    6.6486 C.3       3 UNK        -0.1972 
     74 N         -48.2462  -23.4184    7.9027 N.am      3 UNK        -0.4305 
     75 C         -49.1773  -22.4885    7.6629 C.2       2 UNK         0.5006 
     76 O         -48.9224  -21.2982    7.4726 O.2       2 UNK        -0.5106 
     77 CA        -50.6302  -22.9840    7.6247 C.3       2 UNK         0.0296 
     78 CB        -51.6328  -21.9157    7.1466 C.3       2 UNK        -0.2002 
     79 N         -50.7170  -24.1642    6.7680 N.am      2 UNK        -0.4032 
     80 C         -51.4664  -25.2446    7.0057 C.2       1 UNK         0.5000 
     81 O         -52.1981  -25.3557    7.9902 O.2       1 UNK        -0.5238 
     82 H82       -47.0296  -26.8394    6.5898 H         1 UNK         0.0889 
     83 H83       -46.9357  -27.0804    4.8419 H         1 UNK         0.0889 
     84 H84       -47.7452  -28.2775    5.8497 H         1 UNK         0.0889 
     85 H85       -49.9227  -27.8812    6.5385 H         1 UNK         0.3028 
     86 H86       -51.4681  -25.9853    5.0004 H         1 UNK         0.0864 
     87 H87       -52.4704  -27.7863    7.2373 H         1 UNK         0.0720 
     88 H88       -53.4289  -27.0287    5.9991 H         1 UNK         0.0720 
     89 H89       -52.8978  -31.2237    5.6008 H         1 UNK         0.0814 
     90 H90       -54.1829  -30.1085    5.9959 H         1 UNK         0.0814 
     91 H91       -50.5781  -30.5136    7.0709 H         1 UNK         0.1469 
     92 H92       -51.5291  -30.0786   11.2296 H         1 UNK         0.1381 
     93 H93       -54.6626  -30.0952    8.3051 H         1 UNK         0.1206 
     94 H94       -55.1770  -29.5443   10.5646 H         1 UNK         0.0813 
     95 H95       -53.9014  -29.1566   11.6846 H         1 UNK         0.0813 
     96 H96       -52.7902  -30.6143   13.2251 H         1 UNK         0.0638 
     97 H97       -53.2491  -32.2328   13.6733 H         1 UNK         0.0638 
     98 H98       -55.3623  -31.3938   14.6918 H         1 UNK         0.0568 
     99 H99       -53.2347  -29.7174   17.5762 H         1 UNK         0.3450 
    100 H100      -54.0784  -28.7743   16.3751 H         1 UNK         0.3450 
    101 H101      -54.3914  -28.6084   14.2232 H         1 UNK         0.2987 
    102 H102      -57.5940  -27.6469   13.0652 H         1 UNK         0.0766 
    103 H103      -57.3668  -25.8173   14.7481 H         1 UNK         0.0798 
    104 H104      -56.2364  -26.7937   15.6827 H         1 UNK         0.0798 
    105 H105      -57.9107  -27.3052   15.5079 H         1 UNK         0.0798 
    106 H106      -54.8423  -26.6415   13.6299 H         1 UNK         0.3198 
    107 H107      -53.6509  -26.5229   10.7935 H         1 UNK         0.0843 
    108 H108      -53.8698  -24.1967    9.8426 H         1 UNK         0.0831 
    109 H109      -55.5041  -24.0997   10.4996 H         1 UNK         0.0831 
    110 H110      -55.1136  -25.2909    9.2677 H         1 UNK         0.0831 
    111 H111      -52.6383  -25.4763   12.4425 H         1 UNK         0.3133 
    112 H112      -52.6683  -23.0525   14.2279 H         1 UNK         0.0566 
    113 H113      -53.4206  -23.4992   16.5827 H         1 UNK         0.0814 
    114 H114      -54.7217  -22.8772   15.5845 H         1 UNK         0.0814 
    115 H115      -54.6644  -24.5902   15.9729 H         1 UNK         0.0814 
    116 H116      -51.2274  -24.6164   14.7389 H         1 UNK         0.3091 
    117 H117      -51.1523  -27.4267   16.3899 H         1 UNK         0.0702 
    118 H118      -50.1102  -28.9741   14.6977 H         1 UNK         0.0785 
    119 H119      -50.9894  -28.1441   13.4136 H         1 UNK         0.0785 
    120 H120      -51.8590  -29.0243   14.6553 H         1 UNK         0.0785 
    121 H121      -49.2815  -26.5883   14.3429 H         1 UNK         0.2998 
    122 H122      -48.0808  -23.7221   16.0758 H         1 UNK         0.0697 
    123 H123      -45.9076  -24.8541   15.4860 H         1 UNK         0.0825 
    124 H124      -46.6453  -25.5137   16.9379 H         1 UNK         0.0825 
    125 H125      -46.7480  -26.4040   15.4313 H         1 UNK         0.0825 
    126 H126      -47.4286  -24.7422   13.5061 H         1 UNK         0.3029 
    127 H127      -50.1872  -23.2630   11.7321 H         1 UNK         0.0897 
    128 H128      -48.3564  -22.2661   10.4391 H         1 UNK         0.0792 
    129 H129      -48.4223  -21.4941   12.0054 H         1 UNK         0.0792 
    130 H130      -47.1752  -22.6847   11.6786 H         1 UNK         0.0792 
    131 H131      -47.9275  -24.9513   11.0156 H         1 UNK         0.3086 
    132 H132      -49.6179  -28.0267   11.4689 H         1 UNK         0.0583 
    133 H133      -50.4683  -27.5493    9.2550 H         1 UNK         0.1020 
    134 H134      -49.0766  -26.5926    8.8404 H         1 UNK         0.1020 
    135 H135      -48.9720  -31.2475    9.1696 H         1 UNK         0.0694 
    136 H136      -49.2469  -30.2745   10.5935 H         1 UNK         0.0694 
    137 H137      -47.0303  -27.2042   10.4786 H         1 UNK         0.2989 
    138 H138      -45.4329  -27.2676   13.6325 H         1 UNK         0.1055 
    139 H139      -45.6753  -29.7295   13.2631 H         1 UNK         0.0806 
    140 H140      -44.1010  -29.1625   12.7338 H         1 UNK         0.0806 
    141 H141      -45.3580  -29.5180   11.5469 H         1 UNK         0.0806 
    142 H142      -44.3324  -27.2948   11.0234 H         1 UNK         0.3061 
    143 H143      -43.5346  -24.1520   10.9260 H         1 UNK         0.0734 
    144 H144      -44.1273  -26.4734    9.0020 H         1 UNK         0.0832 
    145 H145      -42.8929  -25.2437    8.7767 H         1 UNK         0.0832 
    146 H146      -42.7540  -26.3680   10.1084 H         1 UNK         0.0832 
    147 H147      -44.7267  -22.9894    9.4564 H         1 UNK         0.3156 
    148 H148      -46.6489  -22.1991    8.4924 H         1 UNK         0.0589 
    149 H149      -46.5498  -22.4482    5.9927 H         1 UNK         0.0808 
    150 H150      -45.0732  -23.0592    6.7206 H         1 UNK         0.0808 
    151 H151      -46.3041  -24.1845    6.1600 H         1 UNK         0.0808 
    152 H152      -48.5204  -24.3740    8.0880 H         1 UNK         0.3098 
    153 H153      -50.8842  -23.2547    8.6522 H         1 UNK         0.0720 
    154 H154      -51.5996  -21.0324    7.7858 H         1 UNK         0.0791 
    155 H155      -52.6549  -22.2939    7.1723 H         1 UNK         0.0791 
    156 H156      -51.4197  -21.5927    6.1269 H         1 UNK         0.0791 
    157 H157      -50.0723  -24.2046    5.9811 H         1 UNK         0.3028 
@<TRIPOS>BOND
     1    1    2 1    
     2    1   82 1    
     3    1   83 1    
     4    1   84 1    
     5    2    3 2    
     6    2    4 am   BACKBONE|DICT|INTERRES
     7    4    5 1    
     8    4   85 1    
     9    5    6 1    
    10    5   80 1    
    11    5   86 1    
    12    6    7 1    
    13    6   87 1    
    14    6   88 1    
    15    7    8 1    
    16    8    9 1    
    17    8   89 1    
    18    8   90 1    
    19    9   10 ar   
    20    9   14 ar   
    21   10   11 ar   
    22   10   91 1    
    23   11   12 ar   
    24   11   58 1    
    25   12   13 ar   
    26   12   92 1    
    27   13   14 ar   
    28   13   15 1    
    29   14   93 1    
    30   15   16 1    
    31   15   94 1    
    32   15   95 1    
    33   16   17 1    
    34   17   18 1    
    35   17   96 1    
    36   17   97 1    
    37   18   19 1    
    38   18   22 1    
    39   18   98 1    
    40   19   20 am   BACKBONE|DICT|INTERRES
    41   19   21 2    
    42   20   99 1    
    43   20  100 1    
    44   22   23 am   BACKBONE|DICT|INTERRES
    45   22  101 1    
    46   23   24 2    
    47   23   25 1    
    48   25   26 1    
    49   25   27 1    
    50   25  102 1    
    51   26  103 1    
    52   26  104 1    
    53   26  105 1    
    54   27   28 am   BACKBONE|DICT|INTERRES
    55   27  106 1    
    56   28   29 2    
    57   28   30 1    
    58   30   31 1    
    59   30   32 1    
    60   30  107 1    
    61   31  108 1    
    62   31  109 1    
    63   31  110 1    
    64   32   33 am   BACKBONE|DICT|INTERRES
    65   32  111 1    
    66   33   34 2    
    67   33   35 1    
    68   35   36 1    
    69   35   37 1    
    70   35  112 1    
    71   36  113 1    
    72   36  114 1    
    73   36  115 1    
    74   37   38 am   BACKBONE|DICT|INTERRES
    75   37  116 1    
    76   38   39 2    
    77   38   40 1    
    78   40   41 1    
    79   40   42 1    
    80   40  117 1    
    81   41  118 1    
    82   41  119 1    
    83   41  120 1    
    84   42   43 am   BACKBONE|DICT|INTERRES
    85   42  121 1    
    86   43   44 2    
    87   43   45 1    
    88   45   46 1    
    89   45   47 1    
    90   45  122 1    
    91   46  123 1    
    92   46  124 1    
    93   46  125 1    
    94   47   48 am   BACKBONE|DICT|INTERRES
    95   47  126 1    
    96   48   49 2    
    97   48   50 1    
    98   50   51 1    
    99   50   52 1    
   100   50  127 1    
   101   51  128 1    
   102   51  129 1    
   103   51  130 1    
   104   52   53 am   BACKBONE|DICT|INTERRES
   105   52  131 1    
   106   53   54 2    
   107   53   55 1    
   108   55   56 1    
   109   55   59 1    
   110   55  132 1    
   111   56   57 1    
   112   56  133 1    
   113   56  134 1    
   114   57   58 1    
   115   58  135 1    
   116   58  136 1    
   117   59   60 am   BACKBONE|DICT|INTERRES
   118   59  137 1    
   119   60   61 2    
   120   60   62 1    
   121   62   63 1    
   122   62   64 1    
   123   62  138 1    
   124   63  139 1    
   125   63  140 1    
   126   63  141 1    
   127   64   65 am   BACKBONE|DICT|INTERRES
   128   64  142 1    
   129   65   66 2    
   130   65   67 1    
   131   67   68 1    
   132   67   69 1    
   133   67  143 1    
   134   68  144 1    
   135   68  145 1    
   136   68  146 1    
   137   69   70 am   BACKBONE|DICT|INTERRES
   138   69  147 1    
   139   70   71 2    
   140   70   72 1    
   141   72   73 1    
   142   72   74 1    
   143   72  148 1    
   144   73  149 1    
   145   73  150 1    
   146   73  151 1    
   147   74   75 am   BACKBONE|DICT|INTERRES
   148   74  152 1    
   149   75   76 2    
   150   75   77 1    
   151   77   78 1    
   152   77   79 1    
   153   77  153 1    
   154   78  154 1    
   155   78  155 1    
   156   78  156 1    
   157   79   80 am   BACKBONE|DICT|INTERRES
   158   79  157 1    
   159   80   81 2    
@<TRIPOS>SUBSTRUCTURE
     1 UNK         1 GROUP             0       ****    0 ROOT    
