@<TRIPOS>MOLECULE
3R207
157   159    1
SMALL
USER_CHARGES


@<TRIPOS>ATOM
      1 CA        -49.9921  -29.8651    8.0727 C.3       0 UNK        -0.1975 
      2 C         -49.6358  -29.0402    6.8479 C.2       0 UNK         0.4852 
      3 O         -48.4551  -28.7746    6.6180 O.2       0 UNK        -0.5216 
      4 N         -50.6498  -28.6283    6.0706 N.am      1 UNK        -0.4461 
      5 CA        -50.5468  -27.9455    4.7686 C.3       1 UNK         0.0864 
      6 C6        -51.9336  -27.6353    4.1498 C.3       14 UNK        -0.0898 
      7 S7        -52.9820  -29.1166    3.9454 S.3       14 UNK        -0.2598 
      8 C8        -54.3775  -28.7590    5.0618 C.3       14 UNK         0.0286 
      9 C9        -53.9726  -28.8963    6.5211 C.ar      14 UNK        -0.0844 
     10 C10       -53.5969  -27.7725    7.2601 C.ar      14 UNK        -0.0881 
     11 C11       -53.1737  -27.9073    8.5835 C.ar      14 UNK        -0.0643 
     12 C12       -53.1441  -29.1729    9.1723 C.ar      14 UNK        -0.0930 
     13 C13       -53.5707  -30.3050    8.4639 C.ar      14 UNK        -0.0827 
     14 C14       -53.9727  -30.1524    7.1333 C.ar      14 UNK        -0.1249 
     15 C15       -53.6042  -31.7136    9.0635 C.3       14 UNK         0.0141 
     16 S16       -52.9751  -31.8893   10.7694 S.3       14 UNK        -0.2313 
     17 C17       -54.4026  -31.3858   11.8034 C.3       14 UNK        -0.0915 
     18 CA        -54.2721  -29.9715   12.4396 C.3       13 UNK         0.0968 
     19 C         -55.3685  -29.7267   13.5094 C.2       13 UNK         0.5732 
     20 N         -56.3311  -28.8558   13.2370 N.am      13 UNK        -0.7310 
     21 O         -55.3761  -30.3579   14.5639 O.2       13 UNK        -0.5035 
     22 N         -52.9240  -29.7475   12.9727 N.am      13 UNK        -0.4233 
     23 C         -52.3934  -28.5572   13.2626 C.2       13 UNK         0.4989 
     24 O         -52.9896  -27.4846   13.1652 O.2       13 UNK        -0.4996 
     25 CA        -50.9072  -28.5702   13.6229 C.3       12 UNK         0.0216 
     26 CB        -50.0554  -28.3654   12.3549 C.3       12 UNK        -0.1964 
     27 N         -50.6168  -27.5336   14.6104 N.am      12 UNK        -0.4276 
     28 C         -49.5298  -27.5247   15.3948 C.2       12 UNK         0.5020 
     29 O         -48.6408  -28.3764   15.3484 O.2       12 UNK        -0.5489 
     30 CA        -49.4254  -26.3987   16.4322 C.3       11 UNK         0.0294 
     31 CB        -49.0760  -25.0556   15.7659 C.3       11 UNK        -0.2019 
     32 N         -50.6690  -26.2861   17.1950 N.am      11 UNK        -0.4493 
     33 C         -50.9591  -27.0297   18.2741 C.2       11 UNK         0.4932 
     34 O         -50.1710  -27.8258   18.7855 O.2       11 UNK        -0.5029 
     35 CA        -52.3537  -26.8623   18.9085 C.3       10 UNK         0.0280 
     36 CB        -52.2829  -25.9020   20.1070 C.3       10 UNK        -0.1976 
     37 N         -53.3690  -26.3816   17.9708 N.am      10 UNK        -0.4242 
     38 C         -53.8742  -27.0901   16.9503 C.2       10 UNK         0.5072 
     39 O         -53.6084  -28.2729   16.7401 O.2       10 UNK        -0.5224 
     40 CA        -54.8023  -26.3307   15.9802 C.3       9 UNK         0.0343 
     41 CB        -56.2722  -26.5026   16.3946 C.3       9 UNK        -0.2003 
     42 N         -54.4892  -24.8982   15.8614 N.am      9 UNK        -0.4272 
     43 C         -53.3070  -24.4105   15.4602 C.2       9 UNK         0.4988 
     44 O         -52.3506  -25.1179   15.1273 O.2       9 UNK        -0.5108 
     45 CA        -53.1263  -22.8900   15.5220 C.3       8 UNK         0.0248 
     46 CB        -52.9642  -22.4259   16.9843 C.3       8 UNK        -0.2001 
     47 N         -51.9308  -22.5724   14.7506 N.am      8 UNK        -0.4140 
     48 C         -51.4972  -21.3689   14.3645 C.2       8 UNK         0.5028 
     49 O         -52.0610  -20.3090   14.6400 O.2       8 UNK        -0.5428 
     50 CA        -50.2121  -21.3470   13.5146 C.3       7 UNK         0.0264 
     51 CB        -48.9784  -21.1383   14.4083 C.3       7 UNK        -0.1988 
     52 N         -50.0208  -22.5583   12.7071 N.am      7 UNK        -0.4454 
     53 C         -50.7951  -22.9098   11.6682 C.2       7 UNK         0.5027 
     54 O         -51.7551  -22.2371   11.2873 O.2       7 UNK        -0.5083 
     55 CA        -50.4285  -24.2281   10.9430 C.3       6 UNK         0.0844 
     56 C56       -51.1809  -24.4001    9.5952 C.3       14 UNK        -0.0967 
     57 S57       -51.1012  -26.1092    8.9605 S.3       14 UNK        -0.2604 
     58 C58       -52.7789  -26.6763    9.3795 C.3       14 UNK         0.0134 
     59 N         -48.9743  -24.4001   10.8159 N.am      6 UNK        -0.4116 
     60 C         -48.1221  -23.5849   10.1783 C.2       5 UNK         0.5034 
     61 O         -48.4636  -22.5734    9.5656 O.2       5 UNK        -0.5045 
     62 CA        -46.6281  -23.9436   10.2395 C.3       5 UNK         0.0224 
     63 CB        -46.0202  -23.5585   11.6032 C.3       5 UNK        -0.1978 
     64 N         -46.3159  -25.3328    9.8768 N.am      5 UNK        -0.4737 
     65 C         -46.6317  -26.4736   10.5070 C.2       4 UNK         0.5027 
     66 O         -47.2732  -26.5065   11.5576 O.2       4 UNK        -0.5211 
     67 CA        -46.1878  -27.7925    9.8355 C.3       4 UNK         0.0297 
     68 CB        -47.0857  -28.9747   10.2387 C.3       4 UNK        -0.1993 
     69 N         -46.1756  -27.6845    8.3735 N.am      4 UNK        -0.4486 
     70 C         -45.1530  -27.2315    7.6342 C.2       3 UNK         0.4961 
     71 O         -44.0437  -26.9566    8.0900 O.2       3 UNK        -0.5105 
     72 CA        -45.4542  -26.9535    6.1540 C.3       3 UNK         0.0299 
     73 CB        -45.2737  -28.2232    5.3074 C.3       3 UNK        -0.1972 
     74 N         -46.8141  -26.4354    5.9888 N.am      3 UNK        -0.4305 
     75 C         -47.2037  -25.1881    6.2943 C.2       2 UNK         0.5006 
     76 O         -46.4170  -24.3125    6.6566 O.2       2 UNK        -0.5106 
     77 CA        -48.7119  -24.8562    6.2535 C.3       2 UNK         0.0296 
     78 CB        -49.0090  -23.6374    5.3565 C.3       2 UNK        -0.2002 
     79 N         -49.5889  -25.9912    5.9291 N.am      2 UNK        -0.4032 
     80 C         -49.6786  -26.6679    4.7727 C.2       1 UNK         0.5000 
     81 O         -49.0748  -26.3562    3.7455 O.2       1 UNK        -0.5238 
     82 H82       -49.1461  -30.4796    8.3789 H         1 UNK         0.0889 
     83 H83       -50.8269  -30.5326    7.8645 H         1 UNK         0.0889 
     84 H84       -50.2627  -29.2134    8.9024 H         1 UNK         0.0889 
     85 H85       -51.5950  -28.8694    6.3426 H         1 UNK         0.3028 
     86 H86       -50.0402  -28.6494    4.1051 H         1 UNK         0.0864 
     87 H87       -52.4600  -26.8847    4.7405 H         1 UNK         0.0720 
     88 H88       -51.8116  -27.1962    3.1575 H         1 UNK         0.0720 
     89 H89       -55.1902  -29.4530    4.8421 H         1 UNK         0.0814 
     90 H90       -54.7698  -27.7613    4.8580 H         1 UNK         0.0814 
     91 H91       -53.6176  -26.7915    6.8054 H         1 UNK         0.1469 
     92 H92       -52.7818  -29.2589   10.1837 H         1 UNK         0.1381 
     93 H93       -54.2799  -31.0200    6.5644 H         1 UNK         0.1206 
     94 H94       -53.0018  -32.3644    8.4281 H         1 UNK         0.0813 
     95 H95       -54.6222  -32.1025    9.0150 H         1 UNK         0.0813 
     96 H96       -54.5002  -32.1427   12.5840 H         1 UNK         0.0638 
     97 H97       -55.3188  -31.4467   11.2138 H         1 UNK         0.0638 
     98 H98       -54.4312  -29.2409   11.6461 H         1 UNK         0.0568 
     99 H99       -57.0619  -28.7080   13.9142 H         1 UNK         0.3450 
    100 H100      -56.3367  -28.3383   12.3724 H         1 UNK         0.3450 
    101 H101      -52.3606  -30.5780   13.0769 H         1 UNK         0.2987 
    102 H102      -50.6681  -29.5413   14.0623 H         1 UNK         0.0766 
    103 H103      -50.2676  -29.1326   11.6093 H         1 UNK         0.0798 
    104 H104      -48.9907  -28.4196   12.5790 H         1 UNK         0.0798 
    105 H105      -50.2479  -27.3980   11.8905 H         1 UNK         0.0798 
    106 H106      -51.3268  -26.8101   14.7078 H         1 UNK         0.3198 
    107 H107      -48.6104  -26.6450   17.1169 H         1 UNK         0.0843 
    108 H108      -49.7924  -24.7777   14.9948 H         1 UNK         0.0831 
    109 H109      -48.0972  -25.1091   15.2873 H         1 UNK         0.0831 
    110 H110      -49.0358  -24.2480   16.4968 H         1 UNK         0.0831 
    111 H111      -51.3951  -25.7127   16.7820 H         1 UNK         0.3133 
    112 H112      -52.6688  -27.8420   19.2742 H         1 UNK         0.0566 
    113 H113      -53.2440  -25.8295   20.6164 H         1 UNK         0.0814 
    114 H114      -51.9848  -24.8973   19.8041 H         1 UNK         0.0814 
    115 H115      -51.5552  -26.2491   20.8420 H         1 UNK         0.0814 
    116 H116      -53.6671  -25.4232   18.0755 H         1 UNK         0.3091 
    117 H117      -54.6781  -26.7774   14.9929 H         1 UNK         0.0702 
    118 H118      -56.9454  -26.0537   15.6641 H         1 UNK         0.0785 
    119 H119      -56.4755  -26.0493   17.3656 H         1 UNK         0.0785 
    120 H120      -56.5336  -27.5595   16.4659 H         1 UNK         0.0785 
    121 H121      -55.2206  -24.2520   16.1225 H         1 UNK         0.2998 
    122 H122      -53.9900  -22.4070   15.0609 H         1 UNK         0.0697 
    123 H123      -52.8356  -21.3455   17.0497 H         1 UNK         0.0825 
    124 H124      -52.1004  -22.8915   17.4610 H         1 UNK         0.0825 
    125 H125      -53.8426  -22.6750   17.5804 H         1 UNK         0.0825 
    126 H126      -51.4266  -23.3975   14.4514 H         1 UNK         0.3029 
    127 H127      -50.2879  -20.4973   12.8322 H         1 UNK         0.0897 
    128 H128      -48.8378  -21.9650   15.1056 H         1 UNK         0.0792 
    129 H129      -49.0766  -20.2271   15.0003 H         1 UNK         0.0792 
    130 H130      -48.0693  -21.0396   13.8146 H         1 UNK         0.0792 
    131 H131      -49.2370  -23.1483   12.9445 H         1 UNK         0.3086 
    132 H132      -50.7694  -25.0189   11.6131 H         1 UNK         0.0583 
    133 H133      -52.2297  -24.1178    9.6961 H         1 UNK         0.1020 
    134 H134      -50.7777  -23.7256    8.8387 H         1 UNK         0.1020 
    135 H135      -52.8330  -26.8714   10.4516 H         1 UNK         0.0694 
    136 H136      -53.5055  -25.8891    9.1739 H         1 UNK         0.0694 
    137 H137      -48.5706  -25.2238   11.2580 H         1 UNK         0.2989 
    138 H138      -46.1371  -23.3307    9.4810 H         1 UNK         0.1055 
    139 H139      -46.4533  -24.1289   12.4253 H         1 UNK         0.0806 
    140 H140      -46.1882  -22.5025   11.8194 H         1 UNK         0.0806 
    141 H141      -44.9427  -23.7228   11.6151 H         1 UNK         0.0806 
    142 H142      -45.8039  -25.4289    9.0097 H         1 UNK         0.3061 
    143 H143      -45.1767  -28.0066   10.1875 H         1 UNK         0.0734 
    144 H144      -48.1336  -28.7695   10.0221 H         1 UNK         0.0832 
    145 H145      -46.8036  -29.8892    9.7170 H         1 UNK         0.0832 
    146 H146      -47.0071  -29.1762   11.3077 H         1 UNK         0.0832 
    147 H147      -47.0412  -27.9091    7.8932 H         1 UNK         0.3156 
    148 H148      -44.7475  -26.2014    5.7966 H         1 UNK         0.0589 
    149 H149      -45.9447  -29.0229    5.6231 H         1 UNK         0.0808 
    150 H150      -44.2543  -28.6026    5.3891 H         1 UNK         0.0808 
    151 H151      -45.4623  -28.0253    4.2521 H         1 UNK         0.0808 
    152 H152      -47.5267  -27.1213    5.7662 H         1 UNK         0.3098 
    153 H153      -48.9714  -24.5740    7.2743 H         1 UNK         0.0720 
    154 H154      -50.0702  -23.3888    5.3645 H         1 UNK         0.0791 
    155 H155      -48.7098  -23.8081    4.3222 H         1 UNK         0.0791 
    156 H156      -48.4690  -22.7568    5.7068 H         1 UNK         0.0791 
    157 H157      -50.1232  -26.3501    6.7110 H         1 UNK         0.3028 
@<TRIPOS>BOND
     1    1    2 1    
     2    1   82 1    
     3    1   83 1    
     4    1   84 1    
     5    2    3 2    
     6    2    4 am   BACKBONE|DICT|INTERRES
     7    4    5 1    
     8    4   85 1    
     9    5    6 1    
    10    5   80 1    
    11    5   86 1    
    12    6    7 1    
    13    6   87 1    
    14    6   88 1    
    15    7    8 1    
    16    8    9 1    
    17    8   89 1    
    18    8   90 1    
    19    9   10 ar   
    20    9   14 ar   
    21   10   11 ar   
    22   10   91 1    
    23   11   12 ar   
    24   11   58 1    
    25   12   13 ar   
    26   12   92 1    
    27   13   14 ar   
    28   13   15 1    
    29   14   93 1    
    30   15   16 1    
    31   15   94 1    
    32   15   95 1    
    33   16   17 1    
    34   17   18 1    
    35   17   96 1    
    36   17   97 1    
    37   18   19 1    
    38   18   22 1    
    39   18   98 1    
    40   19   20 am   BACKBONE|DICT|INTERRES
    41   19   21 2    
    42   20   99 1    
    43   20  100 1    
    44   22   23 am   BACKBONE|DICT|INTERRES
    45   22  101 1    
    46   23   24 2    
    47   23   25 1    
    48   25   26 1    
    49   25   27 1    
    50   25  102 1    
    51   26  103 1    
    52   26  104 1    
    53   26  105 1    
    54   27   28 am   BACKBONE|DICT|INTERRES
    55   27  106 1    
    56   28   29 2    
    57   28   30 1    
    58   30   31 1    
    59   30   32 1    
    60   30  107 1    
    61   31  108 1    
    62   31  109 1    
    63   31  110 1    
    64   32   33 am   BACKBONE|DICT|INTERRES
    65   32  111 1    
    66   33   34 2    
    67   33   35 1    
    68   35   36 1    
    69   35   37 1    
    70   35  112 1    
    71   36  113 1    
    72   36  114 1    
    73   36  115 1    
    74   37   38 am   BACKBONE|DICT|INTERRES
    75   37  116 1    
    76   38   39 2    
    77   38   40 1    
    78   40   41 1    
    79   40   42 1    
    80   40  117 1    
    81   41  118 1    
    82   41  119 1    
    83   41  120 1    
    84   42   43 am   BACKBONE|DICT|INTERRES
    85   42  121 1    
    86   43   44 2    
    87   43   45 1    
    88   45   46 1    
    89   45   47 1    
    90   45  122 1    
    91   46  123 1    
    92   46  124 1    
    93   46  125 1    
    94   47   48 am   BACKBONE|DICT|INTERRES
    95   47  126 1    
    96   48   49 2    
    97   48   50 1    
    98   50   51 1    
    99   50   52 1    
   100   50  127 1    
   101   51  128 1    
   102   51  129 1    
   103   51  130 1    
   104   52   53 am   BACKBONE|DICT|INTERRES
   105   52  131 1    
   106   53   54 2    
   107   53   55 1    
   108   55   56 1    
   109   55   59 1    
   110   55  132 1    
   111   56   57 1    
   112   56  133 1    
   113   56  134 1    
   114   57   58 1    
   115   58  135 1    
   116   58  136 1    
   117   59   60 am   BACKBONE|DICT|INTERRES
   118   59  137 1    
   119   60   61 2    
   120   60   62 1    
   121   62   63 1    
   122   62   64 1    
   123   62  138 1    
   124   63  139 1    
   125   63  140 1    
   126   63  141 1    
   127   64   65 am   BACKBONE|DICT|INTERRES
   128   64  142 1    
   129   65   66 2    
   130   65   67 1    
   131   67   68 1    
   132   67   69 1    
   133   67  143 1    
   134   68  144 1    
   135   68  145 1    
   136   68  146 1    
   137   69   70 am   BACKBONE|DICT|INTERRES
   138   69  147 1    
   139   70   71 2    
   140   70   72 1    
   141   72   73 1    
   142   72   74 1    
   143   72  148 1    
   144   73  149 1    
   145   73  150 1    
   146   73  151 1    
   147   74   75 am   BACKBONE|DICT|INTERRES
   148   74  152 1    
   149   75   76 2    
   150   75   77 1    
   151   77   78 1    
   152   77   79 1    
   153   77  153 1    
   154   78  154 1    
   155   78  155 1    
   156   78  156 1    
   157   79   80 am   BACKBONE|DICT|INTERRES
   158   79  157 1    
   159   80   81 2    
@<TRIPOS>SUBSTRUCTURE
     1 UNK         1 GROUP             0       ****    0 ROOT    
