@<TRIPOS>MOLECULE
3R207
157   159    1
SMALL
USER_CHARGES


@<TRIPOS>ATOM
      1 CA        -49.1123  -31.8583   11.7973 C.3       0 UNK        -0.1975 
      2 C         -48.7789  -30.6252   10.9710 C.2       0 UNK         0.4852 
      3 O         -48.5686  -29.5521   11.5338 O.2       0 UNK        -0.5216 
      4 N         -48.6946  -30.7731    9.6416 N.am      1 UNK        -0.4461 
      5 CA        -48.3658  -29.7498    8.6328 C.3       1 UNK         0.0864 
      6 C6        -49.3802  -28.5712    8.5890 C.3       14 UNK        -0.0898 
      7 S7        -49.7527  -28.0536    6.8784 S.3       14 UNK        -0.2598 
      8 C8        -51.2710  -28.9967    6.5200 C.3       14 UNK         0.0286 
      9 C9        -52.5334  -28.2370    6.9075 C.ar      14 UNK        -0.0844 
     10 C10       -53.1107  -27.3335    6.0081 C.ar      14 UNK        -0.0881 
     11 C11       -54.2836  -26.6479    6.3416 C.ar      14 UNK        -0.0643 
     12 C12       -54.8905  -26.8850    7.5774 C.ar      14 UNK        -0.0930 
     13 C13       -54.3104  -27.7659    8.4930 C.ar      14 UNK        -0.0827 
     14 C14       -53.1374  -28.4468    8.1516 C.ar      14 UNK        -0.1249 
     15 C15       -54.9395  -27.9511    9.8619 C.3       14 UNK         0.0141 
     16 S16       -54.2517  -26.7477   11.0418 S.3       14 UNK        -0.2313 
     17 C17       -55.7561  -26.0241   11.7848 C.3       14 UNK        -0.0915 
     18 CA        -56.2463  -26.7574   13.0632 C.3       13 UNK         0.0968 
     19 C         -57.0236  -28.0657   12.7254 C.2       13 UNK         0.5732 
     20 N         -56.5928  -29.2459   13.1574 N.am      13 UNK        -0.7310 
     21 O         -58.0530  -28.0052   12.0574 O.2       13 UNK        -0.5035 
     22 N         -55.1585  -26.9082   14.0376 N.am      13 UNK        -0.4233 
     23 C         -55.3051  -27.1860   15.3379 C.2       13 UNK         0.4989 
     24 O         -56.3922  -27.2045   15.9179 O.2       13 UNK        -0.4996 
     25 CA        -54.0080  -27.5201   16.1014 C.3       12 UNK         0.0216 
     26 CB        -54.2606  -28.2756   17.4229 C.3       12 UNK        -0.1964 
     27 N         -53.0340  -28.2381   15.2676 N.am      12 UNK        -0.4276 
     28 C         -53.1946  -29.4224   14.6561 C.2       12 UNK         0.5020 
     29 O         -54.2205  -30.0999   14.7254 O.2       12 UNK        -0.5489 
     30 CA        -52.0315  -29.9157   13.7806 C.3       11 UNK         0.0294 
     31 CB        -52.2241  -29.4343   12.3349 C.3       11 UNK        -0.2019 
     32 N         -50.7312  -29.4620   14.2789 N.am      11 UNK        -0.4493 
     33 C         -50.0707  -30.0415   15.2916 C.2       11 UNK         0.4932 
     34 O         -50.4302  -31.0846   15.8380 O.2       11 UNK        -0.5029 
     35 CA        -48.8082  -29.3230   15.8008 C.3       10 UNK         0.0280 
     36 CB        -47.5746  -29.7196   14.9738 C.3       10 UNK        -0.1976 
     37 N         -48.9526  -27.8649   15.8041 N.am      10 UNK        -0.4242 
     38 C         -49.7712  -27.1811   16.6187 C.2       10 UNK         0.5072 
     39 O         -50.4388  -27.6992   17.5135 O.2       10 UNK        -0.5224 
     40 CA        -49.8845  -25.6634   16.3862 C.3       9 UNK         0.0343 
     41 CB        -48.9352  -24.9020   17.3250 C.3       9 UNK        -0.2003 
     42 N         -49.6225  -25.2613   15.0007 N.am      9 UNK        -0.4272 
     43 C         -50.4016  -25.5703   13.9557 C.2       9 UNK         0.4988 
     44 O         -51.4333  -26.2400   14.0413 O.2       9 UNK        -0.5108 
     45 CA        -49.9025  -25.1134   12.5778 C.3       8 UNK         0.0248 
     46 CB        -49.6016  -26.3390   11.7033 C.3       8 UNK        -0.2001 
     47 N         -50.8444  -24.2310   11.8844 N.am      8 UNK        -0.4140 
     48 C         -51.2494  -23.0313   12.3329 C.2       8 UNK         0.5028 
     49 O         -50.8621  -22.5431   13.3963 O.2       8 UNK        -0.5428 
     50 CA        -52.2287  -22.2211   11.4591 C.3       7 UNK         0.0264 
     51 CB        -51.8790  -20.7211   11.4491 C.3       7 UNK        -0.1988 
     52 N         -52.2500  -22.7073   10.0793 N.am      7 UNK        -0.4454 
     53 C         -53.3038  -23.2711    9.4712 C.2       7 UNK         0.5027 
     54 O         -54.4250  -23.3203    9.9783 O.2       7 UNK        -0.5083 
     55 CA        -53.0940  -23.8941    8.0706 C.3       6 UNK         0.0844 
     56 C56       -54.1702  -23.4222    7.0551 C.3       14 UNK        -0.0967 
     57 S57       -53.9205  -24.0768    5.3629 S.3       14 UNK        -0.2604 
     58 C58       -54.8797  -25.6266    5.3840 C.3       14 UNK         0.0134 
     59 N         -51.7331  -23.7513    7.5488 N.am      6 UNK        -0.4116 
     60 C         -50.6715  -24.4429    7.9772 C.2       5 UNK         0.5034 
     61 O         -50.7115  -25.2250    8.9251 O.2       5 UNK        -0.5045 
     62 CA        -49.3278  -24.1806    7.2701 C.3       5 UNK         0.0224 
     63 CB        -49.4407  -23.3006    6.0041 C.3       5 UNK        -0.1978 
     64 N         -48.3202  -23.6173    8.1764 N.am      5 UNK        -0.4737 
     65 C         -48.4516  -22.5667    9.0017 C.2       4 UNK         0.5027 
     66 O         -49.4958  -21.9250    9.1285 O.2       4 UNK        -0.5211 
     67 CA        -47.1980  -22.1255    9.7868 C.3       4 UNK         0.0297 
     68 CB        -47.5352  -21.7170   11.2373 C.3       4 UNK        -0.1993 
     69 N         -46.0783  -23.0819    9.7333 N.am      4 UNK        -0.4486 
     70 C         -46.0167  -24.2937   10.3021 C.2       3 UNK         0.4961 
     71 O         -46.8940  -24.7730   11.0198 O.2       3 UNK        -0.5105 
     72 CA        -44.7577  -25.1160   10.0173 C.3       3 UNK         0.0299 
     73 CB        -43.6130  -24.7052   10.9640 C.3       3 UNK        -0.1972 
     74 N         -45.0905  -26.5264   10.1987 N.am      3 UNK        -0.4305 
     75 C         -44.3677  -27.5652    9.7689 C.2       2 UNK         0.5006 
     76 O         -43.3214  -27.4568    9.1277 O.2       2 UNK        -0.5106 
     77 CA        -44.8868  -28.9647   10.1312 C.3       2 UNK         0.0296 
     78 CB        -44.5881  -29.2915   11.6045 C.3       2 UNK        -0.2002 
     79 N         -46.3161  -29.1523    9.8778 N.am      2 UNK        -0.4032 
     80 C         -46.8890  -29.2789    8.6733 C.2       1 UNK         0.5000 
     81 O         -46.2799  -29.1140    7.6148 O.2       1 UNK        -0.5238 
     82 H82       -50.0288  -31.6993   12.3629 H         1 UNK         0.0889 
     83 H83       -48.3094  -32.0596   12.5058 H         1 UNK         0.0889 
     84 H84       -49.2467  -32.7428   11.1752 H         1 UNK         0.0889 
     85 H85       -48.8466  -31.6956    9.2572 H         1 UNK         0.3028 
     86 H86       -48.4596  -30.3006    7.6952 H         1 UNK         0.0864 
     87 H87       -50.3169  -28.8440    9.0759 H         1 UNK         0.0720 
     88 H88       -49.0119  -27.7076    9.1437 H         1 UNK         0.0720 
     89 H89       -51.2963  -29.2170    5.4518 H         1 UNK         0.0814 
     90 H90       -51.2357  -29.9647    7.0224 H         1 UNK         0.0814 
     91 H91       -52.6392  -27.1511    5.0520 H         1 UNK         0.1469 
     92 H92       -55.7897  -26.3484    7.8477 H         1 UNK         0.1381 
     93 H93       -52.6907  -29.1306    8.8601 H         1 UNK         0.1206 
     94 H94       -56.0228  -27.8477    9.7881 H         1 UNK         0.0813 
     95 H95       -54.7573  -28.9611   10.2306 H         1 UNK         0.0813 
     96 H96       -55.5105  -24.9932   12.0443 H         1 UNK         0.0638 
     97 H97       -56.5454  -25.9459   11.0352 H         1 UNK         0.0638 
     98 H98       -56.9889  -26.1072   13.5291 H         1 UNK         0.0568 
     99 H99       -55.7581  -29.3365   13.7266 H         1 UNK         0.3450 
    100 H100      -57.1242  -30.0693   12.9261 H         1 UNK         0.3450 
    101 H101      -54.2275  -26.9114   13.6453 H         1 UNK         0.2987 
    102 H102      -53.5467  -26.5631   16.3498 H         1 UNK         0.0766 
    103 H103      -53.3248  -28.4851   17.9416 H         1 UNK         0.0798 
    104 H104      -54.8805  -27.6860   18.0994 H         1 UNK         0.0798 
    105 H105      -54.7717  -29.2242   17.2559 H         1 UNK         0.0798 
    106 H106      -52.2024  -27.7035   15.0310 H         1 UNK         0.3198 
    107 H107      -52.0552  -31.0077   13.7831 H         1 UNK         0.0843 
    108 H108      -53.1981  -29.7384   11.9502 H         1 UNK         0.0831 
    109 H109      -51.4728  -29.8460   11.6646 H         1 UNK         0.0831 
    110 H110      -52.1689  -28.3487   12.2665 H         1 UNK         0.0831 
    111 H111      -50.3551  -28.6182   13.8714 H         1 UNK         0.3133 
    112 H112      -48.6398  -29.6463   16.8304 H         1 UNK         0.0566 
    113 H113      -47.6365  -29.3525   13.9498 H         1 UNK         0.0814 
    114 H114      -47.4673  -30.8042   14.9256 H         1 UNK         0.0814 
    115 H115      -46.6591  -29.3244   15.4143 H         1 UNK         0.0814 
    116 H116      -48.4241  -27.3495   15.1159 H         1 UNK         0.3091 
    117 H117      -50.9092  -25.3730   16.6283 H         1 UNK         0.0702 
    118 H118      -49.0661  -23.8236   17.2323 H         1 UNK         0.0785 
    119 H119      -47.8894  -25.1337   17.1190 H         1 UNK         0.0785 
    120 H120      -49.1272  -25.1609   18.3674 H         1 UNK         0.0785 
    121 H121      -48.8003  -24.6965   14.8412 H         1 UNK         0.2998 
    122 H122      -48.9728  -24.5578   12.7094 H         1 UNK         0.0697 
    123 H123      -50.5055  -26.8892   11.4419 H         1 UNK         0.0825 
    124 H124      -48.9253  -27.0276   12.2095 H         1 UNK         0.0825 
    125 H125      -49.1156  -26.0447   10.7753 H         1 UNK         0.0825 
    126 H126      -51.1855  -24.5620   10.9897 H         1 UNK         0.3029 
    127 H127      -53.2120  -22.3354   11.9197 H         1 UNK         0.0897 
    128 H128      -52.5782  -20.1559   10.8329 H         1 UNK         0.0792 
    129 H129      -51.9219  -20.2989   12.4538 H         1 UNK         0.0792 
    130 H130      -50.8743  -20.5455   11.0631 H         1 UNK         0.0792 
    131 H131      -51.3599  -22.6650    9.5897 H         1 UNK         0.3086 
    132 H132      -53.2406  -24.9602    8.2323 H         1 UNK         0.0583 
    133 H133      -55.1680  -23.7016    7.3986 H         1 UNK         0.1020 
    134 H134      -54.1719  -22.3326    6.9905 H         1 UNK         0.1020 
    135 H135      -55.9173  -25.4080    5.6412 H         1 UNK         0.0694 
    136 H136      -54.8965  -26.0446    4.3765 H         1 UNK         0.0694 
    137 H137      -51.6165  -23.1094    6.7793 H         1 UNK         0.2989 
    138 H138      -48.9586  -25.1596    6.9618 H         1 UNK         0.1055 
    139 H139      -48.4798  -23.2294    5.4943 H         1 UNK         0.0806 
    140 H140      -49.7621  -22.2842    6.2355 H         1 UNK         0.0806 
    141 H141      -50.1461  -23.7240    5.2871 H         1 UNK         0.0806 
    142 H142      -47.4299  -24.0927    8.1848 H         1 UNK         0.3061 
    143 H143      -46.8398  -21.2294    9.2780 H         1 UNK         0.0734 
    144 H144      -48.2299  -20.8765   11.2544 H         1 UNK         0.0832 
    145 H145      -48.0067  -22.5292   11.7900 H         1 UNK         0.0832 
    146 H146      -46.6435  -21.4101   11.7834 H         1 UNK         0.0832 
    147 H147      -45.2932  -22.7879    9.1671 H         1 UNK         0.3156 
    148 H148      -44.4582  -24.9530    8.9799 H         1 UNK         0.0589 
    149 H149      -43.8751  -24.8799   12.0083 H         1 UNK         0.0808 
    150 H150      -42.6985  -25.2592   10.7523 H         1 UNK         0.0808 
    151 H151      -43.3765  -23.6456   10.8596 H         1 UNK         0.0808 
    152 H152      -45.9615  -26.6809   10.6932 H         1 UNK         0.3098 
    153 H153      -44.3443  -29.6836    9.5132 H         1 UNK         0.0720 
    154 H154      -44.8508  -30.3225   11.8423 H         1 UNK         0.0791 
    155 H155      -43.5265  -29.1697   11.8246 H         1 UNK         0.0791 
    156 H156      -45.1398  -28.6414   12.2849 H         1 UNK         0.0791 
    157 H157      -46.9255  -29.2739   10.6833 H         1 UNK         0.3028 
@<TRIPOS>BOND
     1    1    2 1    
     2    1   82 1    
     3    1   83 1    
     4    1   84 1    
     5    2    3 2    
     6    2    4 am   BACKBONE|DICT|INTERRES
     7    4    5 1    
     8    4   85 1    
     9    5    6 1    
    10    5   80 1    
    11    5   86 1    
    12    6    7 1    
    13    6   87 1    
    14    6   88 1    
    15    7    8 1    
    16    8    9 1    
    17    8   89 1    
    18    8   90 1    
    19    9   10 ar   
    20    9   14 ar   
    21   10   11 ar   
    22   10   91 1    
    23   11   12 ar   
    24   11   58 1    
    25   12   13 ar   
    26   12   92 1    
    27   13   14 ar   
    28   13   15 1    
    29   14   93 1    
    30   15   16 1    
    31   15   94 1    
    32   15   95 1    
    33   16   17 1    
    34   17   18 1    
    35   17   96 1    
    36   17   97 1    
    37   18   19 1    
    38   18   22 1    
    39   18   98 1    
    40   19   20 am   BACKBONE|DICT|INTERRES
    41   19   21 2    
    42   20   99 1    
    43   20  100 1    
    44   22   23 am   BACKBONE|DICT|INTERRES
    45   22  101 1    
    46   23   24 2    
    47   23   25 1    
    48   25   26 1    
    49   25   27 1    
    50   25  102 1    
    51   26  103 1    
    52   26  104 1    
    53   26  105 1    
    54   27   28 am   BACKBONE|DICT|INTERRES
    55   27  106 1    
    56   28   29 2    
    57   28   30 1    
    58   30   31 1    
    59   30   32 1    
    60   30  107 1    
    61   31  108 1    
    62   31  109 1    
    63   31  110 1    
    64   32   33 am   BACKBONE|DICT|INTERRES
    65   32  111 1    
    66   33   34 2    
    67   33   35 1    
    68   35   36 1    
    69   35   37 1    
    70   35  112 1    
    71   36  113 1    
    72   36  114 1    
    73   36  115 1    
    74   37   38 am   BACKBONE|DICT|INTERRES
    75   37  116 1    
    76   38   39 2    
    77   38   40 1    
    78   40   41 1    
    79   40   42 1    
    80   40  117 1    
    81   41  118 1    
    82   41  119 1    
    83   41  120 1    
    84   42   43 am   BACKBONE|DICT|INTERRES
    85   42  121 1    
    86   43   44 2    
    87   43   45 1    
    88   45   46 1    
    89   45   47 1    
    90   45  122 1    
    91   46  123 1    
    92   46  124 1    
    93   46  125 1    
    94   47   48 am   BACKBONE|DICT|INTERRES
    95   47  126 1    
    96   48   49 2    
    97   48   50 1    
    98   50   51 1    
    99   50   52 1    
   100   50  127 1    
   101   51  128 1    
   102   51  129 1    
   103   51  130 1    
   104   52   53 am   BACKBONE|DICT|INTERRES
   105   52  131 1    
   106   53   54 2    
   107   53   55 1    
   108   55   56 1    
   109   55   59 1    
   110   55  132 1    
   111   56   57 1    
   112   56  133 1    
   113   56  134 1    
   114   57   58 1    
   115   58  135 1    
   116   58  136 1    
   117   59   60 am   BACKBONE|DICT|INTERRES
   118   59  137 1    
   119   60   61 2    
   120   60   62 1    
   121   62   63 1    
   122   62   64 1    
   123   62  138 1    
   124   63  139 1    
   125   63  140 1    
   126   63  141 1    
   127   64   65 am   BACKBONE|DICT|INTERRES
   128   64  142 1    
   129   65   66 2    
   130   65   67 1    
   131   67   68 1    
   132   67   69 1    
   133   67  143 1    
   134   68  144 1    
   135   68  145 1    
   136   68  146 1    
   137   69   70 am   BACKBONE|DICT|INTERRES
   138   69  147 1    
   139   70   71 2    
   140   70   72 1    
   141   72   73 1    
   142   72   74 1    
   143   72  148 1    
   144   73  149 1    
   145   73  150 1    
   146   73  151 1    
   147   74   75 am   BACKBONE|DICT|INTERRES
   148   74  152 1    
   149   75   76 2    
   150   75   77 1    
   151   77   78 1    
   152   77   79 1    
   153   77  153 1    
   154   78  154 1    
   155   78  155 1    
   156   78  156 1    
   157   79   80 am   BACKBONE|DICT|INTERRES
   158   79  157 1    
   159   80   81 2    
@<TRIPOS>SUBSTRUCTURE
     1 UNK         1 GROUP             0       ****    0 ROOT    
