@<TRIPOS>MOLECULE
3R207
157   159    1
SMALL
USER_CHARGES


@<TRIPOS>ATOM
      1 CA        -50.2477  -28.5164    2.2230 C.3       0 UNK        -0.1975 
      2 C         -49.4542  -28.2026    3.4825 C.2       0 UNK         0.4852 
      3 O         -49.1230  -29.1228    4.2294 O.2       0 UNK        -0.5216 
      4 N         -49.1457  -26.9151    3.7013 N.am      1 UNK        -0.4461 
      5 CA        -48.4278  -26.2754    4.8197 C.3       1 UNK         0.0864 
      6 C6        -49.2451  -26.1841    6.1440 C.3       14 UNK        -0.0898 
      7 S7        -49.2925  -27.6959    7.1724 S.3       14 UNK        -0.2598 
      8 C8        -50.9782  -28.3114    6.8752 C.3       14 UNK         0.0286 
      9 C9        -51.9453  -27.8071    7.9335 C.ar      14 UNK        -0.0844 
     10 C10       -52.6778  -26.6345    7.7301 C.ar      14 UNK        -0.0881 
     11 C11       -53.5652  -26.1763    8.7089 C.ar      14 UNK        -0.0643 
     12 C12       -53.7317  -26.9081    9.8885 C.ar      14 UNK        -0.0930 
     13 C13       -52.9936  -28.0735   10.1064 C.ar      14 UNK        -0.0827 
     14 C14       -52.1053  -28.5201    9.1245 C.ar      14 UNK        -0.1249 
     15 C15       -53.1284  -28.8386   11.4108 C.3       14 UNK         0.0141 
     16 S16       -54.4467  -30.0862   11.3168 S.3       14 UNK        -0.2313 
     17 C17       -54.0418  -31.1262   12.7604 C.3       14 UNK        -0.0915 
     18 CA        -55.1626  -31.1689   13.8301 C.3       13 UNK         0.0968 
     19 C         -54.8003  -32.1769   14.9601 C.2       13 UNK         0.5732 
     20 N         -54.5535  -31.7391   16.1898 N.am      13 UNK        -0.7310 
     21 O         -54.7491  -33.3800   14.7156 O.2       13 UNK        -0.5035 
     22 N         -55.5318  -29.8287   14.3187 N.am      13 UNK        -0.4233 
     23 C         -56.7099  -29.5464   14.8925 C.2       13 UNK         0.4989 
     24 O         -57.6272  -30.3615   15.0022 O.2       13 UNK        -0.4996 
     25 CA        -56.9141  -28.1328   15.4557 C.3       12 UNK         0.0216 
     26 CB        -56.7839  -28.1505   16.9886 C.3       12 UNK        -0.1964 
     27 N         -55.9562  -27.1646   14.9219 N.am      12 UNK        -0.4276 
     28 C         -56.2269  -26.2504   13.9797 C.2       12 UNK         0.5020 
     29 O         -57.2991  -26.1973   13.3747 O.2       12 UNK        -0.5489 
     30 CA        -55.1235  -25.2168   13.6548 C.3       11 UNK         0.0294 
     31 CB        -55.6982  -23.8331   13.2865 C.3       11 UNK        -0.2019 
     32 N         -54.0950  -25.0931   14.6957 N.am      11 UNK        -0.4493 
     33 C         -54.2663  -24.7555   15.9838 C.2       11 UNK         0.4932 
     34 O         -55.3277  -24.3299   16.4409 O.2       11 UNK        -0.5029 
     35 CA        -53.0687  -24.9764   16.9344 C.3       10 UNK         0.0280 
     36 CB        -53.5323  -25.3584   18.3559 C.3       10 UNK        -0.1976 
     37 N         -52.0668  -25.9480   16.4657 N.am      10 UNK        -0.4242 
     38 C         -52.2603  -27.2292   16.1043 C.2       10 UNK         0.5072 
     39 O         -53.3710  -27.7619   16.0309 O.2       10 UNK        -0.5224 
     40 CA        -51.0034  -28.0307   15.7242 C.3       9 UNK         0.0343 
     41 CB        -51.3147  -29.2679   14.8668 C.3       9 UNK        -0.2003 
     42 N         -50.0530  -27.1719   15.0178 N.am      9 UNK        -0.4272 
     43 C         -48.7491  -27.0657   15.3082 C.2       9 UNK         0.4988 
     44 O         -48.1633  -27.7890   16.1147 O.2       9 UNK        -0.5108 
     45 CA        -47.9646  -25.9347   14.6127 C.3       8 UNK         0.0248 
     46 CB        -47.2410  -26.4768   13.3714 C.3       8 UNK        -0.2001 
     47 N         -48.7870  -24.7826   14.2241 N.am      8 UNK        -0.4140 
     48 C         -49.5408  -24.0476   15.0584 C.2       8 UNK         0.5028 
     49 O         -49.5935  -24.2348   16.2744 O.2       8 UNK        -0.5428 
     50 CA        -50.4469  -22.9651   14.4450 C.3       7 UNK         0.0264 
     51 CB        -49.8183  -21.5752   14.6325 C.3       7 UNK        -0.1988 
     52 N         -50.7640  -23.1571   13.0280 N.am      7 UNK        -0.4454 
     53 C         -51.3589  -24.2265   12.4754 C.2       7 UNK         0.5027 
     54 O         -51.7202  -25.2178   13.1156 O.2       7 UNK        -0.5083 
     55 CA        -51.5464  -24.1791   10.9428 C.3       6 UNK         0.0844 
     56 C56       -52.9351  -23.5760   10.6038 C.3       14 UNK        -0.0967 
     57 S57       -53.2523  -23.4346    8.8101 S.3       14 UNK        -0.2604 
     58 C58       -54.3221  -24.8750    8.5011 C.3       14 UNK         0.0134 
     59 N         -50.4574  -23.4596   10.2664 N.am      6 UNK        -0.4116 
     60 C         -49.1584  -23.7849   10.3080 C.2       5 UNK         0.5034 
     61 O         -48.7014  -24.7455   10.9315 O.2       5 UNK        -0.5045 
     62 CA        -48.2056  -22.8231    9.5951 C.3       5 UNK         0.0224 
     63 CB        -47.8532  -21.6352   10.5112 C.3       5 UNK        -0.1978 
     64 N         -46.9896  -23.5362    9.2166 N.am      5 UNK        -0.4737 
     65 C         -46.1649  -23.1759    8.2291 C.2       4 UNK         0.5027 
     66 O         -46.3320  -22.1660    7.5443 O.2       4 UNK        -0.5211 
     67 CA        -44.9652  -24.0861    7.9205 C.3       4 UNK         0.0297 
     68 CB        -43.7003  -23.6303    8.6748 C.3       4 UNK        -0.1993 
     69 N         -45.2332  -25.5208    8.0892 N.am      4 UNK        -0.4486 
     70 C         -45.3491  -26.2431    9.2146 C.2       3 UNK         0.4961 
     71 O         -45.2583  -25.7580   10.3417 O.2       3 UNK        -0.5105 
     72 CA        -45.6451  -27.7528    9.0759 C.3       3 UNK         0.0299 
     73 CB        -46.8425  -28.1608    9.9513 C.3       3 UNK        -0.1972 
     74 N         -45.9048  -28.1673    7.6940 N.am      3 UNK        -0.4305 
     75 C         -44.9662  -28.4559    6.7799 C.2       2 UNK         0.5006 
     76 O         -43.7609  -28.4951    7.0278 O.2       2 UNK        -0.5106 
     77 CA        -45.4432  -28.7013    5.3342 C.3       2 UNK         0.0296 
     78 CB        -45.5592  -30.2080    5.0541 C.3       2 UNK        -0.2002 
     79 N         -46.7202  -28.0549    5.0135 N.am      2 UNK        -0.4032 
     80 C         -46.9698  -26.7398    5.0453 C.2       1 UNK         0.5000 
     81 O         -46.1021  -25.8984    5.2835 O.2       1 UNK        -0.5238 
     82 H82       -51.1961  -28.9841    2.4862 H         1 UNK         0.0889 
     83 H83       -49.6903  -29.2083    1.5921 H         1 UNK         0.0889 
     84 H84       -50.4615  -27.6214    1.6388 H         1 UNK         0.0889 
     85 H85       -49.4422  -26.2543    2.9959 H         1 UNK         0.3028 
     86 H86       -48.3247  -25.2445    4.4760 H         1 UNK         0.0864 
     87 H87       -48.8203  -25.3972    6.7704 H         1 UNK         0.0720 
     88 H88       -50.2620  -25.8542    5.9299 H         1 UNK         0.0720 
     89 H89       -50.9560  -29.4021    6.8866 H         1 UNK         0.0814 
     90 H90       -51.3170  -28.0307    5.8773 H         1 UNK         0.0814 
     91 H91       -52.5486  -26.0681    6.8183 H         1 UNK         0.1469 
     92 H92       -54.4218  -26.5625   10.6442 H         1 UNK         0.1381 
     93 H93       -51.5314  -29.4220    9.2896 H         1 UNK         0.1206 
     94 H94       -53.3312  -28.1523   12.2345 H         1 UNK         0.0813 
     95 H95       -52.1788  -29.3267   11.6346 H         1 UNK         0.0813 
     96 H96       -53.1048  -30.7974   13.2085 H         1 UNK         0.0638 
     97 H97       -53.8487  -32.1308   12.3792 H         1 UNK         0.0638 
     98 H98       -56.0439  -31.5869   13.3394 H         1 UNK         0.0568 
     99 H99       -54.5855  -30.7548   16.3999 H         1 UNK         0.3450 
    100 H100      -54.3253  -32.4036   16.9119 H         1 UNK         0.3450 
    101 H101      -54.8168  -29.1184   14.2873 H         1 UNK         0.2987 
    102 H102      -57.9328  -27.8275   15.2076 H         1 UNK         0.0766 
    103 H103      -57.5002  -28.8411   17.4359 H         1 UNK         0.0798 
    104 H104      -56.9772  -27.1644   17.4119 H         1 UNK         0.0798 
    105 H105      -55.7876  -28.4597   17.3076 H         1 UNK         0.0798 
    106 H106      -55.0339  -27.1648   15.3537 H         1 UNK         0.3198 
    107 H107      -54.6062  -25.6069   12.7790 H         1 UNK         0.0843 
    108 H108      -54.9063  -23.1137   13.0793 H         1 UNK         0.0831 
    109 H109      -56.3161  -23.4276   14.0882 H         1 UNK         0.0831 
    110 H110      -56.3235  -23.8933   12.3949 H         1 UNK         0.0831 
    111 H111      -53.1639  -25.3737   14.4000 H         1 UNK         0.3133 
    112 H112      -52.5538  -24.0172   16.9999 H         1 UNK         0.0566 
    113 H113      -52.6846  -25.4893   19.0284 H         1 UNK         0.0814 
    114 H114      -54.1065  -26.2859   18.3553 H         1 UNK         0.0814 
    115 H115      -54.1662  -24.5830   18.7878 H         1 UNK         0.0814 
    116 H116      -51.1120  -25.6005   16.4700 H         1 UNK         0.3091 
    117 H117      -50.5736  -28.3718   16.6681 H         1 UNK         0.0702 
    118 H118      -50.4102  -29.8352   14.6469 H         1 UNK         0.0785 
    119 H119      -51.7677  -28.9793   13.9214 H         1 UNK         0.0785 
    120 H120      -52.0039  -29.9418   15.3775 H         1 UNK         0.0785 
    121 H121      -50.4507  -26.5398   14.3310 H         1 UNK         0.2998 
    122 H122      -47.2145  -25.5753   15.3199 H         1 UNK         0.0697 
    123 H123      -47.9492  -26.8315   12.6214 H         1 UNK         0.0825 
    124 H124      -46.5894  -27.3128   13.6289 H         1 UNK         0.0825 
    125 H125      -46.6181  -25.7131   12.9045 H         1 UNK         0.0825 
    126 H126      -48.8238  -24.5777   13.2330 H         1 UNK         0.3029 
    127 H127      -51.3911  -22.9902   14.9922 H         1 UNK         0.0897 
    128 H128      -48.8847  -21.4756   14.0769 H         1 UNK         0.0792 
    129 H129      -49.5933  -21.3863   15.6834 H         1 UNK         0.0792 
    130 H130      -50.4929  -20.7848   14.3028 H         1 UNK         0.0792 
    131 H131      -50.5070  -22.3995   12.4126 H         1 UNK         0.3086 
    132 H132      -51.5156  -25.2100   10.5855 H         1 UNK         0.0583 
    133 H133      -53.7300  -24.1684   11.0570 H         1 UNK         0.1020 
    134 H134      -53.0331  -22.5758   11.0310 H         1 UNK         0.1020 
    135 H135      -55.2010  -24.8254    9.1460 H         1 UNK         0.0694 
    136 H136      -54.6920  -24.8282    7.4758 H         1 UNK         0.0694 
    137 H137      -50.7436  -22.6630    9.7154 H         1 UNK         0.2989 
    138 H138      -48.6989  -22.4572    8.6914 H         1 UNK         0.1055 
    139 H139      -47.1920  -20.9281   10.0100 H         1 UNK         0.0806 
    140 H140      -47.3558  -21.9663   11.4240 H         1 UNK         0.0806 
    141 H141      -48.7463  -21.0829   10.8059 H         1 UNK         0.0806 
    142 H142      -46.7910  -24.3783    9.7499 H         1 UNK         0.3061 
    143 H143      -44.7609  -23.9650    6.8553 H         1 UNK         0.0734 
    144 H144      -43.8356  -23.6554    9.7563 H         1 UNK         0.0832 
    145 H145      -42.8423  -24.2551    8.4271 H         1 UNK         0.0832 
    146 H146      -43.4425  -22.6043    8.4093 H         1 UNK         0.0832 
    147 H147      -45.3936  -26.0015    7.2102 H         1 UNK         0.3156 
    148 H148      -44.7666  -28.2885    9.4414 H         1 UNK         0.0589 
    149 H149      -47.1171  -29.2045    9.7979 H         1 UNK         0.0808 
    150 H150      -47.7213  -27.5461    9.7511 H         1 UNK         0.0808 
    151 H151      -46.6011  -28.0460   11.0077 H         1 UNK         0.0808 
    152 H152      -46.8736  -28.1616    7.4006 H         1 UNK         0.3098 
    153 H153      -44.6869  -28.2836    4.6667 H         1 UNK         0.0720 
    154 H154      -44.6170  -30.7185    5.2588 H         1 UNK         0.0791 
    155 H155      -45.8104  -30.3988    4.0105 H         1 UNK         0.0791 
    156 H156      -46.3263  -30.6744    5.6738 H         1 UNK         0.0791 
    157 H157      -47.5163  -28.6605    4.8111 H         1 UNK         0.3028 
@<TRIPOS>BOND
     1    1    2 1    
     2    1   82 1    
     3    1   83 1    
     4    1   84 1    
     5    2    3 2    
     6    2    4 am   BACKBONE|DICT|INTERRES
     7    4    5 1    
     8    4   85 1    
     9    5    6 1    
    10    5   80 1    
    11    5   86 1    
    12    6    7 1    
    13    6   87 1    
    14    6   88 1    
    15    7    8 1    
    16    8    9 1    
    17    8   89 1    
    18    8   90 1    
    19    9   10 ar   
    20    9   14 ar   
    21   10   11 ar   
    22   10   91 1    
    23   11   12 ar   
    24   11   58 1    
    25   12   13 ar   
    26   12   92 1    
    27   13   14 ar   
    28   13   15 1    
    29   14   93 1    
    30   15   16 1    
    31   15   94 1    
    32   15   95 1    
    33   16   17 1    
    34   17   18 1    
    35   17   96 1    
    36   17   97 1    
    37   18   19 1    
    38   18   22 1    
    39   18   98 1    
    40   19   20 am   BACKBONE|DICT|INTERRES
    41   19   21 2    
    42   20   99 1    
    43   20  100 1    
    44   22   23 am   BACKBONE|DICT|INTERRES
    45   22  101 1    
    46   23   24 2    
    47   23   25 1    
    48   25   26 1    
    49   25   27 1    
    50   25  102 1    
    51   26  103 1    
    52   26  104 1    
    53   26  105 1    
    54   27   28 am   BACKBONE|DICT|INTERRES
    55   27  106 1    
    56   28   29 2    
    57   28   30 1    
    58   30   31 1    
    59   30   32 1    
    60   30  107 1    
    61   31  108 1    
    62   31  109 1    
    63   31  110 1    
    64   32   33 am   BACKBONE|DICT|INTERRES
    65   32  111 1    
    66   33   34 2    
    67   33   35 1    
    68   35   36 1    
    69   35   37 1    
    70   35  112 1    
    71   36  113 1    
    72   36  114 1    
    73   36  115 1    
    74   37   38 am   BACKBONE|DICT|INTERRES
    75   37  116 1    
    76   38   39 2    
    77   38   40 1    
    78   40   41 1    
    79   40   42 1    
    80   40  117 1    
    81   41  118 1    
    82   41  119 1    
    83   41  120 1    
    84   42   43 am   BACKBONE|DICT|INTERRES
    85   42  121 1    
    86   43   44 2    
    87   43   45 1    
    88   45   46 1    
    89   45   47 1    
    90   45  122 1    
    91   46  123 1    
    92   46  124 1    
    93   46  125 1    
    94   47   48 am   BACKBONE|DICT|INTERRES
    95   47  126 1    
    96   48   49 2    
    97   48   50 1    
    98   50   51 1    
    99   50   52 1    
   100   50  127 1    
   101   51  128 1    
   102   51  129 1    
   103   51  130 1    
   104   52   53 am   BACKBONE|DICT|INTERRES
   105   52  131 1    
   106   53   54 2    
   107   53   55 1    
   108   55   56 1    
   109   55   59 1    
   110   55  132 1    
   111   56   57 1    
   112   56  133 1    
   113   56  134 1    
   114   57   58 1    
   115   58  135 1    
   116   58  136 1    
   117   59   60 am   BACKBONE|DICT|INTERRES
   118   59  137 1    
   119   60   61 2    
   120   60   62 1    
   121   62   63 1    
   122   62   64 1    
   123   62  138 1    
   124   63  139 1    
   125   63  140 1    
   126   63  141 1    
   127   64   65 am   BACKBONE|DICT|INTERRES
   128   64  142 1    
   129   65   66 2    
   130   65   67 1    
   131   67   68 1    
   132   67   69 1    
   133   67  143 1    
   134   68  144 1    
   135   68  145 1    
   136   68  146 1    
   137   69   70 am   BACKBONE|DICT|INTERRES
   138   69  147 1    
   139   70   71 2    
   140   70   72 1    
   141   72   73 1    
   142   72   74 1    
   143   72  148 1    
   144   73  149 1    
   145   73  150 1    
   146   73  151 1    
   147   74   75 am   BACKBONE|DICT|INTERRES
   148   74  152 1    
   149   75   76 2    
   150   75   77 1    
   151   77   78 1    
   152   77   79 1    
   153   77  153 1    
   154   78  154 1    
   155   78  155 1    
   156   78  156 1    
   157   79   80 am   BACKBONE|DICT|INTERRES
   158   79  157 1    
   159   80   81 2    
@<TRIPOS>SUBSTRUCTURE
     1 UNK         1 GROUP             0       ****    0 ROOT    
