@<TRIPOS>MOLECULE
3R207
157   159    1
SMALL
USER_CHARGES


@<TRIPOS>ATOM
      1 CA        -52.5111  -24.4698    3.5437 C.3       0 UNK        -0.1975 
      2 C         -51.9806  -24.1364    4.9301 C.2       0 UNK         0.4852 
      3 O         -52.1482  -23.0087    5.3950 O.2       0 UNK        -0.5216 
      4 N         -51.3375  -25.1079    5.5918 N.am      1 UNK        -0.4461 
      5 CA        -50.7614  -24.9706    6.9363 C.3       1 UNK         0.0864 
      6 C6        -50.5336  -26.3516    7.6010 C.3       14 UNK        -0.0898 
      7 S7        -49.3905  -27.4545    6.6862 S.3       14 UNK        -0.2598 
      8 C8        -50.4423  -28.8730    6.2303 C.3       14 UNK         0.0286 
      9 C9        -51.0620  -29.5393    7.4498 C.ar      14 UNK        -0.0844 
     10 C10       -50.2677  -30.2599    8.3472 C.ar      14 UNK        -0.0881 
     11 C11       -50.8255  -30.8024    9.5088 C.ar      14 UNK        -0.0643 
     12 C12       -52.1960  -30.6539    9.7471 C.ar      14 UNK        -0.0930 
     13 C13       -52.9996  -29.9379    8.8553 C.ar      14 UNK        -0.0827 
     14 C14       -52.4292  -29.3976    7.7010 C.ar      14 UNK        -0.1249 
     15 C15       -54.4744  -29.7089    9.1484 C.3       14 UNK         0.0141 
     16 S16       -54.7766  -27.9735    9.6090 S.3       14 UNK        -0.2313 
     17 C17       -56.5652  -27.9972    9.9704 C.3       14 UNK        -0.0915 
     18 CA        -56.8746  -27.6566   11.4545 C.3       13 UNK         0.0968 
     19 C         -58.4001  -27.4781   11.7047 C.2       13 UNK         0.5732 
     20 N         -58.9793  -28.0687   12.7439 N.am      13 UNK        -0.7310 
     21 O         -59.0727  -26.7749   10.9542 O.2       13 UNK        -0.5035 
     22 N         -56.2464  -28.6249   12.3700 N.am      13 UNK        -0.4233 
     23 C         -55.3074  -28.3298   13.2738 C.2       13 UNK         0.4989 
     24 O         -54.8792  -27.1921   13.4902 O.2       13 UNK        -0.4996 
     25 CA        -54.7336  -29.5192   14.0555 C.3       12 UNK         0.0216 
     26 CB        -54.0085  -30.5067   13.1235 C.3       12 UNK        -0.1964 
     27 N         -53.7946  -29.0029   15.0418 N.am      12 UNK        -0.4276 
     28 C         -53.4364  -29.5881   16.1887 C.2       12 UNK         0.5020 
     29 O         -53.8359  -30.6961   16.5494 O.2       12 UNK        -0.5489 
     30 CA        -52.4668  -28.8045   17.0892 C.3       11 UNK         0.0294 
     31 CB        -51.0324  -29.3320   16.9212 C.3       11 UNK        -0.2019 
     32 N         -52.4807  -27.3720   16.7906 N.am      11 UNK        -0.4493 
     33 C         -53.3769  -26.4951   17.2619 C.2       11 UNK         0.4932 
     34 O         -54.2706  -26.7917   18.0566 O.2       11 UNK        -0.5029 
     35 CA        -53.2449  -25.0490   16.7434 C.3       10 UNK         0.0280 
     36 CB        -53.9955  -24.0187   17.6134 C.3       10 UNK        -0.1976 
     37 N         -51.8466  -24.6535   16.5377 N.am      10 UNK        -0.4242 
     38 C         -50.8722  -24.5757   17.4589 C.2       10 UNK         0.5072 
     39 O         -51.0483  -24.7440   18.6663 O.2       10 UNK        -0.5224 
     40 CA        -49.4443  -24.2990   16.9513 C.3       9 UNK         0.0343 
     41 CB        -48.5899  -25.5737   17.0598 C.3       9 UNK        -0.2003 
     42 N         -49.4010  -23.8274   15.5663 N.am      9 UNK        -0.4272 
     43 C         -49.7350  -22.5964   15.1578 C.2       9 UNK         0.4988 
     44 O         -50.0537  -21.6814   15.9174 O.2       9 UNK        -0.5108 
     45 CA        -49.7478  -22.3630   13.6384 C.3       8 UNK         0.0248 
     46 CB        -48.3294  -22.0785   13.1170 C.3       8 UNK        -0.2001 
     47 N         -50.3274  -23.4920   12.9033 N.am      8 UNK        -0.4140 
     48 C         -51.6217  -23.8426   12.9357 C.2       8 UNK         0.5028 
     49 O         -52.4758  -23.2453   13.5897 O.2       8 UNK        -0.5428 
     50 CA        -52.0320  -25.0779   12.1181 C.3       7 UNK         0.0264 
     51 CB        -52.3560  -24.6877   10.6667 C.3       7 UNK        -0.1988 
     52 N         -51.0070  -26.1212   12.1182 N.am      7 UNK        -0.4454 
     53 C         -50.7420  -26.9260   13.1569 C.2       7 UNK         0.5027 
     54 O         -51.3185  -26.8675   14.2448 O.2       7 UNK        -0.5083 
     55 CA        -49.6228  -27.9642   12.9323 C.3       6 UNK         0.0844 
     56 C56       -50.1702  -29.1100   12.0424 C.3       14 UNK        -0.0967 
     57 S57       -48.9221  -30.3255   11.4965 S.3       14 UNK        -0.2604 
     58 C58       -49.9427  -31.5007   10.5368 C.3       14 UNK         0.0134 
     59 N         -48.3797  -27.3822   12.4043 N.am      6 UNK        -0.4116 
     60 C         -47.7288  -26.3062   12.8727 C.2       5 UNK         0.5034 
     61 O         -48.1565  -25.5897   13.7761 O.2       5 UNK        -0.5045 
     62 CA        -46.3614  -25.9552   12.2578 C.3       5 UNK         0.0224 
     63 CB        -45.2659  -25.9742   13.3380 C.3       5 UNK        -0.1978 
     64 N         -45.9456  -26.8198   11.1489 N.am      5 UNK        -0.4737 
     65 C         -46.4219  -26.7386    9.9024 C.2       4 UNK         0.5027 
     66 O         -47.3292  -25.9781    9.5620 O.2       4 UNK        -0.5211 
     67 CA        -45.7920  -27.6866    8.8795 C.3       4 UNK         0.0297 
     68 CB        -46.3974  -29.0954    8.9932 C.3       4 UNK        -0.1993 
     69 N         -46.0346  -27.1565    7.5437 N.am      4 UNK        -0.4486 
     70 C         -45.2321  -27.3116    6.4861 C.2       3 UNK         0.4961 
     71 O         -44.1733  -27.9403    6.5192 O.2       3 UNK        -0.5105 
     72 CA        -45.6790  -26.6775    5.1575 C.3       3 UNK         0.0299 
     73 CB        -46.2726  -27.7509    4.2297 C.3       3 UNK        -0.1972 
     74 N         -46.6550  -25.5961    5.3190 N.am      3 UNK        -0.4305 
     75 C         -46.3520  -24.3353    5.6645 C.2       2 UNK         0.5006 
     76 O         -45.2101  -23.9585    5.9298 O.2       2 UNK        -0.5106 
     77 CA        -47.5014  -23.3109    5.6967 C.3       2 UNK         0.0296 
     78 CB        -47.4891  -22.4586    4.4165 C.3       2 UNK        -0.2002 
     79 N         -48.8113  -23.9535    5.8254 N.am      2 UNK        -0.4032 
     80 C         -49.4781  -24.1103    6.9778 C.2       1 UNK         0.5000 
     81 O         -49.1201  -23.6177    8.0485 O.2       1 UNK        -0.5238 
     82 H82       -52.0636  -23.8090    2.8016 H         1 UNK         0.0889 
     83 H83       -53.5918  -24.3335    3.5136 H         1 UNK         0.0889 
     84 H84       -52.2915  -25.4985    3.2585 H         1 UNK         0.0889 
     85 H85       -51.2336  -26.0185    5.1671 H         1 UNK         0.3028 
     86 H86       -51.4952  -24.4398    7.5470 H         1 UNK         0.0864 
     87 H87       -50.1407  -26.2281    8.6121 H         1 UNK         0.0720 
     88 H88       -51.4988  -26.8396    7.7296 H         1 UNK         0.0720 
     89 H89       -49.8376  -29.6022    5.6894 H         1 UNK         0.0814 
     90 H90       -51.2138  -28.5395    5.5350 H         1 UNK         0.0814 
     91 H91       -49.2087  -30.3649    8.1606 H         1 UNK         0.1469 
     92 H92       -52.6298  -31.0750   10.6417 H         1 UNK         0.1381 
     93 H93       -53.0476  -28.8302    7.0187 H         1 UNK         0.1206 
     94 H94       -55.0659  -29.9604    8.2668 H         1 UNK         0.0813 
     95 H95       -54.8154  -30.3624    9.9523 H         1 UNK         0.0813 
     96 H96       -56.9866  -28.9681    9.7046 H         1 UNK         0.0638 
     97 H97       -57.0331  -27.2708    9.3037 H         1 UNK         0.0638 
     98 H98       -56.4605  -26.6645   11.6425 H         1 UNK         0.0568 
     99 H99       -58.4405  -28.6209   13.3908 H         1 UNK         0.3450 
    100 H100      -59.9671  -27.9369   12.8951 H         1 UNK         0.3450 
    101 H101      -56.5532  -29.5812   12.2695 H         1 UNK         0.2987 
    102 H102      -55.5550  -30.0233   14.5691 H         1 UNK         0.0766 
    103 H103      -53.5147  -31.3012   13.6834 H         1 UNK         0.0798 
    104 H104      -53.2533  -29.9929   12.5308 H         1 UNK         0.0798 
    105 H105      -54.7017  -30.9860   12.4321 H         1 UNK         0.0798 
    106 H106      -53.4626  -28.0655   14.8413 H         1 UNK         0.3198 
    107 H107      -52.7731  -28.9577   18.1264 H         1 UNK         0.0843 
    108 H108      -50.6787  -29.2206   15.8957 H         1 UNK         0.0831 
    109 H109      -50.9755  -30.3920   17.1723 H         1 UNK         0.0831 
    110 H110      -50.3369  -28.8060   17.5755 H         1 UNK         0.0831 
    111 H111      -51.8364  -27.0543   16.0701 H         1 UNK         0.3133 
    112 H112      -53.7055  -25.0414   15.7541 H         1 UNK         0.0566 
    113 H113      -53.8859  -23.0101   17.2149 H         1 UNK         0.0814 
    114 H114      -55.0630  -24.2394   17.6455 H         1 UNK         0.0814 
    115 H115      -53.6344  -24.0152   18.6422 H         1 UNK         0.0814 
    116 H116      -51.5834  -24.4951   15.5745 H         1 UNK         0.3091 
    117 H117      -49.0069  -23.5322   17.5938 H         1 UNK         0.0702 
    118 H118      -47.5613  -25.3894   16.7490 H         1 UNK         0.0785 
    119 H119      -48.9872  -26.3774   16.4376 H         1 UNK         0.0785 
    120 H120      -48.5584  -25.9400   18.0868 H         1 UNK         0.0785 
    121 H121      -49.0824  -24.5012   14.8705 H         1 UNK         0.2998 
    122 H122      -50.3646  -21.4833   13.4422 H         1 UNK         0.0697 
    123 H123      -47.6576  -22.9216   13.2818 H         1 UNK         0.0825 
    124 H124      -47.8959  -21.2150   13.6234 H         1 UNK         0.0825 
    125 H125      -48.3352  -21.8572   12.0496 H         1 UNK         0.0825 
    126 H126      -49.6878  -24.0659   12.3741 H         1 UNK         0.3029 
    127 H127      -52.9381  -25.4882   12.5703 H         1 UNK         0.0897 
    128 H128      -52.7089  -25.5465   10.0950 H         1 UNK         0.0792 
    129 H129      -51.4865  -24.2745   10.1537 H         1 UNK         0.0792 
    130 H130      -53.1436  -23.9337   10.6338 H         1 UNK         0.0792 
    131 H131      -50.4677  -26.2346   11.2721 H         1 UNK         0.3086 
    132 H132      -49.3697  -28.3845   13.9074 H         1 UNK         0.0583 
    133 H133      -50.6354  -28.6967   11.1452 H         1 UNK         0.1020 
    134 H134      -50.9545  -29.6496   12.5751 H         1 UNK         0.1020 
    135 H135      -49.2858  -32.2098   10.0311 H         1 UNK         0.0694 
    136 H136      -50.5501  -32.0867   11.2285 H         1 UNK         0.0694 
    137 H137      -47.9407  -27.9062   11.6619 H         1 UNK         0.2989 
    138 H138      -46.4453  -24.9332   11.8807 H         1 UNK         0.1055 
    139 H139      -45.5101  -25.2977   14.1587 H         1 UNK         0.0806 
    140 H140      -44.3050  -25.6528   12.9357 H         1 UNK         0.0806 
    141 H141      -45.1371  -26.9695   13.7652 H         1 UNK         0.0806 
    142 H142      -45.2153  -27.4895   11.3491 H         1 UNK         0.3061 
    143 H143      -44.7167  -27.7303    9.0665 H         1 UNK         0.0734 
    144 H144      -45.9900  -29.7686    8.2389 H         1 UNK         0.0832 
    145 H145      -46.1901  -29.5381    9.9680 H         1 UNK         0.0832 
    146 H146      -47.4797  -29.0681    8.8700 H         1 UNK         0.0832 
    147 H147      -46.8693  -26.5877    7.4659 H         1 UNK         0.3156 
    148 H148      -44.7884  -26.2705    4.6738 H         1 UNK         0.0589 
    149 H149      -47.1662  -28.2074    4.6570 H         1 UNK         0.0808 
    150 H150      -46.5383  -27.3346    3.2578 H         1 UNK         0.0808 
    151 H151      -45.5539  -28.5519    4.0509 H         1 UNK         0.0808 
    152 H152      -47.6196  -25.8364    5.1480 H         1 UNK         0.3098 
    153 H153      -47.3252  -22.6473    6.5461 H         1 UNK         0.0720 
    154 H154      -48.2681  -21.6962    4.4418 H         1 UNK         0.0791 
    155 H155      -47.6418  -23.0651    3.5228 H         1 UNK         0.0791 
    156 H156      -46.5354  -21.9416    4.3008 H         1 UNK         0.0791 
    157 H157      -49.2162  -24.3466    4.9886 H         1 UNK         0.3028 
@<TRIPOS>BOND
     1    1    2 1    
     2    1   82 1    
     3    1   83 1    
     4    1   84 1    
     5    2    3 2    
     6    2    4 am   BACKBONE|DICT|INTERRES
     7    4    5 1    
     8    4   85 1    
     9    5    6 1    
    10    5   80 1    
    11    5   86 1    
    12    6    7 1    
    13    6   87 1    
    14    6   88 1    
    15    7    8 1    
    16    8    9 1    
    17    8   89 1    
    18    8   90 1    
    19    9   10 ar   
    20    9   14 ar   
    21   10   11 ar   
    22   10   91 1    
    23   11   12 ar   
    24   11   58 1    
    25   12   13 ar   
    26   12   92 1    
    27   13   14 ar   
    28   13   15 1    
    29   14   93 1    
    30   15   16 1    
    31   15   94 1    
    32   15   95 1    
    33   16   17 1    
    34   17   18 1    
    35   17   96 1    
    36   17   97 1    
    37   18   19 1    
    38   18   22 1    
    39   18   98 1    
    40   19   20 am   BACKBONE|DICT|INTERRES
    41   19   21 2    
    42   20   99 1    
    43   20  100 1    
    44   22   23 am   BACKBONE|DICT|INTERRES
    45   22  101 1    
    46   23   24 2    
    47   23   25 1    
    48   25   26 1    
    49   25   27 1    
    50   25  102 1    
    51   26  103 1    
    52   26  104 1    
    53   26  105 1    
    54   27   28 am   BACKBONE|DICT|INTERRES
    55   27  106 1    
    56   28   29 2    
    57   28   30 1    
    58   30   31 1    
    59   30   32 1    
    60   30  107 1    
    61   31  108 1    
    62   31  109 1    
    63   31  110 1    
    64   32   33 am   BACKBONE|DICT|INTERRES
    65   32  111 1    
    66   33   34 2    
    67   33   35 1    
    68   35   36 1    
    69   35   37 1    
    70   35  112 1    
    71   36  113 1    
    72   36  114 1    
    73   36  115 1    
    74   37   38 am   BACKBONE|DICT|INTERRES
    75   37  116 1    
    76   38   39 2    
    77   38   40 1    
    78   40   41 1    
    79   40   42 1    
    80   40  117 1    
    81   41  118 1    
    82   41  119 1    
    83   41  120 1    
    84   42   43 am   BACKBONE|DICT|INTERRES
    85   42  121 1    
    86   43   44 2    
    87   43   45 1    
    88   45   46 1    
    89   45   47 1    
    90   45  122 1    
    91   46  123 1    
    92   46  124 1    
    93   46  125 1    
    94   47   48 am   BACKBONE|DICT|INTERRES
    95   47  126 1    
    96   48   49 2    
    97   48   50 1    
    98   50   51 1    
    99   50   52 1    
   100   50  127 1    
   101   51  128 1    
   102   51  129 1    
   103   51  130 1    
   104   52   53 am   BACKBONE|DICT|INTERRES
   105   52  131 1    
   106   53   54 2    
   107   53   55 1    
   108   55   56 1    
   109   55   59 1    
   110   55  132 1    
   111   56   57 1    
   112   56  133 1    
   113   56  134 1    
   114   57   58 1    
   115   58  135 1    
   116   58  136 1    
   117   59   60 am   BACKBONE|DICT|INTERRES
   118   59  137 1    
   119   60   61 2    
   120   60   62 1    
   121   62   63 1    
   122   62   64 1    
   123   62  138 1    
   124   63  139 1    
   125   63  140 1    
   126   63  141 1    
   127   64   65 am   BACKBONE|DICT|INTERRES
   128   64  142 1    
   129   65   66 2    
   130   65   67 1    
   131   67   68 1    
   132   67   69 1    
   133   67  143 1    
   134   68  144 1    
   135   68  145 1    
   136   68  146 1    
   137   69   70 am   BACKBONE|DICT|INTERRES
   138   69  147 1    
   139   70   71 2    
   140   70   72 1    
   141   72   73 1    
   142   72   74 1    
   143   72  148 1    
   144   73  149 1    
   145   73  150 1    
   146   73  151 1    
   147   74   75 am   BACKBONE|DICT|INTERRES
   148   74  152 1    
   149   75   76 2    
   150   75   77 1    
   151   77   78 1    
   152   77   79 1    
   153   77  153 1    
   154   78  154 1    
   155   78  155 1    
   156   78  156 1    
   157   79   80 am   BACKBONE|DICT|INTERRES
   158   79  157 1    
   159   80   81 2    
@<TRIPOS>SUBSTRUCTURE
     1 UNK         1 GROUP             0       ****    0 ROOT    
