@<TRIPOS>MOLECULE
3R207
157   159    1
SMALL
USER_CHARGES


@<TRIPOS>ATOM
      1 CA        -49.9631  -29.6516    9.1645 C.3       0 UNK        -0.1975 
      2 C         -49.3538  -29.7681    7.7762 C.2       0 UNK         0.4852 
      3 O         -48.1945  -30.1631    7.6521 O.2       0 UNK        -0.5216 
      4 N         -50.1162  -29.4184    6.7292 N.am      1 UNK        -0.4461 
      5 CA        -49.6571  -29.4386    5.3312 C.3       1 UNK         0.0864 
      6 C6        -50.8247  -29.6599    4.3311 C.3       14 UNK        -0.0898 
      7 S7        -51.9848  -28.2568    4.1555 S.3       14 UNK        -0.2598 
      8 C8        -53.5481  -28.9621    4.7722 C.3       14 UNK         0.0286 
      9 C9        -53.5141  -29.1638    6.2784 C.ar      14 UNK        -0.0844 
     10 C10       -53.3719  -28.0595    7.1211 C.ar      14 UNK        -0.0881 
     11 C11       -53.2754  -28.2289    8.5035 C.ar      14 UNK        -0.0643 
     12 C12       -53.3661  -29.5149    9.0439 C.ar      14 UNK        -0.0930 
     13 C13       -53.5525  -30.6261    8.2164 C.ar      14 UNK        -0.0827 
     14 C14       -53.6157  -30.4441    6.8308 C.ar      14 UNK        -0.1249 
     15 C15       -53.6580  -32.0247    8.8115 C.3       14 UNK         0.0141 
     16 S16       -55.2223  -32.2786    9.7184 S.3       14 UNK        -0.2313 
     17 C17       -54.7904  -31.7290   11.4062 C.3       14 UNK        -0.0915 
     18 CA        -55.5097  -30.4096   11.8335 C.3       13 UNK         0.0968 
     19 C         -56.8908  -30.6275   12.5208 C.2       13 UNK         0.5732 
     20 N         -57.6819  -31.5822   12.0501 N.am      13 UNK        -0.7310 
     21 O         -57.2771  -29.9147   13.4461 O.2       13 UNK        -0.5035 
     22 N         -54.6146  -29.5171   12.5824 N.am      13 UNK        -0.4233 
     23 C         -53.9961  -29.7798   13.7381 C.2       13 UNK         0.4989 
     24 O         -54.1371  -30.8240   14.3759 O.2       13 UNK        -0.4996 
     25 CA        -52.9936  -28.7241   14.2430 C.3       12 UNK         0.0216 
     26 CB        -51.7475  -28.6962   13.3366 C.3       12 UNK        -0.1964 
     27 N         -53.5301  -27.3698   14.4552 N.am      12 UNK        -0.4276 
     28 C         -54.1127  -26.5356   13.5765 C.2       12 UNK         0.5020 
     29 O         -54.3055  -26.8119   12.3938 O.2       12 UNK        -0.5489 
     30 CA        -54.5738  -25.1574   14.0770 C.3       11 UNK         0.0294 
     31 CB        -56.0791  -25.1763   14.3887 C.3       11 UNK        -0.2019 
     32 N         -53.8398  -24.7271   15.2646 N.am      11 UNK        -0.4493 
     33 C         -53.1864  -23.5723   15.4102 C.2       11 UNK         0.4932 
     34 O         -53.1924  -22.6608   14.5821 O.2       11 UNK        -0.5029 
     35 CA        -52.3840  -23.4083   16.7127 C.3       10 UNK         0.0280 
     36 CB        -53.3077  -23.3371   17.9453 C.3       10 UNK        -0.1976 
     37 N         -51.3226  -24.4096   16.8901 N.am      10 UNK        -0.4242 
     38 C         -51.4243  -25.7418   17.0370 C.2       10 UNK         0.5072 
     39 O         -52.4960  -26.3557   17.0421 O.2       10 UNK        -0.5224 
     40 CA        -50.1011  -26.5115   17.1876 C.3       9 UNK         0.0343 
     41 CB        -50.2317  -28.0248   16.9383 C.3       9 UNK        -0.2003 
     42 N         -49.0890  -25.9497   16.2940 N.am      9 UNK        -0.4272 
     43 C         -47.8427  -25.6209   16.6596 C.2       9 UNK         0.4988 
     44 O         -47.3679  -25.8725   17.7680 O.2       9 UNK        -0.5108 
     45 CA        -46.9737  -24.8555   15.6409 C.3       8 UNK         0.0248 
     46 CB        -45.9741  -25.8116   14.9702 C.3       8 UNK        -0.2001 
     47 N         -47.7226  -24.1271   14.6088 N.am      8 UNK        -0.4140 
     48 C         -48.6485  -23.1828   14.8375 C.2       8 UNK         0.5028 
     49 O         -48.9665  -22.7940   15.9627 O.2       8 UNK        -0.5428 
     50 CA        -49.3909  -22.6136   13.6169 C.3       7 UNK         0.0264 
     51 CB        -48.6392  -21.3988   13.0514 C.3       7 UNK        -0.1988 
     52 N         -49.6266  -23.5876   12.5453 N.am      7 UNK        -0.4454 
     53 C         -50.3117  -24.7352   12.6765 C.2       7 UNK         0.5027 
     54 O         -50.7813  -25.1368   13.7412 O.2       7 UNK        -0.5083 
     55 CA        -50.4444  -25.6072   11.4132 C.3       6 UNK         0.0844 
     56 C56       -51.4286  -24.9788   10.3957 C.3       14 UNK        -0.0967 
     57 S57       -51.6489  -26.0136    8.9126 S.3       14 UNK        -0.2604 
     58 C58       -53.0694  -27.0300    9.4159 C.3       14 UNK         0.0134 
     59 N         -49.1257  -25.9044   10.8498 N.am      6 UNK        -0.4116 
     60 C         -48.1797  -26.6256   11.4694 C.2       5 UNK         0.5034 
     61 O         -48.3571  -27.2335   12.5246 O.2       5 UNK        -0.5045 
     62 CA        -46.7810  -26.6328   10.8329 C.3       5 UNK         0.0224 
     63 CB        -46.6331  -27.7825    9.8242 C.3       5 UNK        -0.1978 
     64 N         -46.4603  -25.3578   10.1867 N.am      5 UNK        -0.4737 
     65 C         -46.2145  -24.2185   10.8489 C.2       4 UNK         0.5027 
     66 O         -46.1991  -24.1315   12.0758 O.2       4 UNK        -0.5211 
     67 CA        -45.9843  -22.9573    9.9998 C.3       4 UNK         0.0297 
     68 CB        -44.5213  -22.8777    9.5364 C.3       4 UNK        -0.1993 
     69 N         -46.8740  -22.8870    8.8382 N.am      4 UNK        -0.4486 
     70 C         -48.2044  -22.7438    8.9142 C.2       3 UNK         0.4961 
     71 O         -48.8211  -22.6130    9.9714 O.2       3 UNK        -0.5105 
     72 CA        -48.9854  -22.8065    7.5901 C.3       3 UNK         0.0299 
     73 CB        -49.0381  -21.4196    6.9303 C.3       3 UNK        -0.1972 
     74 N         -48.4728  -23.7932    6.6293 N.am      3 UNK        -0.4305 
     75 C         -48.3487  -25.1036    6.8789 C.2       2 UNK         0.5006 
     76 O         -48.5454  -25.6150    7.9827 O.2       2 UNK        -0.5106 
     77 CA        -47.9036  -26.0012    5.7237 C.3       2 UNK         0.0296 
     78 CB        -46.3829  -26.2407    5.7800 C.3       2 UNK        -0.2002 
     79 N         -48.6323  -27.2559    5.8681 N.am      2 UNK        -0.4032 
     80 C         -48.7677  -28.2261    4.9562 C.2       1 UNK         0.5000 
     81 O         -48.2288  -28.1943    3.8475 O.2       1 UNK        -0.5238 
     82 H82       -49.1860  -29.6536    9.9283 H         1 UNK         0.0889 
     83 H83       -50.6291  -30.4916    9.3575 H         1 UNK         0.0889 
     84 H84       -50.5239  -28.7248    9.2690 H         1 UNK         0.0889 
     85 H85       -51.0716  -29.1145    6.8740 H         1 UNK         0.3028 
     86 H86       -49.0055  -30.3086    5.2227 H         1 UNK         0.0864 
     87 H87       -51.3784  -30.5571    4.6115 H         1 UNK         0.0720 
     88 H88       -50.4213  -29.8735    3.3396 H         1 UNK         0.0720 
     89 H89       -54.3645  -28.2824    4.5242 H         1 UNK         0.0814 
     90 H90       -53.7582  -29.8971    4.2505 H         1 UNK         0.0814 
     91 H91       -53.3010  -27.0668    6.6967 H         1 UNK         0.1469 
     92 H92       -53.2872  -29.6526   10.1118 H         1 UNK         0.1381 
     93 H93       -53.7383  -31.3001    6.1812 H         1 UNK         0.1206 
     94 H94       -53.6056  -32.7722    8.0185 H         1 UNK         0.0813 
     95 H95       -52.8012  -32.2217    9.4570 H         1 UNK         0.0813 
     96 H96       -53.7081  -31.6059   11.4540 H         1 UNK         0.0638 
     97 H97       -55.0056  -32.5385   12.1062 H         1 UNK         0.0638 
     98 H98       -55.7400  -29.8384   10.9336 H         1 UNK         0.0568 
     99 H99       -58.5864  -31.7274   12.4702 H         1 UNK         0.3450 
    100 H100      -57.3819  -32.1579   11.2779 H         1 UNK         0.3450 
    101 H101      -54.5123  -28.5697   12.2211 H         1 UNK         0.2987 
    102 H102      -52.6694  -29.0555   15.2306 H         1 UNK         0.0766 
    103 H103      -52.0032  -28.4729   12.3021 H         1 UNK         0.0798 
    104 H104      -51.2434  -29.6634   13.3395 H         1 UNK         0.0798 
    105 H105      -51.0234  -27.9530   13.6694 H         1 UNK         0.0798 
    106 H106      -53.3992  -27.0359   15.4037 H         1 UNK         0.3198 
    107 H107      -54.3988  -24.4554   13.2587 H         1 UNK         0.0843 
    108 H108      -56.6544  -25.4913   13.5169 H         1 UNK         0.0831 
    109 H109      -56.4362  -24.1860   14.6718 H         1 UNK         0.0831 
    110 H110      -56.3149  -25.8637   15.2020 H         1 UNK         0.0831 
    111 H111      -53.6962  -25.4078   16.0052 H         1 UNK         0.3133 
    112 H112      -51.8673  -22.4498   16.6409 H         1 UNK         0.0566 
    113 H113      -52.7419  -23.1091   18.8486 H         1 UNK         0.0814 
    114 H114      -54.0550  -22.5517   17.8253 H         1 UNK         0.0814 
    115 H115      -53.8446  -24.2705   18.1162 H         1 UNK         0.0814 
    116 H116      -50.3853  -24.0230   16.8264 H         1 UNK         0.3091 
    117 H117      -49.8035  -26.3700   18.2286 H         1 UNK         0.0702 
    118 H118      -50.9996  -28.4686   17.5731 H         1 UNK         0.0785 
    119 H119      -50.4916  -28.2378   15.9037 H         1 UNK         0.0785 
    120 H120      -49.2960  -28.5394   17.1567 H         1 UNK         0.0785 
    121 H121      -49.4118  -25.6999   15.3642 H         1 UNK         0.2998 
    122 H122      -46.4058  -24.1126   16.2042 H         1 UNK         0.0697 
    123 H123      -46.4800  -26.5524   14.3508 H         1 UNK         0.0825 
    124 H124      -45.3898  -26.3540   15.7149 H         1 UNK         0.0825 
    125 H125      -45.2674  -25.2715   14.3404 H         1 UNK         0.0825 
    126 H126      -47.4700  -24.3255   13.6452 H         1 UNK         0.3029 
    127 H127      -50.3704  -22.2776   13.9641 H         1 UNK         0.0897 
    128 H128      -49.2025  -20.9222   12.2488 H         1 UNK         0.0792 
    129 H129      -47.6635  -21.6801   12.6538 H         1 UNK         0.0792 
    130 H130      -48.4744  -20.6458   13.8232 H         1 UNK         0.0792 
    131 H131      -49.2744  -23.3316   11.6239 H         1 UNK         0.3086 
    132 H132      -50.8730  -26.5581   11.7256 H         1 UNK         0.0583 
    133 H133      -52.4031  -24.8116   10.8598 H         1 UNK         0.1020 
    134 H134      -51.0793  -23.9985   10.0693 H         1 UNK         0.1020 
    135 H135      -52.8863  -27.3744   10.4312 H         1 UNK         0.0694 
    136 H136      -53.9744  -26.4216    9.4396 H         1 UNK         0.0694 
    137 H137      -48.9199  -25.5175    9.9337 H         1 UNK         0.2989 
    138 H138      -46.0593  -26.7937   11.6372 H         1 UNK         0.1055 
    139 H139      -46.8190  -28.7451   10.3020 H         1 UNK         0.0806 
    140 H140      -45.6264  -27.8190    9.4078 H         1 UNK         0.0806 
    141 H141      -47.3343  -27.6925    8.9950 H         1 UNK         0.0806 
    142 H142      -46.5409  -25.3265    9.1800 H         1 UNK         0.3061 
    143 H143      -46.1886  -22.0907   10.6321 H         1 UNK         0.0734 
    144 H144      -44.3234  -21.9477    9.0031 H         1 UNK         0.0832 
    145 H145      -43.8417  -22.9104   10.3893 H         1 UNK         0.0832 
    146 H146      -44.2572  -23.7066    8.8784 H         1 UNK         0.0832 
    147 H147      -46.4541  -22.9893    7.9259 H         1 UNK         0.3156 
    148 H148      -50.0079  -23.1021    7.8352 H         1 UNK         0.0589 
    149 H149      -48.0495  -21.0815    6.6171 H         1 UNK         0.0808 
    150 H150      -49.6870  -21.4204    6.0543 H         1 UNK         0.0808 
    151 H151      -49.4335  -20.6739    7.6217 H         1 UNK         0.0808 
    152 H152      -48.2715  -23.4552    5.6988 H         1 UNK         0.3098 
    153 H153      -48.1768  -25.5376    4.7737 H         1 UNK         0.0720 
    154 H154      -46.0879  -26.7323    6.7082 H         1 UNK         0.0791 
    155 H155      -45.8348  -25.2999    5.7175 H         1 UNK         0.0791 
    156 H156      -46.0457  -26.8642    4.9520 H         1 UNK         0.0791 
    157 H157      -49.1109  -27.3479    6.7558 H         1 UNK         0.3028 
@<TRIPOS>BOND
     1    1    2 1    
     2    1   82 1    
     3    1   83 1    
     4    1   84 1    
     5    2    3 2    
     6    2    4 am   BACKBONE|DICT|INTERRES
     7    4    5 1    
     8    4   85 1    
     9    5    6 1    
    10    5   80 1    
    11    5   86 1    
    12    6    7 1    
    13    6   87 1    
    14    6   88 1    
    15    7    8 1    
    16    8    9 1    
    17    8   89 1    
    18    8   90 1    
    19    9   10 ar   
    20    9   14 ar   
    21   10   11 ar   
    22   10   91 1    
    23   11   12 ar   
    24   11   58 1    
    25   12   13 ar   
    26   12   92 1    
    27   13   14 ar   
    28   13   15 1    
    29   14   93 1    
    30   15   16 1    
    31   15   94 1    
    32   15   95 1    
    33   16   17 1    
    34   17   18 1    
    35   17   96 1    
    36   17   97 1    
    37   18   19 1    
    38   18   22 1    
    39   18   98 1    
    40   19   20 am   BACKBONE|DICT|INTERRES
    41   19   21 2    
    42   20   99 1    
    43   20  100 1    
    44   22   23 am   BACKBONE|DICT|INTERRES
    45   22  101 1    
    46   23   24 2    
    47   23   25 1    
    48   25   26 1    
    49   25   27 1    
    50   25  102 1    
    51   26  103 1    
    52   26  104 1    
    53   26  105 1    
    54   27   28 am   BACKBONE|DICT|INTERRES
    55   27  106 1    
    56   28   29 2    
    57   28   30 1    
    58   30   31 1    
    59   30   32 1    
    60   30  107 1    
    61   31  108 1    
    62   31  109 1    
    63   31  110 1    
    64   32   33 am   BACKBONE|DICT|INTERRES
    65   32  111 1    
    66   33   34 2    
    67   33   35 1    
    68   35   36 1    
    69   35   37 1    
    70   35  112 1    
    71   36  113 1    
    72   36  114 1    
    73   36  115 1    
    74   37   38 am   BACKBONE|DICT|INTERRES
    75   37  116 1    
    76   38   39 2    
    77   38   40 1    
    78   40   41 1    
    79   40   42 1    
    80   40  117 1    
    81   41  118 1    
    82   41  119 1    
    83   41  120 1    
    84   42   43 am   BACKBONE|DICT|INTERRES
    85   42  121 1    
    86   43   44 2    
    87   43   45 1    
    88   45   46 1    
    89   45   47 1    
    90   45  122 1    
    91   46  123 1    
    92   46  124 1    
    93   46  125 1    
    94   47   48 am   BACKBONE|DICT|INTERRES
    95   47  126 1    
    96   48   49 2    
    97   48   50 1    
    98   50   51 1    
    99   50   52 1    
   100   50  127 1    
   101   51  128 1    
   102   51  129 1    
   103   51  130 1    
   104   52   53 am   BACKBONE|DICT|INTERRES
   105   52  131 1    
   106   53   54 2    
   107   53   55 1    
   108   55   56 1    
   109   55   59 1    
   110   55  132 1    
   111   56   57 1    
   112   56  133 1    
   113   56  134 1    
   114   57   58 1    
   115   58  135 1    
   116   58  136 1    
   117   59   60 am   BACKBONE|DICT|INTERRES
   118   59  137 1    
   119   60   61 2    
   120   60   62 1    
   121   62   63 1    
   122   62   64 1    
   123   62  138 1    
   124   63  139 1    
   125   63  140 1    
   126   63  141 1    
   127   64   65 am   BACKBONE|DICT|INTERRES
   128   64  142 1    
   129   65   66 2    
   130   65   67 1    
   131   67   68 1    
   132   67   69 1    
   133   67  143 1    
   134   68  144 1    
   135   68  145 1    
   136   68  146 1    
   137   69   70 am   BACKBONE|DICT|INTERRES
   138   69  147 1    
   139   70   71 2    
   140   70   72 1    
   141   72   73 1    
   142   72   74 1    
   143   72  148 1    
   144   73  149 1    
   145   73  150 1    
   146   73  151 1    
   147   74   75 am   BACKBONE|DICT|INTERRES
   148   74  152 1    
   149   75   76 2    
   150   75   77 1    
   151   77   78 1    
   152   77   79 1    
   153   77  153 1    
   154   78  154 1    
   155   78  155 1    
   156   78  156 1    
   157   79   80 am   BACKBONE|DICT|INTERRES
   158   79  157 1    
   159   80   81 2    
@<TRIPOS>SUBSTRUCTURE
     1 UNK         1 GROUP             0       ****    0 ROOT    
