@<TRIPOS>MOLECULE
3R207
157   159    1
SMALL
USER_CHARGES


@<TRIPOS>ATOM
      1 CA        -47.4927  -33.0105    4.8749 C.3       0 UNK        -0.1975 
      2 C         -48.1790  -31.7119    5.2705 C.2       0 UNK         0.4852 
      3 O         -48.1144  -31.3177    6.4353 O.2       0 UNK        -0.5216 
      4 N         -48.8197  -31.0346    4.3065 N.am      1 UNK        -0.4461 
      5 CA        -49.5770  -29.7779    4.4306 C.3       1 UNK         0.0864 
      6 C6        -50.7470  -29.8660    5.4505 C.3       14 UNK        -0.0898 
      7 S7        -52.1531  -28.7890    5.0102 S.3       14 UNK        -0.2598 
      8 C8        -53.3343  -29.1592    6.3484 C.3       14 UNK         0.0286 
      9 C9        -53.0208  -28.3740    7.6135 C.ar      14 UNK        -0.0844 
     10 C10       -52.1340  -28.8907    8.5619 C.ar      14 UNK        -0.0881 
     11 C11       -51.8194  -28.1592    9.7092 C.ar      14 UNK        -0.0643 
     12 C12       -52.4220  -26.9180    9.9242 C.ar      14 UNK        -0.0930 
     13 C13       -53.3356  -26.4050    9.0002 C.ar      14 UNK        -0.0827 
     14 C14       -53.6233  -27.1316    7.8404 C.ar      14 UNK        -0.1249 
     15 C15       -53.9852  -25.0540    9.2519 C.3       14 UNK         0.0141 
     16 S16       -55.1307  -25.1048   10.6668 S.3       14 UNK        -0.2313 
     17 C17       -56.6209  -25.8808    9.9456 C.3       14 UNK        -0.0915 
     18 CA        -57.0018  -27.2581   10.5566 C.3       13 UNK         0.0968 
     19 C         -56.1940  -28.4348    9.9366 C.2       13 UNK         0.5732 
     20 N         -55.3221  -29.1060   10.6801 N.am      13 UNK        -0.7310 
     21 O         -56.3967  -28.7663    8.7709 O.2       13 UNK        -0.5035 
     22 N         -57.0294  -27.2274   12.0280 N.am      13 UNK        -0.4233 
     23 C         -57.6809  -28.1071   12.7972 C.2       13 UNK         0.4989 
     24 O         -58.3844  -29.0156   12.3512 O.2       13 UNK        -0.4996 
     25 CA        -57.4900  -27.9561   14.3178 C.3       12 UNK         0.0216 
     26 CB        -58.3973  -28.9023   15.1276 C.3       12 UNK        -0.1964 
     27 N         -56.0958  -28.1912   14.7028 N.am      12 UNK        -0.4276 
     28 C         -55.1182  -27.2812   14.6282 C.2       12 UNK         0.5020 
     29 O         -55.2814  -26.1380   14.1951 O.2       12 UNK        -0.5489 
     30 CA        -53.7176  -27.7341   15.0727 C.3       11 UNK         0.0294 
     31 CB        -52.8400  -28.0450   13.8488 C.3       11 UNK        -0.2019 
     32 N         -53.0617  -26.7089   15.8842 N.am      11 UNK        -0.4493 
     33 C         -53.4495  -26.3379   17.1124 C.2       11 UNK         0.4932 
     34 O         -54.3734  -26.8698   17.7313 O.2       11 UNK        -0.5029 
     35 CA        -52.6493  -25.1851   17.7453 C.3       10 UNK         0.0280 
     36 CB        -53.0357  -24.8955   19.2121 C.3       10 UNK        -0.1976 
     37 N         -51.2024  -25.3780   17.5922 N.am      10 UNK        -0.4242 
     38 C         -50.4400  -26.3414   18.1386 C.2       10 UNK         0.5072 
     39 O         -50.8681  -27.1853   18.9273 O.2       10 UNK        -0.5224 
     40 CA        -48.9499  -26.4012   17.7370 C.3       9 UNK         0.0343 
     41 CB        -48.5761  -27.8016   17.2193 C.3       9 UNK        -0.2003 
     42 N         -48.5865  -25.4099   16.7215 N.am      9 UNK        -0.4272 
     43 C         -48.2872  -24.1264   16.9758 C.2       9 UNK         0.4988 
     44 O         -48.1833  -23.6653   18.1126 O.2       9 UNK        -0.5108 
     45 CA        -48.1110  -23.1813   15.7700 C.3       8 UNK         0.0248 
     46 CB        -46.6202  -22.9071   15.5175 C.3       8 UNK        -0.2001 
     47 N         -48.7361  -23.6669   14.5341 N.am      8 UNK        -0.4140 
     48 C         -50.0531  -23.8721   14.3695 C.2       8 UNK         0.5028 
     49 O         -50.8900  -23.6312   15.2399 O.2       8 UNK        -0.5428 
     50 CA        -50.5187  -24.5165   13.0504 C.3       7 UNK         0.0264 
     51 CB        -51.0607  -23.4407   12.0984 C.3       7 UNK        -0.1988 
     52 N         -49.4883  -25.3281   12.3834 N.am      7 UNK        -0.4454 
     53 C         -48.9268  -26.4163   12.9392 C.2       7 UNK         0.5027 
     54 O         -49.2736  -26.8525   14.0380 O.2       7 UNK        -0.5083 
     55 CA        -47.7527  -27.1109   12.2159 C.3       6 UNK         0.0844 
     56 C56       -48.1433  -28.4786   11.6047 C.3       14 UNK        -0.0967 
     57 S57       -49.1227  -28.3541   10.0781 S.3       14 UNK        -0.2604 
     58 C58       -50.7960  -28.6884   10.6946 C.3       14 UNK         0.0134 
     59 N         -47.0154  -26.2447   11.2870 N.am      6 UNK        -0.4116 
     60 C         -46.2010  -25.2581   11.6907 C.2       5 UNK         0.5034 
     61 O         -46.0960  -24.8989   12.8633 O.2       5 UNK        -0.5045 
     62 CA        -45.3581  -24.5580   10.6183 C.3       5 UNK         0.0224 
     63 CB        -44.3175  -25.5143   10.0093 C.3       5 UNK        -0.1978 
     64 N         -46.2119  -24.0120    9.5679 N.am      5 UNK        -0.4737 
     65 C         -46.7360  -22.7789    9.5949 C.2       4 UNK         0.5027 
     66 O         -46.4839  -21.9492   10.4692 O.2       4 UNK        -0.5211 
     67 CA        -47.7038  -22.3900    8.4613 C.3       4 UNK         0.0297 
     68 CB        -46.9727  -21.5582    7.3951 C.3       4 UNK        -0.1993 
     69 N         -48.3635  -23.5265    7.8137 N.am      4 UNK        -0.4486 
     70 C         -49.1953  -24.3799    8.4256 C.2       3 UNK         0.4961 
     71 O         -49.4840  -24.3242    9.6188 O.2       3 UNK        -0.5105 
     72 CA        -49.7514  -25.5225    7.5675 C.3       3 UNK         0.0299 
     73 CB        -50.9159  -25.0300    6.6944 C.3       3 UNK        -0.1972 
     74 N         -48.7582  -26.1879    6.7204 N.am      3 UNK        -0.4305 
     75 C         -47.5697  -26.6805    7.0999 C.2       2 UNK         0.5006 
     76 O         -47.0618  -26.4858    8.2069 O.2       2 UNK        -0.5106 
     77 CA        -46.8449  -27.5613    6.0627 C.3       2 UNK         0.0296 
     78 CB        -45.5419  -28.1702    6.6140 C.3       2 UNK        -0.2002 
     79 N         -47.7124  -28.6459    5.5928 N.am      2 UNK        -0.4032 
     80 C         -48.6938  -28.5358    4.6878 C.2       1 UNK         0.5000 
     81 O         -48.9271  -27.4887    4.0802 O.2       1 UNK        -0.5238 
     82 H82       -47.6257  -33.2378    3.8174 H         1 UNK         0.0889 
     83 H83       -47.8992  -33.8396    5.4535 H         1 UNK         0.0889 
     84 H84       -46.4238  -32.9460    5.0766 H         1 UNK         0.0889 
     85 H85       -48.7953  -31.4098    3.3678 H         1 UNK         0.3028 
     86 H86       -50.0109  -29.6361    3.4392 H         1 UNK         0.0864 
     87 H87       -51.1302  -30.8868    5.4907 H         1 UNK         0.0720 
     88 H88       -50.4037  -29.6342    6.4597 H         1 UNK         0.0720 
     89 H89       -53.3411  -30.2303    6.5555 H         1 UNK         0.0814 
     90 H90       -54.3406  -28.9136    6.0057 H         1 UNK         0.0814 
     91 H91       -51.6646  -29.8505    8.3975 H         1 UNK         0.1469 
     92 H92       -52.1758  -26.3448   10.8073 H         1 UNK         0.1381 
     93 H93       -54.3184  -26.7336    7.1143 H         1 UNK         0.1206 
     94 H94       -53.2043  -24.3218    9.4601 H         1 UNK         0.0813 
     95 H95       -54.5081  -24.6940    8.3647 H         1 UNK         0.0813 
     96 H96       -57.4448  -25.1850   10.1100 H         1 UNK         0.0638 
     97 H97       -56.5187  -25.9506    8.8611 H         1 UNK         0.0638 
     98 H98       -58.0304  -27.4452   10.2416 H         1 UNK         0.0568 
     99 H99       -54.8044  -29.8614   10.2625 H         1 UNK         0.3450 
    100 H100      -55.1543  -28.8370   11.6335 H         1 UNK         0.3450 
    101 H101      -56.4303  -26.5413   12.4756 H         1 UNK         0.2987 
    102 H102      -57.7664  -26.9321   14.5795 H         1 UNK         0.0766 
    103 H103      -58.2865  -28.7364   16.1994 H         1 UNK         0.0798 
    104 H104      -58.1751  -29.9510   14.9257 H         1 UNK         0.0798 
    105 H105      -59.4481  -28.7388   14.8841 H         1 UNK         0.0798 
    106 H106      -55.8744  -29.1189   15.0366 H         1 UNK         0.3198 
    107 H107      -53.8046  -28.6378   15.6801 H         1 UNK         0.0843 
    108 H108      -51.8303  -28.3327   14.1437 H         1 UNK         0.0831 
    109 H109      -52.7633  -27.1868   13.1801 H         1 UNK         0.0831 
    110 H110      -53.2546  -28.8705   13.2692 H         1 UNK         0.0831 
    111 H111      -52.3119  -26.1947   15.4470 H         1 UNK         0.3133 
    112 H112      -52.8956  -24.2941   17.1658 H         1 UNK         0.0566 
    113 H113      -52.4533  -24.0695   19.6201 H         1 UNK         0.0814 
    114 H114      -54.0879  -24.6185   19.2879 H         1 UNK         0.0814 
    115 H115      -52.8850  -25.7631   19.8549 H         1 UNK         0.0814 
    116 H116      -50.7676  -24.7454   16.9275 H         1 UNK         0.3091 
    117 H117      -48.3658  -26.2116   18.6399 H         1 UNK         0.0702 
    118 H118      -47.5321  -27.8474   16.9092 H         1 UNK         0.0785 
    119 H119      -49.1931  -28.0961   16.3698 H         1 UNK         0.0785 
    120 H120      -48.7149  -28.5552   17.9955 H         1 UNK         0.0785 
    121 H121      -48.6696  -25.7137   15.7575 H         1 UNK         0.2998 
    122 H122      -48.5921  -22.2355   16.0274 H         1 UNK         0.0697 
    123 H123      -46.0725  -23.8253   15.3024 H         1 UNK         0.0825 
    124 H124      -46.1549  -22.4507   16.3923 H         1 UNK         0.0825 
    125 H125      -46.4744  -22.2245   14.6800 H         1 UNK         0.0825 
    126 H126      -48.1099  -23.9193   13.7802 H         1 UNK         0.3029 
    127 H127      -51.3455  -25.1835   13.3004 H         1 UNK         0.0897 
    128 H128      -51.5351  -23.8888   11.2261 H         1 UNK         0.0792 
    129 H129      -51.8157  -22.8252   12.5897 H         1 UNK         0.0792 
    130 H130      -50.2704  -22.7748   11.7497 H         1 UNK         0.0792 
    131 H131      -49.2115  -25.0370   11.4485 H         1 UNK         0.3086 
    132 H132      -47.0489  -27.3518   13.0163 H         1 UNK         0.0583 
    133 H133      -47.2347  -29.0306   11.3595 H         1 UNK         0.1020 
    134 H134      -48.6654  -29.0989   12.3364 H         1 UNK         0.1020 
    135 H135      -50.9273  -29.7612   10.8426 H         1 UNK         0.0694 
    136 H136      -50.9336  -28.2173   11.6678 H         1 UNK         0.0694 
    137 H137      -47.0939  -26.4594   10.2974 H         1 UNK         0.2989 
    138 H138      -44.8111  -23.7470   11.1051 H         1 UNK         0.1055 
    139 H139      -43.6565  -25.9101   10.7814 H         1 UNK         0.0806 
    140 H140      -43.6908  -25.0012    9.2798 H         1 UNK         0.0806 
    141 H141      -44.7784  -26.3666    9.5099 H         1 UNK         0.0806 
    142 H142      -46.5237  -24.6641    8.8547 H         1 UNK         0.3061 
    143 H143      -48.4845  -21.7685    8.9051 H         1 UNK         0.0734 
    144 H144      -47.6613  -21.1930    6.6329 H         1 UNK         0.0832 
    145 H145      -46.4954  -20.6847    7.8417 H         1 UNK         0.0832 
    146 H146      -46.1926  -22.1359    6.8976 H         1 UNK         0.0832 
    147 H147      -48.1652  -23.6755    6.8350 H         1 UNK         0.3156 
    148 H148      -50.1420  -26.2783    8.2486 H         1 UNK         0.0589 
    149 H149      -50.5831  -24.3282    5.9291 H         1 UNK         0.0808 
    150 H150      -51.4122  -25.8625    6.1949 H         1 UNK         0.0808 
    151 H151      -51.6695  -24.5232    7.2981 H         1 UNK         0.0808 
    152 H152      -49.0558  -26.4124    5.7763 H         1 UNK         0.3098 
    153 H153      -46.5852  -26.9218    5.2167 H         1 UNK         0.0720 
    154 H154      -45.0299  -28.7642    5.8569 H         1 UNK         0.0791 
    155 H155      -45.7319  -28.8137    7.4743 H         1 UNK         0.0791 
    156 H156      -44.8504  -27.3901    6.9355 H         1 UNK         0.0791 
    157 H157      -47.6429  -29.5364    6.0806 H         1 UNK         0.3028 
@<TRIPOS>BOND
     1    1    2 1    
     2    1   82 1    
     3    1   83 1    
     4    1   84 1    
     5    2    3 2    
     6    2    4 am   BACKBONE|DICT|INTERRES
     7    4    5 1    
     8    4   85 1    
     9    5    6 1    
    10    5   80 1    
    11    5   86 1    
    12    6    7 1    
    13    6   87 1    
    14    6   88 1    
    15    7    8 1    
    16    8    9 1    
    17    8   89 1    
    18    8   90 1    
    19    9   10 ar   
    20    9   14 ar   
    21   10   11 ar   
    22   10   91 1    
    23   11   12 ar   
    24   11   58 1    
    25   12   13 ar   
    26   12   92 1    
    27   13   14 ar   
    28   13   15 1    
    29   14   93 1    
    30   15   16 1    
    31   15   94 1    
    32   15   95 1    
    33   16   17 1    
    34   17   18 1    
    35   17   96 1    
    36   17   97 1    
    37   18   19 1    
    38   18   22 1    
    39   18   98 1    
    40   19   20 am   BACKBONE|DICT|INTERRES
    41   19   21 2    
    42   20   99 1    
    43   20  100 1    
    44   22   23 am   BACKBONE|DICT|INTERRES
    45   22  101 1    
    46   23   24 2    
    47   23   25 1    
    48   25   26 1    
    49   25   27 1    
    50   25  102 1    
    51   26  103 1    
    52   26  104 1    
    53   26  105 1    
    54   27   28 am   BACKBONE|DICT|INTERRES
    55   27  106 1    
    56   28   29 2    
    57   28   30 1    
    58   30   31 1    
    59   30   32 1    
    60   30  107 1    
    61   31  108 1    
    62   31  109 1    
    63   31  110 1    
    64   32   33 am   BACKBONE|DICT|INTERRES
    65   32  111 1    
    66   33   34 2    
    67   33   35 1    
    68   35   36 1    
    69   35   37 1    
    70   35  112 1    
    71   36  113 1    
    72   36  114 1    
    73   36  115 1    
    74   37   38 am   BACKBONE|DICT|INTERRES
    75   37  116 1    
    76   38   39 2    
    77   38   40 1    
    78   40   41 1    
    79   40   42 1    
    80   40  117 1    
    81   41  118 1    
    82   41  119 1    
    83   41  120 1    
    84   42   43 am   BACKBONE|DICT|INTERRES
    85   42  121 1    
    86   43   44 2    
    87   43   45 1    
    88   45   46 1    
    89   45   47 1    
    90   45  122 1    
    91   46  123 1    
    92   46  124 1    
    93   46  125 1    
    94   47   48 am   BACKBONE|DICT|INTERRES
    95   47  126 1    
    96   48   49 2    
    97   48   50 1    
    98   50   51 1    
    99   50   52 1    
   100   50  127 1    
   101   51  128 1    
   102   51  129 1    
   103   51  130 1    
   104   52   53 am   BACKBONE|DICT|INTERRES
   105   52  131 1    
   106   53   54 2    
   107   53   55 1    
   108   55   56 1    
   109   55   59 1    
   110   55  132 1    
   111   56   57 1    
   112   56  133 1    
   113   56  134 1    
   114   57   58 1    
   115   58  135 1    
   116   58  136 1    
   117   59   60 am   BACKBONE|DICT|INTERRES
   118   59  137 1    
   119   60   61 2    
   120   60   62 1    
   121   62   63 1    
   122   62   64 1    
   123   62  138 1    
   124   63  139 1    
   125   63  140 1    
   126   63  141 1    
   127   64   65 am   BACKBONE|DICT|INTERRES
   128   64  142 1    
   129   65   66 2    
   130   65   67 1    
   131   67   68 1    
   132   67   69 1    
   133   67  143 1    
   134   68  144 1    
   135   68  145 1    
   136   68  146 1    
   137   69   70 am   BACKBONE|DICT|INTERRES
   138   69  147 1    
   139   70   71 2    
   140   70   72 1    
   141   72   73 1    
   142   72   74 1    
   143   72  148 1    
   144   73  149 1    
   145   73  150 1    
   146   73  151 1    
   147   74   75 am   BACKBONE|DICT|INTERRES
   148   74  152 1    
   149   75   76 2    
   150   75   77 1    
   151   77   78 1    
   152   77   79 1    
   153   77  153 1    
   154   78  154 1    
   155   78  155 1    
   156   78  156 1    
   157   79   80 am   BACKBONE|DICT|INTERRES
   158   79  157 1    
   159   80   81 2    
@<TRIPOS>SUBSTRUCTURE
     1 UNK         1 GROUP             0       ****    0 ROOT    
