@<TRIPOS>MOLECULE
3R207
157   159    1
SMALL
USER_CHARGES


@<TRIPOS>ATOM
      1 CA        -44.6815  -29.2030    6.6311 C.3       0 UNK        -0.1975 
      2 C         -46.0249  -29.3442    5.9302 C.2       0 UNK         0.4852 
      3 O         -46.0750  -29.7988    4.7864 O.2       0 UNK        -0.5216 
      4 N         -47.1094  -28.9538    6.6049 N.am      1 UNK        -0.4461 
      5 CA        -48.4845  -28.9962    6.1129 C.3       1 UNK         0.0864 
      6 C6        -49.1116  -30.4166    6.1635 C.3       14 UNK        -0.0898 
      7 S7        -49.0006  -31.2367    7.7930 S.3       14 UNK        -0.2598 
      8 C8        -50.6797  -31.9160    7.9877 C.3       14 UNK         0.0286 
      9 C9        -51.7093  -30.8595    8.3687 C.ar      14 UNK        -0.0844 
     10 C10       -51.5589  -30.1287    9.5526 C.ar      14 UNK        -0.0881 
     11 C11       -52.5348  -29.2100    9.9473 C.ar      14 UNK        -0.0643 
     12 C12       -53.6540  -29.0091    9.1401 C.ar      14 UNK        -0.0930 
     13 C13       -53.8357  -29.7544    7.9744 C.ar      14 UNK        -0.0827 
     14 C14       -52.8516  -30.6677    7.5823 C.ar      14 UNK        -0.1249 
     15 C15       -55.1104  -29.5797    7.1613 C.3       14 UNK         0.0141 
     16 S16       -56.4143  -30.7644    7.6420 S.3       14 UNK        -0.2313 
     17 C17       -56.7821  -30.2969    9.3707 C.3       14 UNK        -0.0915 
     18 CA        -57.6984  -29.0355    9.4908 C.3       13 UNK         0.0968 
     19 C         -59.1844  -29.3827    9.8149 C.2       13 UNK         0.5732 
     20 N         -59.8850  -28.6051   10.6321 N.am      13 UNK        -0.7310 
     21 O         -59.7275  -30.3524    9.2906 O.2       13 UNK        -0.5035 
     22 N         -57.1141  -27.9636   10.3217 N.am      13 UNK        -0.4233 
     23 C         -56.7609  -28.0554   11.6107 C.2       13 UNK         0.4989 
     24 O         -56.8282  -29.0878   12.2827 O.2       13 UNK        -0.4996 
     25 CA        -56.2762  -26.7576   12.2697 C.3       12 UNK         0.0216 
     26 CB        -57.4672  -25.8630   12.6653 C.3       12 UNK        -0.1964 
     27 N         -55.4831  -27.0934   13.4501 N.am      12 UNK        -0.4276 
     28 C         -54.5756  -26.2996   14.0304 C.2       12 UNK         0.5020 
     29 O         -54.3612  -25.1367   13.6766 O.2       12 UNK        -0.5489 
     30 CA        -53.7871  -26.9103   15.2025 C.3       11 UNK         0.0294 
     31 CB        -53.0176  -28.1778   14.7890 C.3       11 UNK        -0.2019 
     32 N         -52.8098  -25.9552   15.7193 N.am      11 UNK        -0.4493 
     33 C         -52.8939  -25.3102   16.8877 C.2       11 UNK         0.4932 
     34 O         -53.8427  -25.4183   17.6675 O.2       11 UNK        -0.5029 
     35 CA        -51.6903  -24.4161   17.2472 C.3       10 UNK         0.0280 
     36 CB        -51.6976  -23.9422   18.7159 C.3       10 UNK        -0.1976 
     37 N         -50.4099  -25.0478   16.9048 N.am      10 UNK        -0.4242 
     38 C         -49.9216  -26.2142   17.3595 C.2       10 UNK         0.5072 
     39 O         -50.4630  -26.8943   18.2325 O.2       10 UNK        -0.5224 
     40 CA        -48.6181  -26.7378   16.7231 C.3       9 UNK         0.0343 
     41 CB        -48.9205  -27.9278   15.7965 C.3       9 UNK        -0.2003 
     42 N         -47.8791  -25.7229   15.9678 N.am      9 UNK        -0.4272 
     43 C         -47.2086  -24.7010   16.5182 C.2       9 UNK         0.4988 
     44 O         -47.0632  -24.5508   17.7318 O.2       9 UNK        -0.5108 
     45 CA        -46.6331  -23.6488   15.5551 C.3       8 UNK         0.0248 
     46 CB        -45.2421  -24.0760   15.0604 C.3       8 UNK        -0.2001 
     47 N         -47.5075  -23.3717   14.4092 N.am      8 UNK        -0.4140 
     48 C         -48.7405  -22.8488   14.4973 C.2       8 UNK         0.5028 
     49 O         -49.2663  -22.5148   15.5587 O.2       8 UNK        -0.5428 
     50 CA        -49.5483  -22.7206   13.1950 C.3       7 UNK         0.0264 
     51 CB        -49.0792  -21.5122   12.3698 C.3       7 UNK        -0.1988 
     52 N         -49.4974  -23.9323   12.3758 N.am      7 UNK        -0.4454 
     53 C         -49.9757  -25.1292   12.7494 C.2       7 UNK         0.5027 
     54 O         -50.5544  -25.3344   13.8193 O.2       7 UNK        -0.5083 
     55 CA        -49.7068  -26.3094   11.7903 C.3       6 UNK         0.0844 
     56 C56       -50.7147  -26.3871   10.6197 C.3       14 UNK        -0.0967 
     57 S57       -52.4313  -26.6897   11.1300 S.3       14 UNK        -0.2604 
     58 C58       -52.4375  -28.5007   11.2869 C.3       14 UNK         0.0134 
     59 N         -48.3382  -26.2816   11.2753 N.am      6 UNK        -0.4116 
     60 C         -47.2276  -26.4399   12.0049 C.2       5 UNK         0.5034 
     61 O         -47.2204  -26.6642   13.2149 O.2       5 UNK        -0.5045 
     62 CA        -45.8986  -26.2725   11.2497 C.3       5 UNK         0.0224 
     63 CB        -45.5724  -27.5356   10.4359 C.3       5 UNK        -0.1978 
     64 N         -45.8989  -25.1020   10.3643 N.am      5 UNK        -0.4737 
     65 C         -45.9855  -23.8353   10.7947 C.2       4 UNK         0.5027 
     66 O         -46.0472  -23.5214   11.9814 O.2       4 UNK        -0.5211 
     67 CA        -46.0544  -22.7308    9.7273 C.3       4 UNK         0.0297 
     68 CB        -44.6399  -22.3334    9.2769 C.3       4 UNK        -0.1993 
     69 N         -46.8695  -23.0615    8.5528 N.am      4 UNK        -0.4486 
     70 C         -48.1539  -23.4458    8.5703 C.2       3 UNK         0.4961 
     71 O         -48.7887  -23.6574    9.6053 O.2       3 UNK        -0.5105 
     72 CA        -48.8560  -23.6265    7.2158 C.3       3 UNK         0.0299 
     73 CB        -47.9103  -23.6298    5.9951 C.3       3 UNK        -0.1972 
     74 N         -49.6157  -24.8706    7.2481 N.am      3 UNK        -0.4305 
     75 C         -50.7996  -25.0948    6.6735 C.2       2 UNK         0.5006 
     76 O         -51.4180  -24.2426    6.0324 O.2       2 UNK        -0.5106 
     77 CA        -51.3674  -26.5250    6.8174 C.3       2 UNK         0.0296 
     78 CB        -52.7234  -26.6867    6.1052 C.3       2 UNK        -0.2002 
     79 N         -50.4492  -27.5526    6.3122 N.am      2 UNK        -0.4032 
     80 C         -49.2995  -27.9432    6.8811 C.2       1 UNK         0.5000 
     81 O         -48.8593  -27.4767    7.9401 O.2       1 UNK        -0.5238 
     82 H82       -44.7888  -28.8160    7.6440 H         1 UNK         0.0889 
     83 H83       -44.0369  -28.5235    6.0741 H         1 UNK         0.0889 
     84 H84       -44.1864  -30.1718    6.6904 H         1 UNK         0.0889 
     85 H85       -47.0352  -28.5520    7.5310 H         1 UNK         0.3028 
     86 H86       -48.4703  -28.6691    5.0707 H         1 UNK         0.0864 
     87 H87       -50.1524  -30.3848    5.8369 H         1 UNK         0.0720 
     88 H88       -48.6035  -31.0588    5.4428 H         1 UNK         0.0720 
     89 H89       -50.6577  -32.6745    8.7713 H         1 UNK         0.0814 
     90 H90       -50.9666  -32.4354    7.0720 H         1 UNK         0.0814 
     91 H91       -50.6940  -30.3000   10.1788 H         1 UNK         0.1469 
     92 H92       -54.4112  -28.3032    9.4502 H         1 UNK         0.1381 
     93 H93       -52.9926  -31.2501    6.6820 H         1 UNK         0.1206 
     94 H94       -55.4898  -28.5619    7.2636 H         1 UNK         0.0813 
     95 H95       -54.8894  -29.7138    6.1014 H         1 UNK         0.0813 
     96 H96       -57.2374  -31.1630    9.8541 H         1 UNK         0.0638 
     97 H97       -55.8455  -30.1710    9.9083 H         1 UNK         0.0638 
     98 H98       -57.7634  -28.5750    8.5048 H         1 UNK         0.0568 
     99 H99       -60.8478  -28.8343   10.8222 H         1 UNK         0.3450 
    100 H100      -59.4639  -27.7988   11.0625 H         1 UNK         0.3450 
    101 H101      -57.0483  -27.0631    9.8690 H         1 UNK         0.2987 
    102 H102      -55.6387  -26.2285   11.5575 H         1 UNK         0.0766 
    103 H103      -57.1310  -24.9286   13.1149 H         1 UNK         0.0798 
    104 H104      -58.1224  -26.3602   13.3819 H         1 UNK         0.0798 
    105 H105      -58.0706  -25.5991   11.7961 H         1 UNK         0.0798 
    106 H106      -55.6072  -28.0478   13.7671 H         1 UNK         0.3198 
    107 H107      -54.5085  -27.1786   15.9773 H         1 UNK         0.0843 
    108 H108      -52.2530  -27.9522   14.0460 H         1 UNK         0.0831 
    109 H109      -53.6761  -28.9413   14.3745 H         1 UNK         0.0831 
    110 H110      -52.5146  -28.6242   15.6472 H         1 UNK         0.0831 
    111 H111      -52.0348  -25.7359   15.0977 H         1 UNK         0.3133 
    112 H112      -51.7690  -23.5310   16.6144 H         1 UNK         0.0566 
    113 H113      -50.8415  -23.3019   18.9285 H         1 UNK         0.0814 
    114 H114      -52.5963  -23.3646   18.9349 H         1 UNK         0.0814 
    115 H115      -51.6723  -24.7801   19.4133 H         1 UNK         0.0814 
    116 H116      -49.8828  -24.5703   16.1834 H         1 UNK         0.3091 
    117 H117      -47.9784  -27.0913   17.5344 H         1 UNK         0.0702 
    118 H118      -49.4373  -28.7232   16.3351 H         1 UNK         0.0785 
    119 H119      -49.5559  -27.6353   14.9599 H         1 UNK         0.0785 
    120 H120      -48.0048  -28.3553   15.3876 H         1 UNK         0.0785 
    121 H121      -47.8840  -25.8159   14.9568 H         1 UNK         0.2998 
    122 H122      -46.5227  -22.7178   16.1148 H         1 UNK         0.0697 
    123 H123      -45.2908  -24.9798   14.4519 H         1 UNK         0.0825 
    124 H124      -44.5735  -24.2800   15.8978 H         1 UNK         0.0825 
    125 H125      -44.7784  -23.2937   14.4593 H         1 UNK         0.0825 
    126 H126      -47.1198  -23.5669   13.4875 H         1 UNK         0.3029 
    127 H127      -50.5929  -22.5578   13.4699 H         1 UNK         0.0897 
    128 H128      -49.6781  -21.3916   11.4668 H         1 UNK         0.0792 
    129 H129      -48.0364  -21.6080   12.0686 H         1 UNK         0.0792 
    130 H130      -49.1686  -20.5900   12.9453 H         1 UNK         0.0792 
    131 H131      -49.0787  -23.8458   11.4518 H         1 UNK         0.3086 
    132 H132      -49.8016  -27.2251   12.3773 H         1 UNK         0.0583 
    133 H133      -50.6930  -25.4703   10.0289 H         1 UNK         0.1020 
    134 H134      -50.4262  -27.1912    9.9430 H         1 UNK         0.1020 
    135 H135      -51.5568  -28.8262   11.8419 H         1 UNK         0.0694 
    136 H136      -53.3022  -28.7903   11.8849 H         1 UNK         0.0694 
    137 H137      -48.2342  -26.0625   10.2956 H         1 UNK         0.2989 
    138 H138      -45.1132  -26.1310   11.9959 H         1 UNK         0.1055 
    139 H139      -45.5492  -28.4171   11.0785 H         1 UNK         0.0806 
    140 H140      -44.5945  -27.4589    9.9601 H         1 UNK         0.0806 
    141 H141      -46.3135  -27.7205    9.6574 H         1 UNK         0.0806 
    142 H142      -45.8509  -25.2689    9.3698 H         1 UNK         0.3061 
    143 H143      -46.5137  -21.8587   10.1964 H         1 UNK         0.0734 
    144 H144      -44.6611  -21.4687    8.6134 H         1 UNK         0.0832 
    145 H145      -44.0194  -22.0649   10.1333 H         1 UNK         0.0832 
    146 H146      -44.1370  -23.1477    8.7537 H         1 UNK         0.0832 
    147 H147      -46.4333  -22.9239    7.6525 H         1 UNK         0.3156 
    148 H148      -49.5454  -22.7856    7.1177 H         1 UNK         0.0589 
    149 H149      -47.1688  -24.4276    6.0562 H         1 UNK         0.0808 
    150 H150      -48.4694  -23.7746    5.0703 H         1 UNK         0.0808 
    151 H151      -47.3822  -22.6809    5.8934 H         1 UNK         0.0808 
    152 H152      -49.1882  -25.6475    7.7469 H         1 UNK         0.3098 
    153 H153      -51.5324  -26.7091    7.8798 H         1 UNK         0.0720 
    154 H154      -53.1086  -27.6989    6.2116 H         1 UNK         0.0791 
    155 H155      -52.6495  -26.4706    5.0386 H         1 UNK         0.0791 
    156 H156      -53.4687  -26.0109    6.5266 H         1 UNK         0.0791 
    157 H157      -50.7094  -27.9699    5.4305 H         1 UNK         0.3028 
@<TRIPOS>BOND
     1    1    2 1    
     2    1   82 1    
     3    1   83 1    
     4    1   84 1    
     5    2    3 2    
     6    2    4 am   BACKBONE|DICT|INTERRES
     7    4    5 1    
     8    4   85 1    
     9    5    6 1    
    10    5   80 1    
    11    5   86 1    
    12    6    7 1    
    13    6   87 1    
    14    6   88 1    
    15    7    8 1    
    16    8    9 1    
    17    8   89 1    
    18    8   90 1    
    19    9   10 ar   
    20    9   14 ar   
    21   10   11 ar   
    22   10   91 1    
    23   11   12 ar   
    24   11   58 1    
    25   12   13 ar   
    26   12   92 1    
    27   13   14 ar   
    28   13   15 1    
    29   14   93 1    
    30   15   16 1    
    31   15   94 1    
    32   15   95 1    
    33   16   17 1    
    34   17   18 1    
    35   17   96 1    
    36   17   97 1    
    37   18   19 1    
    38   18   22 1    
    39   18   98 1    
    40   19   20 am   BACKBONE|DICT|INTERRES
    41   19   21 2    
    42   20   99 1    
    43   20  100 1    
    44   22   23 am   BACKBONE|DICT|INTERRES
    45   22  101 1    
    46   23   24 2    
    47   23   25 1    
    48   25   26 1    
    49   25   27 1    
    50   25  102 1    
    51   26  103 1    
    52   26  104 1    
    53   26  105 1    
    54   27   28 am   BACKBONE|DICT|INTERRES
    55   27  106 1    
    56   28   29 2    
    57   28   30 1    
    58   30   31 1    
    59   30   32 1    
    60   30  107 1    
    61   31  108 1    
    62   31  109 1    
    63   31  110 1    
    64   32   33 am   BACKBONE|DICT|INTERRES
    65   32  111 1    
    66   33   34 2    
    67   33   35 1    
    68   35   36 1    
    69   35   37 1    
    70   35  112 1    
    71   36  113 1    
    72   36  114 1    
    73   36  115 1    
    74   37   38 am   BACKBONE|DICT|INTERRES
    75   37  116 1    
    76   38   39 2    
    77   38   40 1    
    78   40   41 1    
    79   40   42 1    
    80   40  117 1    
    81   41  118 1    
    82   41  119 1    
    83   41  120 1    
    84   42   43 am   BACKBONE|DICT|INTERRES
    85   42  121 1    
    86   43   44 2    
    87   43   45 1    
    88   45   46 1    
    89   45   47 1    
    90   45  122 1    
    91   46  123 1    
    92   46  124 1    
    93   46  125 1    
    94   47   48 am   BACKBONE|DICT|INTERRES
    95   47  126 1    
    96   48   49 2    
    97   48   50 1    
    98   50   51 1    
    99   50   52 1    
   100   50  127 1    
   101   51  128 1    
   102   51  129 1    
   103   51  130 1    
   104   52   53 am   BACKBONE|DICT|INTERRES
   105   52  131 1    
   106   53   54 2    
   107   53   55 1    
   108   55   56 1    
   109   55   59 1    
   110   55  132 1    
   111   56   57 1    
   112   56  133 1    
   113   56  134 1    
   114   57   58 1    
   115   58  135 1    
   116   58  136 1    
   117   59   60 am   BACKBONE|DICT|INTERRES
   118   59  137 1    
   119   60   61 2    
   120   60   62 1    
   121   62   63 1    
   122   62   64 1    
   123   62  138 1    
   124   63  139 1    
   125   63  140 1    
   126   63  141 1    
   127   64   65 am   BACKBONE|DICT|INTERRES
   128   64  142 1    
   129   65   66 2    
   130   65   67 1    
   131   67   68 1    
   132   67   69 1    
   133   67  143 1    
   134   68  144 1    
   135   68  145 1    
   136   68  146 1    
   137   69   70 am   BACKBONE|DICT|INTERRES
   138   69  147 1    
   139   70   71 2    
   140   70   72 1    
   141   72   73 1    
   142   72   74 1    
   143   72  148 1    
   144   73  149 1    
   145   73  150 1    
   146   73  151 1    
   147   74   75 am   BACKBONE|DICT|INTERRES
   148   74  152 1    
   149   75   76 2    
   150   75   77 1    
   151   77   78 1    
   152   77   79 1    
   153   77  153 1    
   154   78  154 1    
   155   78  155 1    
   156   78  156 1    
   157   79   80 am   BACKBONE|DICT|INTERRES
   158   79  157 1    
   159   80   81 2    
@<TRIPOS>SUBSTRUCTURE
     1 UNK         1 GROUP             0       ****    0 ROOT    
