@<TRIPOS>MOLECULE
3R207
157   159    1
SMALL
USER_CHARGES


@<TRIPOS>ATOM
      1 CA        -51.1366  -31.5272    7.7815 C.3       0 UNK        -0.1975 
      2 C         -50.1112  -31.1628    6.7205 C.2       0 UNK         0.4852 
      3 O         -49.1213  -31.8761    6.5549 O.2       0 UNK        -0.5216 
      4 N         -50.3496  -30.0618    5.9950 N.am      1 UNK        -0.4461 
      5 CA        -49.4758  -29.5483    4.9330 C.3       1 UNK         0.0864 
      6 C6        -50.1557  -28.4141    4.1280 C.3       14 UNK        -0.0898 
      7 S7        -51.5202  -28.9376    3.0261 S.3       14 UNK        -0.2598 
      8 C8        -52.9028  -29.4532    4.1138 C.3       14 UNK         0.0286 
      9 C9        -53.2825  -28.4979    5.2467 C.ar      14 UNK        -0.0844 
     10 C10       -53.0224  -27.1235    5.1936 C.ar      14 UNK        -0.0881 
     11 C11       -53.3124  -26.2983    6.2830 C.ar      14 UNK        -0.0643 
     12 C12       -53.9314  -26.8412    7.4130 C.ar      14 UNK        -0.0930 
     13 C13       -54.2559  -28.2005    7.4571 C.ar      14 UNK        -0.0827 
     14 C14       -53.9247  -29.0202    6.3741 C.ar      14 UNK        -0.1249 
     15 C15       -54.9642  -28.7846    8.6718 C.3       14 UNK         0.0141 
     16 S16       -53.8699  -29.9028    9.5959 S.3       14 UNK        -0.2313 
     17 C17       -54.7434  -30.0515   11.1860 C.3       14 UNK        -0.0915 
     18 CA        -54.3212  -28.9232   12.1755 C.3       13 UNK         0.0968 
     19 C         -55.4340  -27.8718   12.3911 C.2       13 UNK         0.5732 
     20 N         -55.2124  -26.6301   11.9889 N.am      13 UNK        -0.7310 
     21 O         -56.5034  -28.1846   12.9104 O.2       13 UNK        -0.5035 
     22 N         -53.8849  -29.4258   13.4781 N.am      13 UNK        -0.4233 
     23 C         -52.6840  -29.9588   13.7181 C.2       13 UNK         0.4989 
     24 O         -51.8684  -30.2601   12.8442 O.2       13 UNK        -0.4996 
     25 CA        -52.3289  -30.1990   15.1954 C.3       12 UNK         0.0216 
     26 CB        -52.5283  -31.6775   15.5673 C.3       12 UNK        -0.1964 
     27 N         -50.9499  -29.8008   15.4988 N.am      12 UNK        -0.4276 
     28 C         -50.4677  -28.5583   15.3595 C.2       12 UNK         0.5020 
     29 O         -51.1386  -27.5954   14.9825 O.2       12 UNK        -0.5489 
     30 CA        -48.9851  -28.3567   15.6877 C.3       11 UNK         0.0294 
     31 CB        -48.0888  -28.8408   14.5328 C.3       11 UNK        -0.2019 
     32 N         -48.7663  -26.9343   15.9344 N.am      11 UNK        -0.4493 
     33 C         -47.8134  -26.4162   16.7156 C.2       11 UNK         0.4932 
     34 O         -46.9426  -27.0902   17.2668 O.2       11 UNK        -0.5029 
     35 CA        -47.8315  -24.8948   16.9398 C.3       10 UNK         0.0280 
     36 CB        -46.9947  -24.1656   15.8787 C.3       10 UNK        -0.1976 
     37 N         -49.1824  -24.3293   16.9612 N.am      10 UNK        -0.4242 
     38 C         -49.9888  -24.3399   18.0323 C.2       10 UNK         0.5072 
     39 O         -49.7025  -24.8788   19.1024 O.2       10 UNK        -0.5224 
     40 CA        -51.3279  -23.5947   17.9042 C.3       9 UNK         0.0343 
     41 CB        -51.1609  -22.1208   18.3078 C.3       9 UNK        -0.2003 
     42 N         -51.8764  -23.6607   16.5502 N.am      9 UNK        -0.4272 
     43 C         -52.5633  -24.6953   16.0542 C.2       9 UNK         0.4988 
     44 O         -52.8811  -25.6755   16.7284 O.2       9 UNK        -0.5108 
     45 CA        -52.9868  -24.6364   14.5728 C.3       8 UNK         0.0248 
     46 CB        -54.4503  -24.1721   14.4441 C.3       8 UNK        -0.2001 
     47 N         -52.1109  -23.8579   13.6806 N.am      8 UNK        -0.4140 
     48 C         -51.8750  -22.5366   13.6587 C.2       8 UNK         0.5028 
     49 O         -52.3005  -21.7521   14.5070 O.2       8 UNK        -0.5428 
     50 CA        -50.9986  -21.9859   12.5177 C.3       7 UNK         0.0264 
     51 CB        -49.5630  -21.7459   13.0131 C.3       7 UNK        -0.1988 
     52 N         -50.9690  -22.8436   11.3289 N.am      7 UNK        -0.4454 
     53 C         -52.0103  -23.0499   10.5075 C.2       7 UNK         0.5027 
     54 O         -53.0902  -22.4680   10.6185 O.2       7 UNK        -0.5083 
     55 CA        -51.8346  -24.1051    9.3940 C.3       6 UNK         0.0844 
     56 C56       -51.2941  -23.4527    8.0991 C.3       14 UNK        -0.0967 
     57 S57       -51.1781  -24.6168    6.7007 S.3       14 UNK        -0.2604 
     58 C58       -52.9276  -24.8280    6.2372 C.3       14 UNK         0.0134 
     59 N         -51.0397  -25.2549    9.8425 N.am      6 UNK        -0.4116 
     60 C         -51.4273  -26.1024   10.8071 C.2       5 UNK         0.5034 
     61 O         -52.5267  -26.0480   11.3560 O.2       5 UNK        -0.5045 
     62 CA        -50.4012  -27.1377   11.2888 C.3       5 UNK         0.0224 
     63 CB        -50.4005  -28.3863   10.3937 C.3       5 UNK        -0.1978 
     64 N         -49.0557  -26.5677   11.3435 N.am      5 UNK        -0.4737 
     65 C         -48.6380  -25.7072   12.2823 C.2       4 UNK         0.5027 
     66 O         -49.3263  -25.3384   13.2335 O.2       4 UNK        -0.5211 
     67 CA        -47.2164  -25.1434   12.1146 C.3       4 UNK         0.0297 
     68 CB        -46.1897  -26.0764   12.7766 C.3       4 UNK        -0.1993 
     69 N         -46.8458  -24.9242   10.7148 N.am      4 UNK        -0.4486 
     70 C         -47.4401  -24.0400    9.9010 C.2       3 UNK         0.4961 
     71 O         -48.3369  -23.2768   10.2560 O.2       3 UNK        -0.5105 
     72 CA        -46.9988  -24.0500    8.4274 C.3       3 UNK         0.0299 
     73 CB        -45.7974  -23.1150    8.2182 C.3       3 UNK        -0.1972 
     74 N         -46.6803  -25.3889    7.9152 N.am      3 UNK        -0.4305 
     75 C         -47.5438  -26.4127    7.8820 C.2       2 UNK         0.5006 
     76 O         -48.6904  -26.3597    8.3329 O.2       2 UNK        -0.5106 
     77 CA        -47.0332  -27.7315    7.2989 C.3       2 UNK         0.0296 
     78 CB        -46.4660  -28.6325    8.4092 C.3       2 UNK        -0.2002 
     79 N         -48.1611  -28.3987    6.6596 N.am      2 UNK        -0.4032 
     80 C         -48.1255  -29.0436    5.4873 C.2       1 UNK         0.5000 
     81 O         -47.0946  -29.2334    4.8382 O.2       1 UNK        -0.5238 
     82 H82       -52.1182  -31.1238    7.5380 H         1 UNK         0.0889 
     83 H83       -51.2329  -32.6095    7.8633 H         1 UNK         0.0889 
     84 H84       -50.8334  -31.1361    8.7524 H         1 UNK         0.0889 
     85 H85       -51.1862  -29.5219    6.1701 H         1 UNK         0.3028 
     86 H86       -49.2563  -30.3730    4.2513 H         1 UNK         0.0864 
     87 H87       -50.4813  -27.6163    4.7947 H         1 UNK         0.0720 
     88 H88       -49.4257  -27.9436    3.4655 H         1 UNK         0.0720 
     89 H89       -52.6612  -30.4356    4.5221 H         1 UNK         0.0814 
     90 H90       -53.7841  -29.6015    3.4887 H         1 UNK         0.0814 
     91 H91       -52.5557  -26.6910    4.3198 H         1 UNK         0.1469 
     92 H92       -54.1629  -26.2064    8.2568 H         1 UNK         0.1381 
     93 H93       -54.1627  -30.0746    6.4179 H         1 UNK         0.1206 
     94 H94       -55.3082  -27.9855    9.3295 H         1 UNK         0.0813 
     95 H95       -55.8539  -29.3296    8.3532 H         1 UNK         0.0813 
     96 H96       -54.4940  -31.0338   11.5897 H         1 UNK         0.0638 
     97 H97       -55.8204  -30.0798   11.0082 H         1 UNK         0.0638 
     98 H98       -53.4597  -28.3972   11.7629 H         1 UNK         0.0568 
     99 H99       -55.9314  -25.9362   12.1094 H         1 UNK         0.3450 
    100 H100      -54.2936  -26.3617   11.6413 H         1 UNK         0.3450 
    101 H101      -54.5065  -29.2123   14.2461 H         1 UNK         0.2987 
    102 H102      -52.9879  -29.5914   15.8196 H         1 UNK         0.0766 
    103 H103      -53.5547  -31.9932   15.3751 H         1 UNK         0.0798 
    104 H104      -51.8738  -32.3305   14.9881 H         1 UNK         0.0798 
    105 H105      -52.3299  -31.8532   16.6249 H         1 UNK         0.0798 
    106 H106      -50.3196  -30.5382   15.7782 H         1 UNK         0.3198 
    107 H107      -48.7538  -28.9188   16.5953 H         1 UNK         0.0843 
    108 H108      -48.2108  -29.9112   14.3638 H         1 UNK         0.0831 
    109 H109      -47.0340  -28.6657   14.7444 H         1 UNK         0.0831 
    110 H110      -48.3332  -28.3373   13.5977 H         1 UNK         0.0831 
    111 H111      -49.4668  -26.3355   15.5091 H         1 UNK         0.3133 
    112 H112      -47.3620  -24.7078   17.9083 H         1 UNK         0.0566 
    113 H113      -46.8651  -23.1135   16.1329 H         1 UNK         0.0814 
    114 H114      -45.9989  -24.6024   15.7911 H         1 UNK         0.0814 
    115 H115      -47.4657  -24.2143   14.8994 H         1 UNK         0.0814 
    116 H116      -49.5096  -23.8864   16.1156 H         1 UNK         0.3091 
    117 H117      -52.0351  -24.0568   18.5965 H         1 UNK         0.0702 
    118 H118      -52.1153  -21.5942   18.2855 H         1 UNK         0.0785 
    119 H119      -50.4725  -21.5943   17.6453 H         1 UNK         0.0785 
    120 H120      -50.7682  -22.0359   19.3221 H         1 UNK         0.0785 
    121 H121      -51.7687  -22.8462   15.9513 H         1 UNK         0.2998 
    122 H122      -52.9343  -25.6603   14.1986 H         1 UNK         0.0697 
    123 H123      -54.5985  -23.1751   14.8602 H         1 UNK         0.0825 
    124 H124      -55.1204  -24.8495   14.9749 H         1 UNK         0.0825 
    125 H125      -54.7679  -24.1495   13.4020 H         1 UNK         0.0825 
    126 H126      -51.6382  -24.4142   12.9795 H         1 UNK         0.3029 
    127 H127      -51.4216  -21.0230   12.2233 H         1 UNK         0.0897 
    128 H128      -48.9444  -21.2980   12.2351 H         1 UNK         0.0792 
    129 H129      -49.5523  -21.0660   13.8662 H         1 UNK         0.0792 
    130 H130      -49.0837  -22.6719   13.3291 H         1 UNK         0.0792 
    131 H131      -50.0779  -23.2784   11.1027 H         1 UNK         0.3086 
    132 H132      -52.8347  -24.4835    9.1782 H         1 UNK         0.0583 
    133 H133      -51.9238  -22.6135    7.7962 H         1 UNK         0.1020 
    134 H134      -50.3005  -23.0350    8.2714 H         1 UNK         0.1020 
    135 H135      -53.5780  -24.2450    6.8905 H         1 UNK         0.0694 
    136 H136      -53.0778  -24.4340    5.2310 H         1 UNK         0.0694 
    137 H137      -50.1474  -25.4077    9.3835 H         1 UNK         0.2989 
    138 H138      -50.6858  -27.4446   12.2983 H         1 UNK         0.1055 
    139 H139      -49.6290  -29.0941   10.6967 H         1 UNK         0.0806 
    140 H140      -50.2497  -28.1460    9.3419 H         1 UNK         0.0806 
    141 H141      -51.3533  -28.9061   10.4711 H         1 UNK         0.0806 
    142 H142      -48.4565  -26.7509   10.5505 H         1 UNK         0.3061 
    143 H143      -47.1810  -24.1750   12.6163 H         1 UNK         0.0734 
    144 H144      -46.4485  -26.2681   13.8184 H         1 UNK         0.0832 
    145 H145      -46.1385  -27.0438   12.2754 H         1 UNK         0.0832 
    146 H146      -45.1914  -25.6387   12.7683 H         1 UNK         0.0832 
    147 H147      -46.1137  -25.5063   10.3352 H         1 UNK         0.3156 
    148 H148      -47.8336  -23.6673    7.8364 H         1 UNK         0.0589 
    149 H149      -44.9141  -23.4624    8.7555 H         1 UNK         0.0808 
    150 H150      -45.5383  -23.0309    7.1626 H         1 UNK         0.0808 
    151 H151      -46.0208  -22.1084    8.5751 H         1 UNK         0.0808 
    152 H152      -45.7528  -25.5207    7.5367 H         1 UNK         0.3098 
    153 H153      -46.2542  -27.5145    6.5647 H         1 UNK         0.0720 
    154 H154      -46.1133  -29.5810    8.0035 H         1 UNK         0.0791 
    155 H155      -47.2147  -28.8552    9.1709 H         1 UNK         0.0791 
    156 H156      -45.6196  -28.1586    8.9078 H         1 UNK         0.0791 
    157 H157      -49.0548  -28.2210    7.0990 H         1 UNK         0.3028 
@<TRIPOS>BOND
     1    1    2 1    
     2    1   82 1    
     3    1   83 1    
     4    1   84 1    
     5    2    3 2    
     6    2    4 am   BACKBONE|DICT|INTERRES
     7    4    5 1    
     8    4   85 1    
     9    5    6 1    
    10    5   80 1    
    11    5   86 1    
    12    6    7 1    
    13    6   87 1    
    14    6   88 1    
    15    7    8 1    
    16    8    9 1    
    17    8   89 1    
    18    8   90 1    
    19    9   10 ar   
    20    9   14 ar   
    21   10   11 ar   
    22   10   91 1    
    23   11   12 ar   
    24   11   58 1    
    25   12   13 ar   
    26   12   92 1    
    27   13   14 ar   
    28   13   15 1    
    29   14   93 1    
    30   15   16 1    
    31   15   94 1    
    32   15   95 1    
    33   16   17 1    
    34   17   18 1    
    35   17   96 1    
    36   17   97 1    
    37   18   19 1    
    38   18   22 1    
    39   18   98 1    
    40   19   20 am   BACKBONE|DICT|INTERRES
    41   19   21 2    
    42   20   99 1    
    43   20  100 1    
    44   22   23 am   BACKBONE|DICT|INTERRES
    45   22  101 1    
    46   23   24 2    
    47   23   25 1    
    48   25   26 1    
    49   25   27 1    
    50   25  102 1    
    51   26  103 1    
    52   26  104 1    
    53   26  105 1    
    54   27   28 am   BACKBONE|DICT|INTERRES
    55   27  106 1    
    56   28   29 2    
    57   28   30 1    
    58   30   31 1    
    59   30   32 1    
    60   30  107 1    
    61   31  108 1    
    62   31  109 1    
    63   31  110 1    
    64   32   33 am   BACKBONE|DICT|INTERRES
    65   32  111 1    
    66   33   34 2    
    67   33   35 1    
    68   35   36 1    
    69   35   37 1    
    70   35  112 1    
    71   36  113 1    
    72   36  114 1    
    73   36  115 1    
    74   37   38 am   BACKBONE|DICT|INTERRES
    75   37  116 1    
    76   38   39 2    
    77   38   40 1    
    78   40   41 1    
    79   40   42 1    
    80   40  117 1    
    81   41  118 1    
    82   41  119 1    
    83   41  120 1    
    84   42   43 am   BACKBONE|DICT|INTERRES
    85   42  121 1    
    86   43   44 2    
    87   43   45 1    
    88   45   46 1    
    89   45   47 1    
    90   45  122 1    
    91   46  123 1    
    92   46  124 1    
    93   46  125 1    
    94   47   48 am   BACKBONE|DICT|INTERRES
    95   47  126 1    
    96   48   49 2    
    97   48   50 1    
    98   50   51 1    
    99   50   52 1    
   100   50  127 1    
   101   51  128 1    
   102   51  129 1    
   103   51  130 1    
   104   52   53 am   BACKBONE|DICT|INTERRES
   105   52  131 1    
   106   53   54 2    
   107   53   55 1    
   108   55   56 1    
   109   55   59 1    
   110   55  132 1    
   111   56   57 1    
   112   56  133 1    
   113   56  134 1    
   114   57   58 1    
   115   58  135 1    
   116   58  136 1    
   117   59   60 am   BACKBONE|DICT|INTERRES
   118   59  137 1    
   119   60   61 2    
   120   60   62 1    
   121   62   63 1    
   122   62   64 1    
   123   62  138 1    
   124   63  139 1    
   125   63  140 1    
   126   63  141 1    
   127   64   65 am   BACKBONE|DICT|INTERRES
   128   64  142 1    
   129   65   66 2    
   130   65   67 1    
   131   67   68 1    
   132   67   69 1    
   133   67  143 1    
   134   68  144 1    
   135   68  145 1    
   136   68  146 1    
   137   69   70 am   BACKBONE|DICT|INTERRES
   138   69  147 1    
   139   70   71 2    
   140   70   72 1    
   141   72   73 1    
   142   72   74 1    
   143   72  148 1    
   144   73  149 1    
   145   73  150 1    
   146   73  151 1    
   147   74   75 am   BACKBONE|DICT|INTERRES
   148   74  152 1    
   149   75   76 2    
   150   75   77 1    
   151   77   78 1    
   152   77   79 1    
   153   77  153 1    
   154   78  154 1    
   155   78  155 1    
   156   78  156 1    
   157   79   80 am   BACKBONE|DICT|INTERRES
   158   79  157 1    
   159   80   81 2    
@<TRIPOS>SUBSTRUCTURE
     1 UNK         1 GROUP             0       ****    0 ROOT    
