@<TRIPOS>MOLECULE
3R207
157   159    1
SMALL
USER_CHARGES


@<TRIPOS>ATOM
      1 CA        -51.4454  -24.7070    2.0083 C.3       0 UNK        -0.1975 
      2 C         -51.3733  -26.1547    2.4882 C.2       0 UNK         0.4852 
      3 O         -51.3836  -27.0622    1.6583 O.2       0 UNK        -0.5216 
      4 N         -51.3110  -26.4326    3.7990 N.am      1 UNK        -0.4461 
      5 CA        -51.2138  -25.4870    4.9194 C.3       1 UNK         0.0864 
      6 C6        -51.4440  -26.1850    6.2883 C.3       14 UNK        -0.0898 
      7 S7        -50.3959  -27.6655    6.5482 S.3       14 UNK        -0.2598 
      8 C8        -51.6006  -28.9148    7.0912 C.3       14 UNK         0.0286 
      9 C9        -51.6785  -29.0000    8.6084 C.ar      14 UNK        -0.0844 
     10 C10       -50.8162  -29.8556    9.2993 C.ar      14 UNK        -0.0881 
     11 C11       -50.9142  -29.9987   10.6856 C.ar      14 UNK        -0.0643 
     12 C12       -51.8878  -29.2776   11.3824 C.ar      14 UNK        -0.0930 
     13 C13       -52.7444  -28.4004   10.7090 C.ar      14 UNK        -0.0827 
     14 C14       -52.6263  -28.2587    9.3201 C.ar      14 UNK        -0.1249 
     15 C15       -53.7775  -27.6036   11.5021 C.3       14 UNK         0.0141 
     16 S16       -55.4335  -27.5940   10.7420 S.3       14 UNK        -0.2313 
     17 C17       -55.8804  -29.3620   10.7854 C.3       14 UNK        -0.0915 
     18 CA        -57.1215  -29.6230   11.6730 C.3       13 UNK         0.0968 
     19 C         -57.6627  -31.0634   11.4637 C.2       13 UNK         0.5732 
     20 N         -58.4920  -31.2704   10.4498 N.am      13 UNK        -0.7310 
     21 O         -57.3148  -31.9983   12.1836 O.2       13 UNK        -0.5035 
     22 N         -56.8377  -29.3439   13.0858 N.am      13 UNK        -0.4233 
     23 C         -57.7657  -29.1422   14.0241 C.2       13 UNK         0.4989 
     24 O         -58.9694  -29.0478   13.7786 O.2       13 UNK        -0.4996 
     25 CA        -57.3010  -29.0187   15.4880 C.3       12 UNK         0.0216 
     26 CB        -57.4287  -30.3749   16.2094 C.3       12 UNK        -0.1964 
     27 N         -55.9679  -28.4334   15.7070 N.am      12 UNK        -0.4276 
     28 C         -54.7589  -28.9052   15.3764 C.2       12 UNK         0.5020 
     29 O         -54.5767  -29.8957   14.6662 O.2       12 UNK        -0.5489 
     30 CA        -53.5535  -28.1197   15.9279 C.3       11 UNK         0.0294 
     31 CB        -52.2676  -28.9642   15.9335 C.3       11 UNK        -0.2019 
     32 N         -53.2974  -26.8797   15.1942 N.am      11 UNK        -0.4493 
     33 C         -54.0667  -25.7829   15.2179 C.2       11 UNK         0.4932 
     34 O         -55.1331  -25.7072   15.8326 O.2       11 UNK        -0.5029 
     35 CA        -53.5133  -24.5602   14.4622 C.3       10 UNK         0.0280 
     36 CB        -54.4169  -23.3145   14.5726 C.3       10 UNK        -0.1976 
     37 N         -52.1374  -24.2490   14.8671 N.am      10 UNK        -0.4242 
     38 C         -51.6913  -23.9596   16.1011 C.2       10 UNK         0.5072 
     39 O         -52.4214  -23.8223   17.0838 O.2       10 UNK        -0.5224 
     40 CA        -50.1684  -23.8245   16.2968 C.3       9 UNK         0.0343 
     41 CB        -49.6249  -25.0578   17.0375 C.3       9 UNK        -0.2003 
     42 N         -49.4215  -23.6535   15.0482 N.am      9 UNK        -0.4272 
     43 C         -49.4080  -22.5332   14.3121 C.2       9 UNK         0.4988 
     44 O         -49.9620  -21.4858   14.6470 O.2       9 UNK        -0.5108 
     45 CA        -48.6874  -22.6056   12.9540 C.3       8 UNK         0.0248 
     46 CB        -47.1768  -22.3782   13.1237 C.3       8 UNK        -0.2001 
     47 N         -48.9160  -23.8711   12.2504 N.am      8 UNK        -0.4140 
     48 C         -50.1121  -24.3233   11.8454 C.2       8 UNK         0.5028 
     49 O         -51.1665  -23.7058   11.9892 O.2       8 UNK        -0.5428 
     50 CA        -50.1477  -25.7287   11.2331 C.3       7 UNK         0.0264 
     51 CB        -49.6504  -25.7189    9.7826 C.3       7 UNK        -0.1988 
     52 N         -49.3680  -26.6778   12.0246 N.am      7 UNK        -0.4454 
     53 C         -49.7491  -27.1586   13.2163 C.2       7 UNK         0.5027 
     54 O         -50.8281  -26.8893   13.7481 O.2       7 UNK        -0.5083 
     55 CA        -48.7472  -28.0677   13.9593 C.3       6 UNK         0.0844 
     56 C56       -48.9933  -29.5705   13.6803 C.3       14 UNK        -0.0967 
     57 S57       -48.4789  -30.1303   12.0159 S.3       14 UNK        -0.2604 
     58 C58       -49.9855  -30.9588   11.4144 C.3       14 UNK         0.0134 
     59 N         -47.3518  -27.6899   13.7209 N.am      6 UNK        -0.4116 
     60 C         -46.7820  -26.5534   14.1413 C.2       5 UNK         0.5034 
     61 O         -47.3639  -25.6977   14.8062 O.2       5 UNK        -0.5045 
     62 CA        -45.3320  -26.3073   13.6914 C.3       5 UNK         0.0224 
     63 CB        -44.3454  -27.0617   14.5968 C.3       5 UNK        -0.1978 
     64 N         -45.0900  -26.6628   12.2867 N.am      5 UNK        -0.4737 
     65 C         -45.7235  -26.0967   11.2517 C.2       4 UNK         0.5027 
     66 O         -46.6085  -25.2486   11.3814 O.2       4 UNK        -0.5211 
     67 CA        -45.3500  -26.5954    9.8478 C.3       4 UNK         0.0297 
     68 CB        -46.1831  -27.8361    9.4842 C.3       4 UNK        -0.1993 
     69 N         -45.6053  -25.5491    8.8595 N.am      4 UNK        -0.4486 
     70 C         -44.8365  -24.4761    8.6484 C.2       3 UNK         0.4961 
     71 O         -43.7124  -24.3435    9.1368 O.2       3 UNK        -0.5105 
     72 CA        -45.4312  -23.3623    7.7547 C.3       3 UNK         0.0299 
     73 CB        -44.4395  -22.2087    7.5110 C.3       3 UNK        -0.1972 
     74 N         -45.9378  -23.8306    6.4575 N.am      3 UNK        -0.4305 
     75 C         -47.0472  -24.5556    6.2623 C.2       2 UNK         0.5006 
     76 O         -47.7479  -24.9810    7.1833 O.2       2 UNK        -0.5106 
     77 CA        -47.4079  -24.8826    4.8000 C.3       2 UNK         0.0296 
     78 CB        -46.4410  -25.9320    4.2250 C.3       2 UNK        -0.2002 
     79 N         -48.7750  -25.3936    4.6757 N.am      2 UNK        -0.4032 
     80 C         -49.8915  -24.6902    4.9119 C.2       1 UNK         0.5000 
     81 O         -49.9141  -23.4711    5.0928 O.2       1 UNK        -0.5238 
     82 H82       -52.1309  -24.1125    2.6103 H         1 UNK         0.0889 
     83 H83       -51.8017  -24.6678    0.9790 H         1 UNK         0.0889 
     84 H84       -50.4594  -24.2443    2.0356 H         1 UNK         0.0889 
     85 H85       -51.2733  -27.4038    4.0748 H         1 UNK         0.3028 
     86 H86       -52.0180  -24.7582    4.8041 H         1 UNK         0.0864 
     87 H87       -52.4940  -26.4684    6.3664 H         1 UNK         0.0720 
     88 H88       -51.2756  -25.4893    7.1116 H         1 UNK         0.0720 
     89 H89       -51.2953  -29.8822    6.6897 H         1 UNK         0.0814 
     90 H90       -52.5854  -28.7190    6.6652 H         1 UNK         0.0814 
     91 H91       -50.0736  -30.4217    8.7536 H         1 UNK         0.1469 
     92 H92       -51.9742  -29.3928   12.4534 H         1 UNK         0.1381 
     93 H93       -53.2846  -27.5850    8.7894 H         1 UNK         0.1206 
     94 H94       -53.4338  -26.5737   11.5942 H         1 UNK         0.0813 
     95 H95       -53.8665  -27.9906   12.5178 H         1 UNK         0.0813 
     96 H96       -55.0338  -29.9609   11.1259 H         1 UNK         0.0638 
     97 H97       -56.0713  -29.6660    9.7545 H         1 UNK         0.0638 
     98 H98       -57.9086  -28.9358   11.3554 H         1 UNK         0.0568 
     99 H99       -58.7762  -30.5152    9.8454 H         1 UNK         0.3450 
    100 H100      -58.8447  -32.2007   10.2883 H         1 UNK         0.3450 
    101 H101      -55.8866  -29.5090   13.4038 H         1 UNK         0.2987 
    102 H102      -57.9977  -28.3288   15.9669 H         1 UNK         0.0766 
    103 H103      -56.7635  -31.1261   15.7818 H         1 UNK         0.0798 
    104 H104      -58.4453  -30.7633   16.1330 H         1 UNK         0.0798 
    105 H105      -57.1960  -30.2844   17.2704 H         1 UNK         0.0798 
    106 H106      -55.9700  -27.5190   16.1512 H         1 UNK         0.3198 
    107 H107      -53.7772  -27.8584   16.9646 H         1 UNK         0.0843 
    108 H108      -51.9845  -29.2585   14.9241 H         1 UNK         0.0831 
    109 H109      -52.4026  -29.8779   16.5136 H         1 UNK         0.0831 
    110 H110      -51.4323  -28.4185   16.3729 H         1 UNK         0.0831 
    111 H111      -52.4293  -26.8464   14.6605 H         1 UNK         0.3133 
    112 H112      -53.4663  -24.8409   13.4093 H         1 UNK         0.0566 
    113 H113      -55.4134  -23.5210   14.1804 H         1 UNK         0.0814 
    114 H114      -54.5361  -22.9877   15.6060 H         1 UNK         0.0814 
    115 H115      -54.0097  -22.4801   14.0014 H         1 UNK         0.0814 
    116 H116      -51.4513  -24.3221   14.1261 H         1 UNK         0.3091 
    117 H117      -49.9953  -22.9461   16.9219 H         1 UNK         0.0702 
    118 H118      -48.5596  -24.9580   17.2467 H         1 UNK         0.0785 
    119 H119      -49.7692  -25.9697   16.4569 H         1 UNK         0.0785 
    120 H120      -50.1306  -25.1964   17.9941 H         1 UNK         0.0785 
    121 H121      -48.8598  -24.4444   14.7446 H         1 UNK         0.2998 
    122 H122      -49.0849  -21.8061   12.3256 H         1 UNK         0.0697 
    123 H123      -46.7169  -23.1602   13.7287 H         1 UNK         0.0825 
    124 H124      -46.9775  -21.4245   13.6142 H         1 UNK         0.0825 
    125 H125      -46.6678  -22.3611   12.1596 H         1 UNK         0.0825 
    126 H126      -48.0910  -24.4333   12.0429 H         1 UNK         0.3029 
    127 H127      -51.1856  -26.0615   11.2257 H         1 UNK         0.0897 
    128 H128      -48.6100  -25.4063    9.7075 H         1 UNK         0.0792 
    129 H129      -50.2367  -25.0285    9.1766 H         1 UNK         0.0792 
    130 H130      -49.7386  -26.7061    9.3294 H         1 UNK         0.0792 
    131 H131      -48.4555  -26.9246   11.6720 H         1 UNK         0.3086 
    132 H132      -48.9356  -27.9111   15.0237 H         1 UNK         0.0583 
    133 H133      -48.4349  -30.1626   14.4071 H         1 UNK         0.1020 
    134 H134      -50.0380  -29.8242   13.8564 H         1 UNK         0.1020 
    135 H135      -49.6870  -31.7618   10.7386 H         1 UNK         0.0694 
    136 H136      -50.5083  -31.4466   12.2384 H         1 UNK         0.0694 
    137 H137      -46.8062  -28.3306   13.1632 H         1 UNK         0.2989 
    138 H138      -45.1405  -25.2370   13.7970 H         1 UNK         0.1055 
    139 H139      -44.5012  -26.8012   15.6448 H         1 UNK         0.0806 
    140 H140      -43.3127  -26.8105   14.3541 H         1 UNK         0.0806 
    141 H141      -44.4577  -28.1431   14.5097 H         1 UNK         0.0806 
    142 H142      -44.3803  -27.3592   12.1059 H         1 UNK         0.3061 
    143 H143      -44.2896  -26.8556    9.8287 H         1 UNK         0.0734 
    144 H144      -45.9245  -28.2087    8.4929 H         1 UNK         0.0832 
    145 H145      -46.0089  -28.6496   10.1897 H         1 UNK         0.0832 
    146 H146      -47.2532  -27.6246    9.4896 H         1 UNK         0.0832 
    147 H147      -46.5258  -25.5389    8.4239 H         1 UNK         0.3156 
    148 H148      -46.2768  -22.9488    8.3089 H         1 UNK         0.0589 
    149 H149      -43.5592  -22.5433    6.9606 H         1 UNK         0.0808 
    150 H150      -44.9019  -21.3984    6.9470 H         1 UNK         0.0808 
    151 H151      -44.0929  -21.7833    8.4539 H         1 UNK         0.0808 
    152 H152      -45.3957  -23.5614    5.6490 H         1 UNK         0.3098 
    153 H153      -47.3311  -23.9649    4.2132 H         1 UNK         0.0720 
    154 H154      -46.6802  -26.1650    3.1871 H         1 UNK         0.0791 
    155 H155      -46.4733  -26.8628    4.7935 H         1 UNK         0.0791 
    156 H156      -45.4104  -25.5757    4.2431 H         1 UNK         0.0791 
    157 H157      -48.8722  -26.3940    4.5808 H         1 UNK         0.3028 
@<TRIPOS>BOND
     1    1    2 1    
     2    1   82 1    
     3    1   83 1    
     4    1   84 1    
     5    2    3 2    
     6    2    4 am   BACKBONE|DICT|INTERRES
     7    4    5 1    
     8    4   85 1    
     9    5    6 1    
    10    5   80 1    
    11    5   86 1    
    12    6    7 1    
    13    6   87 1    
    14    6   88 1    
    15    7    8 1    
    16    8    9 1    
    17    8   89 1    
    18    8   90 1    
    19    9   10 ar   
    20    9   14 ar   
    21   10   11 ar   
    22   10   91 1    
    23   11   12 ar   
    24   11   58 1    
    25   12   13 ar   
    26   12   92 1    
    27   13   14 ar   
    28   13   15 1    
    29   14   93 1    
    30   15   16 1    
    31   15   94 1    
    32   15   95 1    
    33   16   17 1    
    34   17   18 1    
    35   17   96 1    
    36   17   97 1    
    37   18   19 1    
    38   18   22 1    
    39   18   98 1    
    40   19   20 am   BACKBONE|DICT|INTERRES
    41   19   21 2    
    42   20   99 1    
    43   20  100 1    
    44   22   23 am   BACKBONE|DICT|INTERRES
    45   22  101 1    
    46   23   24 2    
    47   23   25 1    
    48   25   26 1    
    49   25   27 1    
    50   25  102 1    
    51   26  103 1    
    52   26  104 1    
    53   26  105 1    
    54   27   28 am   BACKBONE|DICT|INTERRES
    55   27  106 1    
    56   28   29 2    
    57   28   30 1    
    58   30   31 1    
    59   30   32 1    
    60   30  107 1    
    61   31  108 1    
    62   31  109 1    
    63   31  110 1    
    64   32   33 am   BACKBONE|DICT|INTERRES
    65   32  111 1    
    66   33   34 2    
    67   33   35 1    
    68   35   36 1    
    69   35   37 1    
    70   35  112 1    
    71   36  113 1    
    72   36  114 1    
    73   36  115 1    
    74   37   38 am   BACKBONE|DICT|INTERRES
    75   37  116 1    
    76   38   39 2    
    77   38   40 1    
    78   40   41 1    
    79   40   42 1    
    80   40  117 1    
    81   41  118 1    
    82   41  119 1    
    83   41  120 1    
    84   42   43 am   BACKBONE|DICT|INTERRES
    85   42  121 1    
    86   43   44 2    
    87   43   45 1    
    88   45   46 1    
    89   45   47 1    
    90   45  122 1    
    91   46  123 1    
    92   46  124 1    
    93   46  125 1    
    94   47   48 am   BACKBONE|DICT|INTERRES
    95   47  126 1    
    96   48   49 2    
    97   48   50 1    
    98   50   51 1    
    99   50   52 1    
   100   50  127 1    
   101   51  128 1    
   102   51  129 1    
   103   51  130 1    
   104   52   53 am   BACKBONE|DICT|INTERRES
   105   52  131 1    
   106   53   54 2    
   107   53   55 1    
   108   55   56 1    
   109   55   59 1    
   110   55  132 1    
   111   56   57 1    
   112   56  133 1    
   113   56  134 1    
   114   57   58 1    
   115   58  135 1    
   116   58  136 1    
   117   59   60 am   BACKBONE|DICT|INTERRES
   118   59  137 1    
   119   60   61 2    
   120   60   62 1    
   121   62   63 1    
   122   62   64 1    
   123   62  138 1    
   124   63  139 1    
   125   63  140 1    
   126   63  141 1    
   127   64   65 am   BACKBONE|DICT|INTERRES
   128   64  142 1    
   129   65   66 2    
   130   65   67 1    
   131   67   68 1    
   132   67   69 1    
   133   67  143 1    
   134   68  144 1    
   135   68  145 1    
   136   68  146 1    
   137   69   70 am   BACKBONE|DICT|INTERRES
   138   69  147 1    
   139   70   71 2    
   140   70   72 1    
   141   72   73 1    
   142   72   74 1    
   143   72  148 1    
   144   73  149 1    
   145   73  150 1    
   146   73  151 1    
   147   74   75 am   BACKBONE|DICT|INTERRES
   148   74  152 1    
   149   75   76 2    
   150   75   77 1    
   151   77   78 1    
   152   77   79 1    
   153   77  153 1    
   154   78  154 1    
   155   78  155 1    
   156   78  156 1    
   157   79   80 am   BACKBONE|DICT|INTERRES
   158   79  157 1    
   159   80   81 2    
@<TRIPOS>SUBSTRUCTURE
     1 UNK         1 GROUP             0       ****    0 ROOT    
