@<TRIPOS>MOLECULE
3R207
157   159    1
SMALL
USER_CHARGES


@<TRIPOS>ATOM
      1 CA        -45.0813  -26.5504    9.9937 C.3       0 UNK        -0.1975 
      2 C         -45.7214  -27.4114    8.9151 C.2       0 UNK         0.4852 
      3 O         -45.1583  -28.4391    8.5333 O.2       0 UNK        -0.5216 
      4 N         -46.8907  -27.0007    8.4107 N.am      1 UNK        -0.4461 
      5 CA        -47.6556  -27.7021    7.3760 C.3       1 UNK         0.0864 
      6 C6        -49.1666  -27.3894    7.4835 C.3       14 UNK        -0.0898 
      7 S7        -49.8956  -28.1908    8.9553 S.3       14 UNK        -0.2598 
      8 C8        -51.2505  -29.1616    8.2101 C.3       14 UNK         0.0286 
      9 C9        -52.5778  -28.4198    8.2915 C.ar      14 UNK        -0.0844 
     10 C10       -52.7403  -27.1712    7.6829 C.ar      14 UNK        -0.0881 
     11 C11       -53.9257  -26.4465    7.8477 C.ar      14 UNK        -0.0643 
     12 C12       -54.9703  -27.0034    8.5937 C.ar      14 UNK        -0.0930 
     13 C13       -54.8324  -28.2658    9.1772 C.ar      14 UNK        -0.0827 
     14 C14       -53.6402  -28.9730    9.0102 C.ar      14 UNK        -0.1249 
     15 C15       -55.9617  -28.8646   10.0002 C.3       14 UNK         0.0141 
     16 S16       -55.9428  -28.2428   11.7112 S.3       14 UNK        -0.2313 
     17 C17       -57.2361  -29.2951   12.4567 C.3       14 UNK        -0.0915 
     18 CA        -56.7695  -30.1182   13.6902 C.3       13 UNK         0.0968 
     19 C         -55.6576  -31.1644   13.3975 C.2       13 UNK         0.5732 
     20 N         -54.7207  -31.4019   14.3077 N.am      13 UNK        -0.7310 
     21 O         -55.6619  -31.7996   12.3457 O.2       13 UNK        -0.5035 
     22 N         -56.4965  -29.2632   14.8570 N.am      13 UNK        -0.4233 
     23 C         -57.4093  -28.9432   15.7839 C.2       13 UNK         0.4989 
     24 O         -58.5794  -29.3302   15.7449 O.2       13 UNK        -0.4996 
     25 CA        -56.9609  -28.0253   16.9397 C.3       12 UNK         0.0216 
     26 CB        -57.8874  -28.1146   18.1719 C.3       12 UNK        -0.1964 
     27 N         -55.5599  -28.1975   17.3376 N.am      12 UNK        -0.4276 
     28 C         -54.9620  -29.3045   17.8082 C.2       12 UNK         0.5020 
     29 O         -55.5434  -30.3783   17.9681 O.2       12 UNK        -0.5489 
     30 CA        -53.4580  -29.2127   18.1413 C.3       11 UNK         0.0294 
     31 CB        -52.6698  -30.3663   17.4941 C.3       11 UNK        -0.2019 
     32 N         -52.8772  -27.9445   17.6967 N.am      11 UNK        -0.4493 
     33 C         -52.6894  -26.8602   18.4618 C.2       11 UNK         0.4932 
     34 O         -52.8841  -26.8359   19.6768 O.2       11 UNK        -0.5029 
     35 CA        -52.2453  -25.5706   17.7440 C.3       10 UNK         0.0280 
     36 CB        -50.7255  -25.3816   17.8683 C.3       10 UNK        -0.1976 
     37 N         -52.6352  -25.5422   16.3285 N.am      10 UNK        -0.4242 
     38 C         -53.9060  -25.4403   15.9018 C.2       10 UNK         0.5072 
     39 O         -54.8621  -25.2875   16.6615 O.2       10 UNK        -0.5224 
     40 CA        -54.1808  -25.6149   14.3965 C.3       9 UNK         0.0343 
     41 CB        -54.2780  -24.2489   13.7019 C.3       9 UNK        -0.2003 
     42 N         -53.1818  -26.4480   13.7233 N.am      9 UNK        -0.4272 
     43 C         -52.9776  -27.7466   13.9984 C.2       9 UNK         0.4988 
     44 O         -53.6811  -28.3834   14.7845 O.2       9 UNK        -0.5108 
     45 CA        -51.7712  -28.4507   13.3466 C.3       8 UNK         0.0248 
     46 CB        -52.2425  -29.3443   12.1966 C.3       8 UNK        -0.2001 
     47 N         -50.7378  -27.5437   12.8405 N.am      8 UNK        -0.4140 
     48 C         -50.0389  -26.6714   13.5792 C.2       8 UNK         0.5028 
     49 O         -50.1622  -26.5564   14.7988 O.2       8 UNK        -0.5428 
     50 CA        -49.0963  -25.7204   12.8220 C.3       7 UNK         0.0264 
     51 CB        -47.6800  -26.3110   12.7438 C.3       7 UNK        -0.1988 
     52 N         -49.5432  -25.3661   11.4693 N.am      7 UNK        -0.4454 
     53 C         -50.7189  -24.8125   11.1396 C.2       7 UNK         0.5027 
     54 O         -51.6139  -24.5888   11.9552 O.2       7 UNK        -0.5083 
     55 CA        -50.9103  -24.4311    9.6551 C.3       6 UNK         0.0844 
     56 C56       -52.3835  -24.0688    9.3276 C.3       14 UNK        -0.0967 
     57 S57       -52.6519  -23.9497    7.5236 S.3       14 UNK        -0.2604 
     58 C58       -54.0848  -25.0520    7.2475 C.3       14 UNK         0.0134 
     59 N         -50.0041  -23.3402    9.2808 N.am      6 UNK        -0.4116 
     60 C         -48.6730  -23.4025    9.1456 C.2       5 UNK         0.5034 
     61 O         -48.0136  -24.4451    9.2244 O.2       5 UNK        -0.5045 
     62 CA        -47.9719  -22.0518    8.9509 C.3       5 UNK         0.0224 
     63 CB        -48.1453  -21.1678   10.2067 C.3       5 UNK        -0.1978 
     64 N         -46.5483  -22.2456    8.6798 N.am      5 UNK        -0.4737 
     65 C         -45.7232  -21.3103    8.1969 C.2       4 UNK         0.5027 
     66 O         -46.0973  -20.1979    7.8233 O.2       4 UNK        -0.5211 
     67 CA        -44.2243  -21.6481    8.1377 C.3       4 UNK         0.0297 
     68 CB        -43.6883  -22.1971    9.4789 C.3       4 UNK        -0.1993 
     69 N         -43.8722  -22.5139    7.0083 N.am      4 UNK        -0.4486 
     70 C         -44.2147  -23.7938    6.8226 C.2       3 UNK         0.4961 
     71 O         -44.9065  -24.4489    7.6061 O.2       3 UNK        -0.5105 
     72 CA        -43.6641  -24.4601    5.5558 C.3       3 UNK         0.0299 
     73 CB        -42.1340  -24.6284    5.6252 C.3       3 UNK        -0.1972 
     74 N         -44.2951  -25.7658    5.4247 N.am      3 UNK        -0.4305 
     75 C         -44.4692  -26.4602    4.2966 C.2       2 UNK         0.5006 
     76 O         -44.0718  -26.0829    3.1933 O.2       2 UNK        -0.5106 
     77 CA        -45.1997  -27.8119    4.4098 C.3       2 UNK         0.0296 
     78 CB        -44.2056  -28.9741    4.2484 C.3       2 UNK        -0.2002 
     79 N         -45.9294  -27.9842    5.6704 N.am      2 UNK        -0.4032 
     80 C         -47.0793  -27.3730    5.9854 C.2       1 UNK         0.5000 
     81 O         -47.6575  -26.5778    5.2414 O.2       1 UNK        -0.5238 
     82 H82       -45.0299  -27.0986   10.9338 H         1 UNK         0.0889 
     83 H83       -45.6422  -25.6311   10.1615 H         1 UNK         0.0889 
     84 H84       -44.0690  -26.2744    9.6997 H         1 UNK         0.0889 
     85 H85       -47.2740  -26.1056    8.7061 H         1 UNK         0.3028 
     86 H86       -47.5360  -28.7794    7.5156 H         1 UNK         0.0864 
     87 H87       -49.3337  -26.3128    7.5290 H         1 UNK         0.0720 
     88 H88       -49.6909  -27.7320    6.5902 H         1 UNK         0.0720 
     89 H89       -51.3141  -30.1088    8.7478 H         1 UNK         0.0814 
     90 H90       -51.0322  -29.4232    7.1745 H         1 UNK         0.0814 
     91 H91       -51.9266  -26.7405    7.1170 H         1 UNK         0.1469 
     92 H92       -55.8895  -26.4510    8.7335 H         1 UNK         0.1381 
     93 H93       -53.5285  -29.9432    9.4754 H         1 UNK         0.1206 
     94 H94       -55.8791  -29.9529   10.0108 H         1 UNK         0.0813 
     95 H95       -56.9230  -28.6313    9.5400 H         1 UNK         0.0813 
     96 H96       -57.6425  -29.9682   11.7002 H         1 UNK         0.0638 
     97 H97       -58.0681  -28.6489   12.7399 H         1 UNK         0.0638 
     98 H98       -57.6119  -30.7615   13.9499 H         1 UNK         0.0568 
     99 H99       -54.7229  -30.9103   15.1863 H         1 UNK         0.3450 
    100 H100      -54.0164  -32.0956   14.1162 H         1 UNK         0.3450 
    101 H101      -55.5457  -28.9104   14.9297 H         1 UNK         0.2987 
    102 H102      -57.0373  -27.0093   16.5501 H         1 UNK         0.0766 
    103 H103      -58.9120  -27.8430   17.9148 H         1 UNK         0.0798 
    104 H104      -57.5641  -27.4354   18.9607 H         1 UNK         0.0798 
    105 H105      -57.9122  -29.1230   18.5862 H         1 UNK         0.0798 
    106 H106      -54.9923  -27.3644   17.2401 H         1 UNK         0.3198 
    107 H107      -53.3653  -29.3056   19.2254 H         1 UNK         0.0843 
    108 H108      -52.7393  -30.3464   16.4063 H         1 UNK         0.0831 
    109 H109      -53.0436  -31.3352   17.8277 H         1 UNK         0.0831 
    110 H110      -51.6140  -30.3213   17.7613 H         1 UNK         0.0831 
    111 H111      -52.7222  -27.8652   16.6992 H         1 UNK         0.3133 
    112 H112      -52.7319  -24.7299   18.2430 H         1 UNK         0.0566 
    113 H113      -50.3945  -24.4694   17.3717 H         1 UNK         0.0814 
    114 H114      -50.1769  -26.2185   17.4348 H         1 UNK         0.0814 
    115 H115      -50.4278  -25.3076   18.9151 H         1 UNK         0.0814 
    116 H116      -51.8960  -25.7084   15.6523 H         1 UNK         0.3091 
    117 H117      -55.1462  -26.1156   14.2941 H         1 UNK         0.0702 
    118 H118      -54.4975  -24.3587   12.6395 H         1 UNK         0.0785 
    119 H119      -53.3515  -23.6814   13.7966 H         1 UNK         0.0785 
    120 H120      -55.0755  -23.6461   14.1383 H         1 UNK         0.0785 
    121 H121      -52.5661  -25.9732   13.0700 H         1 UNK         0.2998 
    122 H122      -51.3122  -29.0816   14.1102 H         1 UNK         0.0697 
    123 H123      -52.7267  -28.7428   11.4311 H         1 UNK         0.0825 
    124 H124      -52.9674  -30.0824   12.5387 H         1 UNK         0.0825 
    125 H125      -51.4162  -29.8857   11.7357 H         1 UNK         0.0825 
    126 H126      -50.5730  -27.5552   11.8437 H         1 UNK         0.3029 
    127 H127      -49.0499  -24.7942   13.3985 H         1 UNK         0.0897 
    128 H128      -47.6487  -27.2041   12.1181 H         1 UNK         0.0792 
    129 H129      -47.3171  -26.5915   13.7338 H         1 UNK         0.0792 
    130 H130      -46.9734  -25.5883   12.3358 H         1 UNK         0.0792 
    131 H131      -48.8547  -25.4448   10.7280 H         1 UNK         0.3086 
    132 H132      -50.6487  -25.3131    9.0726 H         1 UNK         0.0583 
    133 H133      -53.0636  -24.8112    9.7486 H         1 UNK         0.1020 
    134 H134      -52.6638  -23.1210    9.7908 H         1 UNK         0.1020 
    135 H135      -54.9712  -24.5612    7.6525 H         1 UNK         0.0694 
    136 H136      -54.2505  -25.1495    6.1740 H         1 UNK         0.0694 
    137 H137      -50.4441  -22.4360    9.1968 H         1 UNK         0.2989 
    138 H138      -48.4280  -21.5610    8.0881 H         1 UNK         0.1055 
    139 H139      -47.6979  -21.6326   11.0864 H         1 UNK         0.0806 
    140 H140      -49.1966  -20.9870   10.4332 H         1 UNK         0.0806 
    141 H141      -47.6830  -20.1891   10.0783 H         1 UNK         0.0806 
    142 H142      -46.1940  -23.1847    8.8372 H         1 UNK         0.3061 
    143 H143      -43.7053  -20.7052    7.9564 H         1 UNK         0.0734 
    144 H144      -44.1221  -23.1613    9.7440 H         1 UNK         0.0832 
    145 H145      -42.6057  -22.3191    9.4487 H         1 UNK         0.0832 
    146 H146      -43.9128  -21.5091   10.2950 H         1 UNK         0.0832 
    147 H147      -43.3256  -22.0669    6.2847 H         1 UNK         0.3156 
    148 H148      -43.9329  -23.8399    4.6982 H         1 UNK         0.0589 
    149 H149      -41.8355  -25.2266    6.4872 H         1 UNK         0.0808 
    150 H150      -41.7468  -25.1169    4.7308 H         1 UNK         0.0808 
    151 H151      -41.6301  -23.6647    5.7058 H         1 UNK         0.0808 
    152 H152      -44.7121  -26.1003    6.2849 H         1 UNK         0.3098 
    153 H153      -45.9188  -27.8607    3.5893 H         1 UNK         0.0720 
    154 H154      -44.7164  -29.9372    4.2508 H         1 UNK         0.0791 
    155 H155      -43.4638  -28.9843    5.0482 H         1 UNK         0.0791 
    156 H156      -43.6652  -28.8989    3.3036 H         1 UNK         0.0791 
    157 H157      -45.4949  -28.5635    6.3803 H         1 UNK         0.3028 
@<TRIPOS>BOND
     1    1    2 1    
     2    1   82 1    
     3    1   83 1    
     4    1   84 1    
     5    2    3 2    
     6    2    4 am   BACKBONE|DICT|INTERRES
     7    4    5 1    
     8    4   85 1    
     9    5    6 1    
    10    5   80 1    
    11    5   86 1    
    12    6    7 1    
    13    6   87 1    
    14    6   88 1    
    15    7    8 1    
    16    8    9 1    
    17    8   89 1    
    18    8   90 1    
    19    9   10 ar   
    20    9   14 ar   
    21   10   11 ar   
    22   10   91 1    
    23   11   12 ar   
    24   11   58 1    
    25   12   13 ar   
    26   12   92 1    
    27   13   14 ar   
    28   13   15 1    
    29   14   93 1    
    30   15   16 1    
    31   15   94 1    
    32   15   95 1    
    33   16   17 1    
    34   17   18 1    
    35   17   96 1    
    36   17   97 1    
    37   18   19 1    
    38   18   22 1    
    39   18   98 1    
    40   19   20 am   BACKBONE|DICT|INTERRES
    41   19   21 2    
    42   20   99 1    
    43   20  100 1    
    44   22   23 am   BACKBONE|DICT|INTERRES
    45   22  101 1    
    46   23   24 2    
    47   23   25 1    
    48   25   26 1    
    49   25   27 1    
    50   25  102 1    
    51   26  103 1    
    52   26  104 1    
    53   26  105 1    
    54   27   28 am   BACKBONE|DICT|INTERRES
    55   27  106 1    
    56   28   29 2    
    57   28   30 1    
    58   30   31 1    
    59   30   32 1    
    60   30  107 1    
    61   31  108 1    
    62   31  109 1    
    63   31  110 1    
    64   32   33 am   BACKBONE|DICT|INTERRES
    65   32  111 1    
    66   33   34 2    
    67   33   35 1    
    68   35   36 1    
    69   35   37 1    
    70   35  112 1    
    71   36  113 1    
    72   36  114 1    
    73   36  115 1    
    74   37   38 am   BACKBONE|DICT|INTERRES
    75   37  116 1    
    76   38   39 2    
    77   38   40 1    
    78   40   41 1    
    79   40   42 1    
    80   40  117 1    
    81   41  118 1    
    82   41  119 1    
    83   41  120 1    
    84   42   43 am   BACKBONE|DICT|INTERRES
    85   42  121 1    
    86   43   44 2    
    87   43   45 1    
    88   45   46 1    
    89   45   47 1    
    90   45  122 1    
    91   46  123 1    
    92   46  124 1    
    93   46  125 1    
    94   47   48 am   BACKBONE|DICT|INTERRES
    95   47  126 1    
    96   48   49 2    
    97   48   50 1    
    98   50   51 1    
    99   50   52 1    
   100   50  127 1    
   101   51  128 1    
   102   51  129 1    
   103   51  130 1    
   104   52   53 am   BACKBONE|DICT|INTERRES
   105   52  131 1    
   106   53   54 2    
   107   53   55 1    
   108   55   56 1    
   109   55   59 1    
   110   55  132 1    
   111   56   57 1    
   112   56  133 1    
   113   56  134 1    
   114   57   58 1    
   115   58  135 1    
   116   58  136 1    
   117   59   60 am   BACKBONE|DICT|INTERRES
   118   59  137 1    
   119   60   61 2    
   120   60   62 1    
   121   62   63 1    
   122   62   64 1    
   123   62  138 1    
   124   63  139 1    
   125   63  140 1    
   126   63  141 1    
   127   64   65 am   BACKBONE|DICT|INTERRES
   128   64  142 1    
   129   65   66 2    
   130   65   67 1    
   131   67   68 1    
   132   67   69 1    
   133   67  143 1    
   134   68  144 1    
   135   68  145 1    
   136   68  146 1    
   137   69   70 am   BACKBONE|DICT|INTERRES
   138   69  147 1    
   139   70   71 2    
   140   70   72 1    
   141   72   73 1    
   142   72   74 1    
   143   72  148 1    
   144   73  149 1    
   145   73  150 1    
   146   73  151 1    
   147   74   75 am   BACKBONE|DICT|INTERRES
   148   74  152 1    
   149   75   76 2    
   150   75   77 1    
   151   77   78 1    
   152   77   79 1    
   153   77  153 1    
   154   78  154 1    
   155   78  155 1    
   156   78  156 1    
   157   79   80 am   BACKBONE|DICT|INTERRES
   158   79  157 1    
   159   80   81 2    
@<TRIPOS>SUBSTRUCTURE
     1 UNK         1 GROUP             0       ****    0 ROOT    
