@<TRIPOS>MOLECULE
3R207
157   159    1
SMALL
USER_CHARGES


@<TRIPOS>ATOM
      1 CA        -46.1592  -27.6817   11.5303 C.3       0 UNK        -0.1975 
      2 C         -47.1267  -27.5513   10.3639 C.2       0 UNK         0.4852 
      3 O         -48.0198  -26.7067   10.4241 O.2       0 UNK        -0.5216 
      4 N         -46.9456  -28.3840    9.3278 N.am      1 UNK        -0.4461 
      5 CA        -47.7048  -28.4717    8.0708 C.3       1 UNK         0.0864 
      6 C6        -49.2168  -28.7530    8.2560 C.3       14 UNK        -0.0898 
      7 S7        -49.6120  -30.4389    8.8114 S.3       14 UNK        -0.2598 
      8 C8        -51.0710  -30.8089    7.7766 C.3       14 UNK         0.0286 
      9 C9        -52.2989  -29.9876    8.1647 C.ar      14 UNK        -0.0844 
     10 C10       -52.5327  -28.7343    7.5861 C.ar      14 UNK        -0.0881 
     11 C11       -53.6638  -27.9809    7.9258 C.ar      14 UNK        -0.0643 
     12 C12       -54.5946  -28.5302    8.8152 C.ar      14 UNK        -0.0930 
     13 C13       -54.3941  -29.7947    9.3810 C.ar      14 UNK        -0.0827 
     14 C14       -53.2324  -30.5069    9.0663 C.ar      14 UNK        -0.1249 
     15 C15       -55.4566  -30.4303   10.2732 C.3       14 UNK         0.0141 
     16 S16       -55.4132  -29.8354   11.9962 S.3       14 UNK        -0.2313 
     17 C17       -56.3802  -28.2919   11.8840 C.3       14 UNK        -0.0915 
     18 CA        -55.5206  -27.0510   12.2597 C.3       13 UNK         0.0968 
     19 C         -56.0517  -25.7202   11.6391 C.2       13 UNK         0.5732 
     20 N         -55.9460  -24.5803   12.3124 N.am      13 UNK        -0.7310 
     21 O         -56.5455  -25.7087   10.5137 O.2       13 UNK        -0.5035 
     22 N         -55.2119  -27.0038   13.7018 N.am      13 UNK        -0.4233 
     23 C         -56.0838  -26.7787   14.6963 C.2       13 UNK         0.4989 
     24 O         -57.2848  -26.5638   14.5245 O.2       13 UNK        -0.4996 
     25 CA        -55.4997  -26.7708   16.1237 C.3       12 UNK         0.0216 
     26 CB        -56.5805  -26.8143   17.2263 C.3       12 UNK        -0.1964 
     27 N         -54.4881  -27.8158   16.3267 N.am      12 UNK        -0.4276 
     28 C         -54.6718  -29.1432   16.2493 C.2       12 UNK         0.5020 
     29 O         -55.7694  -29.6738   16.0726 O.2       12 UNK        -0.5489 
     30 CA        -53.4277  -30.0368   16.3887 C.3       11 UNK         0.0294 
     31 CB        -53.4193  -31.1670   15.3410 C.3       11 UNK        -0.2019 
     32 N         -52.1761  -29.2808   16.2803 N.am      11 UNK        -0.4493 
     33 C         -51.0878  -29.5007   17.0287 C.2       11 UNK         0.4932 
     34 O         -51.0500  -30.2899   17.9732 O.2       11 UNK        -0.5029 
     35 CA        -49.8150  -28.7348   16.6456 C.3       10 UNK         0.0280 
     36 CB        -49.2094  -29.3166   15.3560 C.3       10 UNK        -0.1976 
     37 N         -50.0591  -27.3020   16.4662 N.am      10 UNK        -0.4242 
     38 C         -49.7637  -26.3613   17.3756 C.2       10 UNK         0.5072 
     39 O         -49.3532  -26.6141   18.5093 O.2       10 UNK        -0.5224 
     40 CA        -49.8993  -24.8844   16.9541 C.3       9 UNK         0.0343 
     41 CB        -48.5078  -24.2491   16.7884 C.3       9 UNK        -0.2003 
     42 N         -50.6405  -24.7060   15.7043 N.am      9 UNK        -0.4272 
     43 C         -51.9697  -24.5684   15.6250 C.2       9 UNK         0.4988 
     44 O         -52.7175  -24.5330   16.6011 O.2       9 UNK        -0.5108 
     45 CA        -52.5724  -24.5089   14.2107 C.3       8 UNK         0.0248 
     46 CB        -52.6199  -23.0639   13.6928 C.3       8 UNK        -0.2001 
     47 N         -51.8845  -25.3663   13.2371 N.am      8 UNK        -0.4140 
     48 C         -51.7777  -26.7000   13.3353 C.2       8 UNK         0.5028 
     49 O         -52.2310  -27.3321   14.2920 O.2       8 UNK        -0.5428 
     50 CA        -51.0217  -27.4681   12.2344 C.3       7 UNK         0.0264 
     51 CB        -51.7208  -28.7932   11.8770 C.3       7 UNK        -0.1988 
     52 N         -50.7191  -26.7028   11.0223 N.am      7 UNK        -0.4454 
     53 C         -51.5758  -26.1166   10.1725 C.2       7 UNK         0.5027 
     54 O         -52.7907  -26.0705   10.3546 O.2       7 UNK        -0.5083 
     55 CA        -50.9282  -25.3801    8.9761 C.3       6 UNK         0.0844 
     56 C56       -51.9515  -24.6558    8.0569 C.3       14 UNK        -0.0967 
     57 S57       -52.4927  -25.7027    6.6570 S.3       14 UNK        -0.2604 
     58 C58       -53.9482  -26.6017    7.3168 C.3       14 UNK         0.0134 
     59 N         -49.8218  -24.5343    9.4433 N.am      6 UNK        -0.4116 
     60 C         -49.9269  -23.5203   10.3141 C.2       5 UNK         0.5034 
     61 O         -51.0013  -23.0446   10.6804 O.2       5 UNK        -0.5045 
     62 CA        -48.6346  -22.9929   10.9624 C.3       5 UNK         0.0224 
     63 CB        -48.5372  -23.4905   12.4161 C.3       5 UNK        -0.1978 
     64 N         -47.3994  -23.3642   10.2680 N.am      5 UNK        -0.4737 
     65 C         -46.9653  -22.8081    9.1318 C.2       4 UNK         0.5027 
     66 O         -47.6198  -21.9870    8.4864 O.2       4 UNK        -0.5211 
     67 CA        -45.5593  -23.1976    8.6468 C.3       4 UNK         0.0297 
     68 CB        -44.9677  -24.4582    9.3145 C.3       4 UNK        -0.1993 
     69 N         -45.6019  -23.3702    7.2008 N.am      4 UNK        -0.4486 
     70 C         -44.6063  -23.1148    6.3445 C.2       3 UNK         0.4961 
     71 O         -43.5019  -22.6890    6.6879 O.2       3 UNK        -0.5105 
     72 CA        -44.9044  -23.3714    4.8505 C.3       3 UNK         0.0299 
     73 CB        -43.6300  -23.6388    4.0205 C.3       3 UNK        -0.1972 
     74 N         -45.9101  -24.4230    4.6354 N.am      3 UNK        -0.4305 
     75 C         -45.8163  -25.7113    4.9973 C.2       2 UNK         0.5006 
     76 O         -44.8048  -26.2356    5.4700 O.2       2 UNK        -0.5106 
     77 CA        -47.0821  -26.5571    4.7882 C.3       2 UNK         0.0296 
     78 CB        -47.0279  -27.2839    3.4343 C.3       2 UNK        -0.2002 
     79 N         -47.2670  -27.5405    5.8572 N.am      2 UNK        -0.4032 
     80 C         -47.5033  -27.2493    7.1453 C.2       1 UNK         0.5000 
     81 O         -47.6360  -26.0981    7.5707 O.2       1 UNK        -0.5238 
     82 H82       -45.6294  -26.7421   11.6834 H         1 UNK         0.0889 
     83 H83       -45.4203  -28.4655   11.3649 H         1 UNK         0.0889 
     84 H84       -46.7058  -27.9173   12.4430 H         1 UNK         0.0889 
     85 H85       -46.1734  -29.0331    9.3808 H         1 UNK         0.3028 
     86 H86       -47.2777  -29.3312    7.5510 H         1 UNK         0.0864 
     87 H87       -49.6603  -28.0714    8.9732 H         1 UNK         0.0720 
     88 H88       -49.7309  -28.5841    7.3108 H         1 UNK         0.0720 
     89 H89       -51.2974  -31.8723    7.8683 H         1 UNK         0.0814 
     90 H90       -50.8266  -30.6489    6.7254 H         1 UNK         0.0814 
     91 H91       -51.8375  -28.3488    6.8570 H         1 UNK         0.1469 
     92 H92       -55.4884  -27.9714    9.0517 H         1 UNK         0.1381 
     93 H93       -53.0684  -31.4839    9.5003 H         1 UNK         0.1206 
     94 H94       -55.3207  -31.5127   10.2901 H         1 UNK         0.0813 
     95 H95       -56.4475  -30.2695    9.8464 H         1 UNK         0.0813 
     96 H96       -57.2487  -28.3778   12.5377 H         1 UNK         0.0638 
     97 H97       -56.7898  -28.2101   10.8780 H         1 UNK         0.0638 
     98 H98       -54.5555  -27.1806   11.7757 H         1 UNK         0.0568 
     99 H99       -56.2850  -23.7312   11.8897 H         1 UNK         0.3450 
    100 H100      -55.5628  -24.5655   13.2410 H         1 UNK         0.3450 
    101 H101      -54.2446  -27.1858   13.9439 H         1 UNK         0.2987 
    102 H102      -54.9801  -25.8187   16.2265 H         1 UNK         0.0766 
    103 H103      -57.2449  -25.9523   17.1552 H         1 UNK         0.0798 
    104 H104      -56.1339  -26.7959   18.2203 H         1 UNK         0.0798 
    105 H105      -57.2017  -27.7074   17.1533 H         1 UNK         0.0798 
    106 H106      -53.5444  -27.4854   16.4744 H         1 UNK         0.3198 
    107 H107      -53.5015  -30.4891   17.3799 H         1 UNK         0.0843 
    108 H108      -53.3924  -30.7694   14.3258 H         1 UNK         0.0831 
    109 H109      -54.3108  -31.7900   15.4232 H         1 UNK         0.0831 
    110 H110      -52.5573  -31.8217   15.4686 H         1 UNK         0.0831 
    111 H111      -52.1267  -28.6128   15.5104 H         1 UNK         0.3133 
    112 H112      -49.0838  -28.8876   17.4426 H         1 UNK         0.0566 
    113 H113      -48.2920  -28.7977   15.0778 H         1 UNK         0.0814 
    114 H114      -49.8995  -29.2557   14.5148 H         1 UNK         0.0814 
    115 H115      -48.9568  -30.3696   15.4884 H         1 UNK         0.0814 
    116 H116      -50.4789  -27.0152   15.5936 H         1 UNK         0.3091 
    117 H117      -50.4156  -24.3606   17.7616 H         1 UNK         0.0702 
    118 H118      -48.5825  -23.1898   16.5418 H         1 UNK         0.0785 
    119 H119      -47.9299  -24.7373   16.0024 H         1 UNK         0.0785 
    120 H120      -47.9307  -24.3241   17.7112 H         1 UNK         0.0785 
    121 H121      -50.1033  -24.7136   14.8504 H         1 UNK         0.2998 
    122 H122      -53.5996  -24.8630   14.2874 H         1 UNK         0.0697 
    123 H123      -51.6241  -22.6342   13.5857 H         1 UNK         0.0825 
    124 H124      -53.1781  -22.4226   14.3763 H         1 UNK         0.0825 
    125 H125      -53.1130  -23.0071   12.7217 H         1 UNK         0.0825 
    126 H126      -51.5405  -24.9192   12.3983 H         1 UNK         0.3029 
    127 H127      -50.0518  -27.7168   12.6660 H         1 UNK         0.0897 
    128 H128      -52.6924  -28.6214   11.4161 H         1 UNK         0.0792 
    129 H129      -51.8830  -29.4160   12.7571 H         1 UNK         0.0792 
    130 H130      -51.1247  -29.3770   11.1770 H         1 UNK         0.0792 
    131 H131      -49.7243  -26.6480   10.7912 H         1 UNK         0.3086 
    132 H132      -50.4345  -26.1384    8.3724 H         1 UNK         0.0583 
    133 H133      -52.8098  -24.2614    8.6043 H         1 UNK         0.1020 
    134 H134      -51.4795  -23.7791    7.6110 H         1 UNK         0.1020 
    135 H135      -54.4529  -25.9700    8.0499 H         1 UNK         0.0694 
    136 H136      -54.6549  -26.7407    6.4979 H         1 UNK         0.0694 
    137 H137      -48.8936  -24.8900    9.2396 H         1 UNK         0.2989 
    138 H138      -48.7061  -21.9027   10.9758 H         1 UNK         0.1055 
    139 H139      -49.4061  -23.1804   12.9958 H         1 UNK         0.0806 
    140 H140      -47.6594  -23.0825   12.9178 H         1 UNK         0.0806 
    141 H141      -48.4777  -24.5789   12.4666 H         1 UNK         0.0806 
    142 H142      -46.8256  -24.0683   10.7093 H         1 UNK         0.3061 
    143 H143      -44.9134  -22.3495    8.8833 H         1 UNK         0.0734 
    144 H144      -44.8554  -24.3296   10.3914 H         1 UNK         0.0832 
    145 H145      -45.5906  -25.3348    9.1393 H         1 UNK         0.0832 
    146 H146      -43.9759  -24.6802    8.9204 H         1 UNK         0.0832 
    147 H147      -46.4900  -23.6875    6.8355 H         1 UNK         0.3156 
    148 H148      -45.3494  -22.4491    4.4742 H         1 UNK         0.0589 
    149 H149      -43.8683  -23.8149    2.9717 H         1 UNK         0.0808 
    150 H150      -42.9529  -22.7846    4.0581 H         1 UNK         0.0808 
    151 H151      -43.0785  -24.5039    4.3898 H         1 UNK         0.0808 
    152 H152      -46.7834  -24.1065    4.2354 H         1 UNK         0.3098 
    153 H153      -47.9527  -25.8975    4.7946 H         1 UNK         0.0720 
    154 H154      -46.9196  -26.5740    2.6131 H         1 UNK         0.0791 
    155 H155      -47.9402  -27.8518    3.2504 H         1 UNK         0.0791 
    156 H156      -46.1846  -27.9740    3.3804 H         1 UNK         0.0791 
    157 H157      -47.1642  -28.5083    5.5894 H         1 UNK         0.3028 
@<TRIPOS>BOND
     1    1    2 1    
     2    1   82 1    
     3    1   83 1    
     4    1   84 1    
     5    2    3 2    
     6    2    4 am   BACKBONE|DICT|INTERRES
     7    4    5 1    
     8    4   85 1    
     9    5    6 1    
    10    5   80 1    
    11    5   86 1    
    12    6    7 1    
    13    6   87 1    
    14    6   88 1    
    15    7    8 1    
    16    8    9 1    
    17    8   89 1    
    18    8   90 1    
    19    9   10 ar   
    20    9   14 ar   
    21   10   11 ar   
    22   10   91 1    
    23   11   12 ar   
    24   11   58 1    
    25   12   13 ar   
    26   12   92 1    
    27   13   14 ar   
    28   13   15 1    
    29   14   93 1    
    30   15   16 1    
    31   15   94 1    
    32   15   95 1    
    33   16   17 1    
    34   17   18 1    
    35   17   96 1    
    36   17   97 1    
    37   18   19 1    
    38   18   22 1    
    39   18   98 1    
    40   19   20 am   BACKBONE|DICT|INTERRES
    41   19   21 2    
    42   20   99 1    
    43   20  100 1    
    44   22   23 am   BACKBONE|DICT|INTERRES
    45   22  101 1    
    46   23   24 2    
    47   23   25 1    
    48   25   26 1    
    49   25   27 1    
    50   25  102 1    
    51   26  103 1    
    52   26  104 1    
    53   26  105 1    
    54   27   28 am   BACKBONE|DICT|INTERRES
    55   27  106 1    
    56   28   29 2    
    57   28   30 1    
    58   30   31 1    
    59   30   32 1    
    60   30  107 1    
    61   31  108 1    
    62   31  109 1    
    63   31  110 1    
    64   32   33 am   BACKBONE|DICT|INTERRES
    65   32  111 1    
    66   33   34 2    
    67   33   35 1    
    68   35   36 1    
    69   35   37 1    
    70   35  112 1    
    71   36  113 1    
    72   36  114 1    
    73   36  115 1    
    74   37   38 am   BACKBONE|DICT|INTERRES
    75   37  116 1    
    76   38   39 2    
    77   38   40 1    
    78   40   41 1    
    79   40   42 1    
    80   40  117 1    
    81   41  118 1    
    82   41  119 1    
    83   41  120 1    
    84   42   43 am   BACKBONE|DICT|INTERRES
    85   42  121 1    
    86   43   44 2    
    87   43   45 1    
    88   45   46 1    
    89   45   47 1    
    90   45  122 1    
    91   46  123 1    
    92   46  124 1    
    93   46  125 1    
    94   47   48 am   BACKBONE|DICT|INTERRES
    95   47  126 1    
    96   48   49 2    
    97   48   50 1    
    98   50   51 1    
    99   50   52 1    
   100   50  127 1    
   101   51  128 1    
   102   51  129 1    
   103   51  130 1    
   104   52   53 am   BACKBONE|DICT|INTERRES
   105   52  131 1    
   106   53   54 2    
   107   53   55 1    
   108   55   56 1    
   109   55   59 1    
   110   55  132 1    
   111   56   57 1    
   112   56  133 1    
   113   56  134 1    
   114   57   58 1    
   115   58  135 1    
   116   58  136 1    
   117   59   60 am   BACKBONE|DICT|INTERRES
   118   59  137 1    
   119   60   61 2    
   120   60   62 1    
   121   62   63 1    
   122   62   64 1    
   123   62  138 1    
   124   63  139 1    
   125   63  140 1    
   126   63  141 1    
   127   64   65 am   BACKBONE|DICT|INTERRES
   128   64  142 1    
   129   65   66 2    
   130   65   67 1    
   131   67   68 1    
   132   67   69 1    
   133   67  143 1    
   134   68  144 1    
   135   68  145 1    
   136   68  146 1    
   137   69   70 am   BACKBONE|DICT|INTERRES
   138   69  147 1    
   139   70   71 2    
   140   70   72 1    
   141   72   73 1    
   142   72   74 1    
   143   72  148 1    
   144   73  149 1    
   145   73  150 1    
   146   73  151 1    
   147   74   75 am   BACKBONE|DICT|INTERRES
   148   74  152 1    
   149   75   76 2    
   150   75   77 1    
   151   77   78 1    
   152   77   79 1    
   153   77  153 1    
   154   78  154 1    
   155   78  155 1    
   156   78  156 1    
   157   79   80 am   BACKBONE|DICT|INTERRES
   158   79  157 1    
   159   80   81 2    
@<TRIPOS>SUBSTRUCTURE
     1 UNK         1 GROUP             0       ****    0 ROOT    
