@<TRIPOS>MOLECULE
3R207
157   159    1
SMALL
USER_CHARGES


@<TRIPOS>ATOM
      1 CA        -48.4450  -30.7369   10.5154 C.3       0 UNK        -0.1975 
      2 C         -48.2513  -30.6680    9.0076 C.2       0 UNK         0.4852 
      3 O         -47.2025  -31.0701    8.5036 O.2       0 UNK        -0.5216 
      4 N         -49.2699  -30.1837    8.2859 N.am      1 UNK        -0.4461 
      5 CA        -49.3203  -30.1699    6.8201 C.3       1 UNK         0.0864 
      6 C6        -50.7826  -30.1421    6.3055 C.3       14 UNK        -0.0898 
      7 S7        -51.6779  -28.5728    6.5741 S.3       14 UNK        -0.2598 
      8 C8        -52.4436  -28.8166    8.2099 C.3       14 UNK         0.0286 
      9 C9        -53.4622  -27.7238    8.4939 C.ar      14 UNK        -0.0844 
     10 C10       -53.0601  -26.3864    8.5504 C.ar      14 UNK        -0.0881 
     11 C11       -53.9978  -25.3698    8.7469 C.ar      14 UNK        -0.0643 
     12 C12       -55.3448  -25.7054    8.9298 C.ar      14 UNK        -0.0930 
     13 C13       -55.7628  -27.0404    8.8781 C.ar      14 UNK        -0.0827 
     14 C14       -54.8123  -28.0435    8.6577 C.ar      14 UNK        -0.1249 
     15 C15       -57.2509  -27.3773    8.9514 C.3       14 UNK         0.0141 
     16 S16       -57.6339  -28.8428    9.9702 S.3       14 UNK        -0.2313 
     17 C17       -57.7110  -28.1379   11.6505 C.3       14 UNK        -0.0915 
     18 CA        -56.3889  -28.2833   12.4591 C.3       13 UNK         0.0968 
     19 C         -56.4805  -27.6176   13.8666 C.2       13 UNK         0.5732 
     20 N         -55.8740  -28.1677   14.9130 N.am      13 UNK        -0.7310 
     21 O         -57.0863  -26.5585   14.0120 O.2       13 UNK        -0.5035 
     22 N         -55.8333  -29.6462   12.4746 N.am      13 UNK        -0.4233 
     23 C         -56.4218  -30.7447   12.9687 C.2       13 UNK         0.4989 
     24 O         -57.5779  -30.7837   13.3909 O.2       13 UNK        -0.4996 
     25 CA        -55.5621  -32.0223   13.0393 C.3       12 UNK         0.0216 
     26 CB        -55.7884  -32.8883   11.7893 C.3       12 UNK        -0.1964 
     27 N         -54.1260  -31.7640   13.1956 N.am      12 UNK        -0.4276 
     28 C         -53.5632  -31.1080   14.2207 C.2       12 UNK         0.5020 
     29 O         -54.1944  -30.6891   15.1925 O.2       12 UNK        -0.5489 
     30 CA        -52.0541  -30.8090   14.1271 C.3       11 UNK         0.0294 
     31 CB        -51.3041  -31.6442   13.0630 C.3       11 UNK        -0.2019 
     32 N         -51.8124  -29.3761   13.9166 N.am      11 UNK        -0.4493 
     33 C         -52.2994  -28.6128   12.9261 C.2       11 UNK         0.4932 
     34 O         -53.0077  -29.0503   12.0174 O.2       11 UNK        -0.5029 
     35 CA        -51.9135  -27.1229   12.9009 C.3       10 UNK         0.0280 
     36 CB        -53.1545  -26.2194   12.7403 C.3       10 UNK        -0.1976 
     37 N         -51.0513  -26.6635   14.0041 N.am      10 UNK        -0.4242 
     38 C         -51.3723  -26.5079   15.2975 C.2       10 UNK         0.5072 
     39 O         -52.4860  -26.7605   15.7557 O.2       10 UNK        -0.5224 
     40 CA        -50.2743  -26.0435   16.2717 C.3       9 UNK         0.0343 
     41 CB        -49.6959  -27.2625   17.0201 C.3       9 UNK        -0.2003 
     42 N         -49.1865  -25.2655   15.6592 N.am      9 UNK        -0.4272 
     43 C         -48.3512  -24.4766   16.3531 C.2       9 UNK         0.4988 
     44 O         -48.4640  -24.2558   17.5601 O.2       9 UNK        -0.5108 
     45 CA        -47.1686  -23.8473   15.5944 C.3       8 UNK         0.0248 
     46 CB        -46.1276  -24.9132   15.2124 C.3       8 UNK        -0.2001 
     47 N         -47.5764  -23.0964   14.4068 N.am      8 UNK        -0.4140 
     48 C         -48.1977  -21.9083   14.4364 C.2       8 UNK         0.5028 
     49 O         -48.4625  -21.2974   15.4728 O.2       8 UNK        -0.5428 
     50 CA        -48.6014  -21.2926   13.0826 C.3       7 UNK         0.0264 
     51 CB        -47.4538  -20.4561   12.4944 C.3       7 UNK        -0.1988 
     52 N         -49.0340  -22.2896   12.1009 N.am      7 UNK        -0.4454 
     53 C         -50.1111  -23.0746   12.2501 C.2       7 UNK         0.5027 
     54 O         -50.8875  -23.0002   13.2034 O.2       7 UNK        -0.5083 
     55 CA        -50.3219  -24.1653   11.1818 C.3       6 UNK         0.0844 
     56 C56       -51.0290  -23.6146    9.9196 C.3       14 UNK        -0.0967 
     57 S57       -52.8095  -23.3149   10.2116 S.3       14 UNK        -0.2604 
     58 C58       -53.5731  -23.9086    8.6721 C.3       14 UNK         0.0134 
     59 N         -49.0817  -24.8889   10.8787 N.am      6 UNK        -0.4116 
     60 C         -48.3479  -25.5748   11.7694 C.2       5 UNK         0.5034 
     61 O         -48.6834  -25.7612   12.9380 O.2       5 UNK        -0.5045 
     62 CA        -46.9834  -26.1042   11.3073 C.3       5 UNK         0.0224 
     63 CB        -47.1184  -27.4871   10.6596 C.3       5 UNK        -0.1978 
     64 N         -46.3135  -25.1730   10.4009 N.am      5 UNK        -0.4737 
     65 C         -45.8113  -23.9923   10.7898 C.2       4 UNK         0.5027 
     66 O         -45.7958  -23.6104   11.9595 O.2       4 UNK        -0.5211 
     67 CA        -45.2930  -23.0650    9.6785 C.3       4 UNK         0.0297 
     68 CB        -43.8329  -23.3973    9.3342 C.3       4 UNK        -0.1993 
     69 N         -46.1155  -23.1363    8.4669 N.am      4 UNK        -0.4486 
     70 C         -47.3948  -22.7396    8.3981 C.2       3 UNK         0.4961 
     71 O         -47.9964  -22.2080    9.3316 O.2       3 UNK        -0.5105 
     72 CA        -48.1429  -23.0446    7.0881 C.3       3 UNK         0.0299 
     73 CB        -47.8995  -21.9339    6.0547 C.3       3 UNK        -0.1972 
     74 N         -47.7828  -24.3475    6.5132 N.am      3 UNK        -0.4305 
     75 C         -48.0476  -25.5264    7.0928 C.2       2 UNK         0.5006 
     76 O         -48.6442  -25.6413    8.1659 O.2       2 UNK        -0.5106 
     77 CA        -47.5068  -26.7779    6.3936 C.3       2 UNK         0.0296 
     78 CB        -46.0078  -26.9670    6.6933 C.3       2 UNK        -0.2002 
     79 N         -48.2539  -27.9434    6.8607 N.am      2 UNK        -0.4032 
     80 C         -48.4348  -29.0792    6.1737 C.2       1 UNK         0.5000 
     81 O         -47.9364  -29.2913    5.0659 O.2       1 UNK        -0.5238 
     82 H82       -47.5049  -30.5387   11.0291 H         1 UNK         0.0889 
     83 H83       -48.7785  -31.7341   10.8013 H         1 UNK         0.0889 
     84 H84       -49.1851  -30.0163   10.8633 H         1 UNK         0.0889 
     85 H85       -50.1074  -29.8754    8.7549 H         1 UNK         0.3028 
     86 H86       -48.8999  -31.1216    6.4859 H         1 UNK         0.0864 
     87 H87       -51.3519  -30.9608    6.7486 H         1 UNK         0.0720 
     88 H88       -50.7909  -30.3385    5.2317 H         1 UNK         0.0720 
     89 H89       -51.6815  -28.7974    8.9890 H         1 UNK         0.0814 
     90 H90       -52.9137  -29.8005    8.2507 H         1 UNK         0.0814 
     91 H91       -52.0202  -26.1409    8.3908 H         1 UNK         0.1469 
     92 H92       -56.0757  -24.9198    9.0650 H         1 UNK         0.1381 
     93 H93       -55.1290  -29.0750    8.5880 H         1 UNK         0.1206 
     94 H94       -57.8300  -26.5241    9.3073 H         1 UNK         0.0813 
     95 H95       -57.5978  -27.5728    7.9361 H         1 UNK         0.0813 
     96 H96       -57.9950  -27.0873   11.5733 H         1 UNK         0.0638 
     97 H97       -58.5326  -28.6251   12.1771 H         1 UNK         0.0638 
     98 H98       -55.6409  -27.6939   11.9300 H         1 UNK         0.0568 
     99 H99       -55.9274  -27.7042   15.8053 H         1 UNK         0.3450 
    100 H100      -55.3554  -29.0348   14.8321 H         1 UNK         0.3450 
    101 H101      -54.8608  -29.7024   12.1872 H         1 UNK         0.2987 
    102 H102      -55.8905  -32.5875   13.9140 H         1 UNK         0.0766 
    103 H103      -55.2562  -33.8372   11.8597 H         1 UNK         0.0798 
    104 H104      -55.4578  -32.3813   10.8817 H         1 UNK         0.0798 
    105 H105      -56.8469  -33.1214   11.6636 H         1 UNK         0.0798 
    106 H106      -53.5299  -32.0363   12.4274 H         1 UNK         0.3198 
    107 H107      -51.6334  -31.0603   15.1021 H         1 UNK         0.0843 
    108 H108      -51.6149  -31.4050   12.0455 H         1 UNK         0.0831 
    109 H109      -51.4586  -32.7129   13.2185 H         1 UNK         0.0831 
    110 H110      -50.2299  -31.4694   13.1230 H         1 UNK         0.0831 
    111 H111      -51.2845  -28.9097   14.6396 H         1 UNK         0.3133 
    112 H112      -51.3095  -27.0224   11.9996 H         1 UNK         0.0566 
    113 H113      -52.8997  -25.1613   12.7845 H         1 UNK         0.0814 
    114 H114      -53.6420  -26.3939   11.7801 H         1 UNK         0.0814 
    115 H115      -53.8880  -26.4049   13.5232 H         1 UNK         0.0814 
    116 H116      -50.1016  -26.4385   13.7146 H         1 UNK         0.3091 
    117 H117      -50.7755  -25.4011   16.9992 H         1 UNK         0.0702 
    118 H118      -50.4894  -27.8713   17.4562 H         1 UNK         0.0785 
    119 H119      -49.1180  -27.9042   16.3540 H         1 UNK         0.0785 
    120 H120      -49.0440  -26.9592   17.8394 H         1 UNK         0.0785 
    121 H121      -49.0287  -25.3748   14.6601 H         1 UNK         0.2998 
    122 H122      -46.6793  -23.1460   16.2739 H         1 UNK         0.0697 
    123 H123      -46.5415  -25.6715   14.5490 H         1 UNK         0.0825 
    124 H124      -45.7572  -25.4282   16.0997 H         1 UNK         0.0825 
    125 H125      -45.2670  -24.4667   14.7138 H         1 UNK         0.0825 
    126 H126      -47.3356  -23.4927   13.5062 H         1 UNK         0.3029 
    127 H127      -49.4467  -20.6259   13.2669 H         1 UNK         0.0897 
    128 H128      -46.5748  -21.0653   12.2829 H         1 UNK         0.0792 
    129 H129      -47.1475  -19.6728   13.1890 H         1 UNK         0.0792 
    130 H130      -47.7532  -19.9686   11.5663 H         1 UNK         0.0792 
    131 H131      -48.4817  -22.3767   11.2518 H         1 UNK         0.3086 
    132 H132      -50.9843  -24.9025   11.6200 H         1 UNK         0.0583 
    133 H133      -50.5685  -22.6877    9.5742 H         1 UNK         0.1020 
    134 H134      -50.9163  -24.3203    9.0975 H         1 UNK         0.1020 
    135 H135      -54.4413  -23.2822    8.4618 H         1 UNK         0.0694 
    136 H136      -52.8916  -23.7585    7.8333 H         1 UNK         0.0694 
    137 H137      -48.7666  -24.8687    9.9136 H         1 UNK         0.2989 
    138 H138      -46.3563  -26.2145   12.1947 H         1 UNK         0.1055 
    139 H139      -47.5368  -28.1905   11.3787 H         1 UNK         0.0806 
    140 H140      -46.1508  -27.8804   10.3474 H         1 UNK         0.0806 
    141 H141      -47.7759  -27.4767    9.7920 H         1 UNK         0.0806 
    142 H142      -46.3192  -25.3985    9.4180 H         1 UNK         0.3061 
    143 H143      -45.3333  -22.0406   10.0554 H         1 UNK         0.0734 
    144 H144      -43.4291  -22.6995    8.6003 H         1 UNK         0.0832 
    145 H145      -43.2007  -23.3327   10.2211 H         1 UNK         0.0832 
    146 H146      -43.7283  -24.4062    8.9332 H         1 UNK         0.0832 
    147 H147      -45.6943  -23.5489    7.6476 H         1 UNK         0.3156 
    148 H148      -49.2107  -23.0650    7.3163 H         1 UNK         0.0589 
    149 H149      -46.8512  -21.8746    5.7593 H         1 UNK         0.0808 
    150 H150      -48.4940  -22.0922    5.1547 H         1 UNK         0.0808 
    151 H151      -48.1797  -20.9595    6.4576 H         1 UNK         0.0808 
    152 H152      -47.2905  -24.3361    5.6308 H         1 UNK         0.3098 
    153 H153      -47.6574  -26.6591    5.3184 H         1 UNK         0.0720 
    154 H154      -45.6085  -27.8370    6.1716 H         1 UNK         0.0791 
    155 H155      -45.8237  -27.1084    7.7588 H         1 UNK         0.0791 
    156 H156      -45.4245  -26.1045    6.3688 H         1 UNK         0.0791 
    157 H157      -48.7484  -27.8036    7.7319 H         1 UNK         0.3028 
@<TRIPOS>BOND
     1    1    2 1    
     2    1   82 1    
     3    1   83 1    
     4    1   84 1    
     5    2    3 2    
     6    2    4 am   BACKBONE|DICT|INTERRES
     7    4    5 1    
     8    4   85 1    
     9    5    6 1    
    10    5   80 1    
    11    5   86 1    
    12    6    7 1    
    13    6   87 1    
    14    6   88 1    
    15    7    8 1    
    16    8    9 1    
    17    8   89 1    
    18    8   90 1    
    19    9   10 ar   
    20    9   14 ar   
    21   10   11 ar   
    22   10   91 1    
    23   11   12 ar   
    24   11   58 1    
    25   12   13 ar   
    26   12   92 1    
    27   13   14 ar   
    28   13   15 1    
    29   14   93 1    
    30   15   16 1    
    31   15   94 1    
    32   15   95 1    
    33   16   17 1    
    34   17   18 1    
    35   17   96 1    
    36   17   97 1    
    37   18   19 1    
    38   18   22 1    
    39   18   98 1    
    40   19   20 am   BACKBONE|DICT|INTERRES
    41   19   21 2    
    42   20   99 1    
    43   20  100 1    
    44   22   23 am   BACKBONE|DICT|INTERRES
    45   22  101 1    
    46   23   24 2    
    47   23   25 1    
    48   25   26 1    
    49   25   27 1    
    50   25  102 1    
    51   26  103 1    
    52   26  104 1    
    53   26  105 1    
    54   27   28 am   BACKBONE|DICT|INTERRES
    55   27  106 1    
    56   28   29 2    
    57   28   30 1    
    58   30   31 1    
    59   30   32 1    
    60   30  107 1    
    61   31  108 1    
    62   31  109 1    
    63   31  110 1    
    64   32   33 am   BACKBONE|DICT|INTERRES
    65   32  111 1    
    66   33   34 2    
    67   33   35 1    
    68   35   36 1    
    69   35   37 1    
    70   35  112 1    
    71   36  113 1    
    72   36  114 1    
    73   36  115 1    
    74   37   38 am   BACKBONE|DICT|INTERRES
    75   37  116 1    
    76   38   39 2    
    77   38   40 1    
    78   40   41 1    
    79   40   42 1    
    80   40  117 1    
    81   41  118 1    
    82   41  119 1    
    83   41  120 1    
    84   42   43 am   BACKBONE|DICT|INTERRES
    85   42  121 1    
    86   43   44 2    
    87   43   45 1    
    88   45   46 1    
    89   45   47 1    
    90   45  122 1    
    91   46  123 1    
    92   46  124 1    
    93   46  125 1    
    94   47   48 am   BACKBONE|DICT|INTERRES
    95   47  126 1    
    96   48   49 2    
    97   48   50 1    
    98   50   51 1    
    99   50   52 1    
   100   50  127 1    
   101   51  128 1    
   102   51  129 1    
   103   51  130 1    
   104   52   53 am   BACKBONE|DICT|INTERRES
   105   52  131 1    
   106   53   54 2    
   107   53   55 1    
   108   55   56 1    
   109   55   59 1    
   110   55  132 1    
   111   56   57 1    
   112   56  133 1    
   113   56  134 1    
   114   57   58 1    
   115   58  135 1    
   116   58  136 1    
   117   59   60 am   BACKBONE|DICT|INTERRES
   118   59  137 1    
   119   60   61 2    
   120   60   62 1    
   121   62   63 1    
   122   62   64 1    
   123   62  138 1    
   124   63  139 1    
   125   63  140 1    
   126   63  141 1    
   127   64   65 am   BACKBONE|DICT|INTERRES
   128   64  142 1    
   129   65   66 2    
   130   65   67 1    
   131   67   68 1    
   132   67   69 1    
   133   67  143 1    
   134   68  144 1    
   135   68  145 1    
   136   68  146 1    
   137   69   70 am   BACKBONE|DICT|INTERRES
   138   69  147 1    
   139   70   71 2    
   140   70   72 1    
   141   72   73 1    
   142   72   74 1    
   143   72  148 1    
   144   73  149 1    
   145   73  150 1    
   146   73  151 1    
   147   74   75 am   BACKBONE|DICT|INTERRES
   148   74  152 1    
   149   75   76 2    
   150   75   77 1    
   151   77   78 1    
   152   77   79 1    
   153   77  153 1    
   154   78  154 1    
   155   78  155 1    
   156   78  156 1    
   157   79   80 am   BACKBONE|DICT|INTERRES
   158   79  157 1    
   159   80   81 2    
@<TRIPOS>SUBSTRUCTURE
     1 UNK         1 GROUP             0       ****    0 ROOT    
