@<TRIPOS>MOLECULE
3R207
157   159    1
SMALL
USER_CHARGES


@<TRIPOS>ATOM
      1 CA        -46.3731  -28.8188    1.4641 C.3       0 UNK        -0.1975 
      2 C         -47.0196  -29.2222    2.7814 C.2       0 UNK         0.4852 
      3 O         -46.7750  -30.3288    3.2622 O.2       0 UNK        -0.5216 
      4 N         -47.8424  -28.3309    3.3536 N.am      1 UNK        -0.4461 
      5 CA        -48.5461  -28.4721    4.6368 C.3       1 UNK         0.0864 
      6 C6        -49.6181  -29.6078    4.6107 C.3       14 UNK        -0.0898 
      7 S7        -51.2019  -29.0917    5.3473 S.3       14 UNK        -0.2598 
      8 C8        -50.8670  -29.2727    7.1289 C.3       14 UNK         0.0286 
      9 C9        -52.0024  -28.6940    7.9598 C.ar      14 UNK        -0.0844 
     10 C10       -52.3065  -27.3340    7.8637 C.ar      14 UNK        -0.0881 
     11 C11       -53.3471  -26.7802    8.6127 C.ar      14 UNK        -0.0643 
     12 C12       -54.0785  -27.5955    9.4818 C.ar      14 UNK        -0.0930 
     13 C13       -53.7826  -28.9587    9.5900 C.ar      14 UNK        -0.0827 
     14 C14       -52.7461  -29.5033    8.8234 C.ar      14 UNK        -0.1249 
     15 C15       -54.5941  -29.8520   10.5156 C.3       14 UNK         0.0141 
     16 S16       -53.6486  -30.2931   12.0041 S.3       14 UNK        -0.2313 
     17 C17       -54.8308  -31.3845   12.8657 C.3       14 UNK        -0.0915 
     18 CA        -55.1480  -30.9619   14.3263 C.3       13 UNK         0.0968 
     19 C         -54.0118  -31.3173   15.3322 C.2       13 UNK         0.5732 
     20 N         -53.5012  -30.3863   16.1307 N.am      13 UNK        -0.7310 
     21 O         -53.6036  -32.4738   15.4103 O.2       13 UNK        -0.5035 
     22 N         -55.6386  -29.5770   14.4070 N.am      13 UNK        -0.4233 
     23 C         -56.4817  -29.1263   15.3440 C.2       13 UNK         0.4989 
     24 O         -56.9794  -29.8472   16.2107 O.2       13 UNK        -0.4996 
     25 CA        -56.8391  -27.6314   15.3168 C.3       12 UNK         0.0216 
     26 CB        -56.9481  -27.0485   16.7388 C.3       12 UNK        -0.1964 
     27 N         -55.8609  -26.8369   14.5700 N.am      12 UNK        -0.4276 
     28 C         -56.1396  -26.0542   13.5175 C.2       12 UNK         0.5020 
     29 O         -57.2286  -26.0602   12.9405 O.2       12 UNK        -0.5489 
     30 CA        -55.0308  -25.0921   13.0292 C.3       11 UNK         0.0294 
     31 CB        -55.6063  -23.7829   12.4509 C.3       11 UNK        -0.2019 
     32 N         -54.0071  -24.7963   14.0402 N.am      11 UNK        -0.4493 
     33 C         -54.1807  -24.2916   15.2728 C.2       11 UNK         0.4932 
     34 O         -55.2533  -23.8512   15.6889 O.2       11 UNK        -0.5029 
     35 CA        -52.9583  -24.3369   16.2156 C.3       10 UNK         0.0280 
     36 CB        -53.3667  -24.4273   17.7008 C.3       10 UNK        -0.1976 
     37 N         -51.9978  -25.4013   15.8893 N.am      10 UNK        -0.4242 
     38 C         -52.2285  -26.7226   15.7982 C.2       10 UNK         0.5072 
     39 O         -53.3283  -27.2409   16.0127 O.2       10 UNK        -0.5224 
     40 CA        -51.0726  -27.6246   15.3213 C.3       9 UNK         0.0343 
     41 CB        -51.4711  -28.3489   14.0273 C.3       9 UNK        -0.2003 
     42 N         -49.8206  -26.9095   15.0716 N.am      9 UNK        -0.4272 
     43 C         -48.9402  -26.5299   16.0059 C.2       9 UNK         0.4988 
     44 O         -49.0539  -26.7920   17.2035 O.2       9 UNK        -0.5108 
     45 CA        -47.7505  -25.6786   15.5243 C.3       8 UNK         0.0248 
     46 CB        -46.6083  -26.5784   15.0267 C.3       8 UNK        -0.2001 
     47 N         -48.1128  -24.7140   14.4778 N.am      8 UNK        -0.4140 
     48 C         -49.0020  -23.7214   14.6366 C.2       8 UNK         0.5028 
     49 O         -49.5889  -23.4923   15.6943 O.2       8 UNK        -0.5428 
     50 CA        -49.3403  -22.8730   13.4003 C.3       7 UNK         0.0264 
     51 CB        -48.2307  -21.8493   13.1125 C.3       7 UNK        -0.1988 
     52 N         -49.5965  -23.6779   12.2046 N.am      7 UNK        -0.4454 
     53 C         -50.5777  -24.5859   12.0849 C.2       7 UNK         0.5027 
     54 O         -51.3919  -24.8395   12.9725 O.2       7 UNK        -0.5083 
     55 CA        -50.6287  -25.3809   10.7636 C.3       6 UNK         0.0844 
     56 C56       -51.2187  -24.5244    9.6149 C.3       14 UNK        -0.0967 
     57 S57       -53.0202  -24.2872    9.7977 S.3       14 UNK        -0.2604 
     58 C58       -53.6952  -25.3079    8.4538 C.3       14 UNK         0.0134 
     59 N         -49.3190  -25.9492   10.4265 N.am      6 UNK        -0.4116 
     60 C         -48.6139  -26.7724   11.2197 C.2       5 UNK         0.5034 
     61 O         -49.0219  -27.2229   12.2883 O.2       5 UNK        -0.5045 
     62 CA        -47.1765  -27.0901   10.7866 C.3       5 UNK         0.0224 
     63 CB        -47.1474  -28.2466    9.7753 C.3       5 UNK        -0.1978 
     64 N         -46.5066  -25.9073   10.2399 N.am      5 UNK        -0.4737 
     65 C         -46.1400  -24.8490   10.9789 C.2       4 UNK         0.5027 
     66 O         -46.2719  -24.7921   12.2012 O.2       4 UNK        -0.5211 
     67 CA        -45.5759  -23.6333   10.2231 C.3       4 UNK         0.0297 
     68 CB        -44.0710  -23.8083    9.9662 C.3       4 UNK        -0.1993 
     69 N         -46.2672  -23.3850    8.9549 N.am      4 UNK        -0.4486 
     70 C         -47.5564  -23.0300    8.8513 C.2       3 UNK         0.4961 
     71 O         -48.2794  -22.8015    9.8198 O.2       3 UNK        -0.5105 
     72 CA        -48.1572  -22.9761    7.4334 C.3       3 UNK         0.0299 
     73 CB        -48.0105  -21.5659    6.8416 C.3       3 UNK        -0.1972 
     74 N         -47.5768  -23.9618    6.5118 N.am      3 UNK        -0.4305 
     75 C         -47.6182  -25.2897    6.6929 C.2       2 UNK         0.5006 
     76 O         -48.2081  -25.8210    7.6373 O.2       2 UNK        -0.5106 
     77 CA        -46.8406  -26.1524    5.6793 C.3       2 UNK         0.0296 
     78 CB        -45.3974  -25.6445    5.4944 C.3       2 UNK        -0.2002 
     79 N         -46.7694  -27.5410    6.1449 N.am      2 UNK        -0.4032 
     80 C         -47.5411  -28.5871    5.8147 C.2       1 UNK         0.5000 
     81 O         -47.4260  -29.6539    6.4182 O.2       1 UNK        -0.5238 
     82 H82       -46.6762  -27.8210    1.1474 H         1 UNK         0.0889 
     83 H83       -46.6509  -29.5220    0.6794 H         1 UNK         0.0889 
     84 H84       -45.2878  -28.8279    1.5613 H         1 UNK         0.0889 
     85 H85       -47.9924  -27.4497    2.8822 H         1 UNK         0.3028 
     86 H86       -49.0769  -27.5296    4.7751 H         1 UNK         0.0864 
     87 H87       -49.8518  -29.8730    3.5784 H         1 UNK         0.0720 
     88 H88       -49.2803  -30.5415    5.0629 H         1 UNK         0.0720 
     89 H89       -49.9489  -28.7473    7.3920 H         1 UNK         0.0814 
     90 H90       -50.7041  -30.3262    7.3615 H         1 UNK         0.0814 
     91 H91       -51.7382  -26.7109    7.1867 H         1 UNK         0.1469 
     92 H92       -54.8838  -27.1680   10.0634 H         1 UNK         0.1381 
     93 H93       -52.5192  -30.5576    8.9054 H         1 UNK         0.1206 
     94 H94       -54.8783  -30.7615    9.9841 H         1 UNK         0.0813 
     95 H95       -55.5229  -29.3605   10.8099 H         1 UNK         0.0813 
     96 H96       -54.4449  -32.4048   12.8305 H         1 UNK         0.0638 
     97 H97       -55.7628  -31.4125   12.2994 H         1 UNK         0.0638 
     98 H98       -55.9745  -31.6046   14.6355 H         1 UNK         0.0568 
     99 H99       -52.7821  -30.6495   16.7843 H         1 UNK         0.3450 
    100 H100      -53.8048  -29.4241   16.0773 H         1 UNK         0.3450 
    101 H101      -55.2577  -28.9287   13.7345 H         1 UNK         0.2987 
    102 H102      -57.8229  -27.5630   14.8488 H         1 UNK         0.0766 
    103 H103      -57.2108  -25.9905   16.7126 H         1 UNK         0.0798 
    104 H104      -56.0076  -27.1437   17.2835 H         1 UNK         0.0798 
    105 H105      -57.7186  -27.5570   17.3198 H         1 UNK         0.0798 
    106 H106      -54.9304  -26.7950   14.9808 H         1 UNK         0.3198 
    107 H107      -54.5124  -25.6128   12.2228 H         1 UNK         0.0843 
    108 H108      -56.2084  -23.2474   13.1854 H         1 UNK         0.0831 
    109 H109      -56.2434  -23.9824   11.5885 H         1 UNK         0.0831 
    110 H110      -54.8125  -23.1154   12.1158 H         1 UNK         0.0831 
    111 H111      -53.0525  -25.0316   13.7698 H         1 UNK         0.3133 
    112 H112      -52.4277  -23.3952   16.0702 H         1 UNK         0.0566 
    113 H113      -52.4924  -24.4477   18.3514 H         1 UNK         0.0814 
    114 H114      -53.9683  -23.5671   17.9967 H         1 UNK         0.0814 
    115 H115      -53.9567  -25.3221   17.9024 H         1 UNK         0.0814 
    116 H116      -51.0694  -25.0703   15.6519 H         1 UNK         0.3091 
    117 H117      -50.9040  -28.3737   16.0972 H         1 UNK         0.0702 
    118 H118      -52.3870  -28.9184   14.1656 H         1 UNK         0.0785 
    119 H119      -50.7007  -29.0511   13.7087 H         1 UNK         0.0785 
    120 H120      -51.6468  -27.6501   13.2085 H         1 UNK         0.0785 
    121 H121      -49.6121  -26.7077   14.0973 H         1 UNK         0.2998 
    122 H122      -47.3856  -25.1087   16.3812 H         1 UNK         0.0697 
    123 H123      -46.9068  -27.1636   14.1566 H         1 UNK         0.0825 
    124 H124      -46.2977  -27.2802   15.8018 H         1 UNK         0.0825 
    125 H125      -45.7322  -25.9915   14.7502 H         1 UNK         0.0825 
    126 H126      -47.6351  -24.8067   13.5844 H         1 UNK         0.3029 
    127 H127      -50.2578  -22.3237   13.6223 H         1 UNK         0.0897 
    128 H128      -48.5020  -21.1938   12.2846 H         1 UNK         0.0792 
    129 H129      -48.0488  -21.2162   13.9820 H         1 UNK         0.0792 
    130 H130      -47.2878  -22.3337   12.8581 H         1 UNK         0.0792 
    131 H131      -49.0017  -23.4962   11.3984 H         1 UNK         0.3086 
    132 H132      -51.2903  -26.2359   10.9217 H         1 UNK         0.0583 
    133 H133      -50.7501  -23.5407    9.5683 H         1 UNK         0.1020 
    134 H134      -51.0096  -24.9858    8.6502 H         1 UNK         0.1020 
    135 H135      -54.7798  -25.1913    8.4367 H         1 UNK         0.0694 
    136 H136      -53.3346  -24.9265    7.4971 H         1 UNK         0.0694 
    137 H137      -48.9074  -25.6715    9.5421 H         1 UNK         0.2989 
    138 H138      -46.6249  -27.4074   11.6746 H         1 UNK         0.1055 
    139 H139      -47.5451  -29.1581   10.2234 H         1 UNK         0.0806 
    140 H140      -46.1319  -28.4662    9.4459 H         1 UNK         0.0806 
    141 H141      -47.7530  -28.0370    8.8945 H         1 UNK         0.0806 
    142 H142      -46.4279  -25.8495    9.2354 H         1 UNK         0.3061 
    143 H143      -45.7143  -22.7556   10.8582 H         1 UNK         0.0734 
    144 H144      -43.6409  -22.9195    9.5041 H         1 UNK         0.0832 
    145 H145      -43.5346  -23.9760   10.9013 H         1 UNK         0.0832 
    146 H146      -43.8650  -24.6596    9.3162 H         1 UNK         0.0832 
    147 H147      -45.7403  -23.5322    8.1069 H         1 UNK         0.3156 
    148 H148      -49.2227  -23.1973    7.5216 H         1 UNK         0.0589 
    149 H149      -46.9644  -21.2918    6.6994 H         1 UNK         0.0808 
    150 H150      -48.5141  -21.4847    5.8781 H         1 UNK         0.0808 
    151 H151      -48.4560  -20.8190    7.5006 H         1 UNK         0.0808 
    152 H152      -47.0886  -23.5945    5.7074 H         1 UNK         0.3098 
    153 H153      -47.3490  -26.0755    4.7195 H         1 UNK         0.0720 
    154 H154      -44.8337  -26.3018    4.8315 H         1 UNK         0.0791 
    155 H155      -44.8588  -25.5920    6.4416 H         1 UNK         0.0791 
    156 H156      -45.3708  -24.6518    5.0439 H         1 UNK         0.0791 
    157 H157      -46.1307  -27.6883    6.9109 H         1 UNK         0.3028 
@<TRIPOS>BOND
     1    1    2 1    
     2    1   82 1    
     3    1   83 1    
     4    1   84 1    
     5    2    3 2    
     6    2    4 am   BACKBONE|DICT|INTERRES
     7    4    5 1    
     8    4   85 1    
     9    5    6 1    
    10    5   80 1    
    11    5   86 1    
    12    6    7 1    
    13    6   87 1    
    14    6   88 1    
    15    7    8 1    
    16    8    9 1    
    17    8   89 1    
    18    8   90 1    
    19    9   10 ar   
    20    9   14 ar   
    21   10   11 ar   
    22   10   91 1    
    23   11   12 ar   
    24   11   58 1    
    25   12   13 ar   
    26   12   92 1    
    27   13   14 ar   
    28   13   15 1    
    29   14   93 1    
    30   15   16 1    
    31   15   94 1    
    32   15   95 1    
    33   16   17 1    
    34   17   18 1    
    35   17   96 1    
    36   17   97 1    
    37   18   19 1    
    38   18   22 1    
    39   18   98 1    
    40   19   20 am   BACKBONE|DICT|INTERRES
    41   19   21 2    
    42   20   99 1    
    43   20  100 1    
    44   22   23 am   BACKBONE|DICT|INTERRES
    45   22  101 1    
    46   23   24 2    
    47   23   25 1    
    48   25   26 1    
    49   25   27 1    
    50   25  102 1    
    51   26  103 1    
    52   26  104 1    
    53   26  105 1    
    54   27   28 am   BACKBONE|DICT|INTERRES
    55   27  106 1    
    56   28   29 2    
    57   28   30 1    
    58   30   31 1    
    59   30   32 1    
    60   30  107 1    
    61   31  108 1    
    62   31  109 1    
    63   31  110 1    
    64   32   33 am   BACKBONE|DICT|INTERRES
    65   32  111 1    
    66   33   34 2    
    67   33   35 1    
    68   35   36 1    
    69   35   37 1    
    70   35  112 1    
    71   36  113 1    
    72   36  114 1    
    73   36  115 1    
    74   37   38 am   BACKBONE|DICT|INTERRES
    75   37  116 1    
    76   38   39 2    
    77   38   40 1    
    78   40   41 1    
    79   40   42 1    
    80   40  117 1    
    81   41  118 1    
    82   41  119 1    
    83   41  120 1    
    84   42   43 am   BACKBONE|DICT|INTERRES
    85   42  121 1    
    86   43   44 2    
    87   43   45 1    
    88   45   46 1    
    89   45   47 1    
    90   45  122 1    
    91   46  123 1    
    92   46  124 1    
    93   46  125 1    
    94   47   48 am   BACKBONE|DICT|INTERRES
    95   47  126 1    
    96   48   49 2    
    97   48   50 1    
    98   50   51 1    
    99   50   52 1    
   100   50  127 1    
   101   51  128 1    
   102   51  129 1    
   103   51  130 1    
   104   52   53 am   BACKBONE|DICT|INTERRES
   105   52  131 1    
   106   53   54 2    
   107   53   55 1    
   108   55   56 1    
   109   55   59 1    
   110   55  132 1    
   111   56   57 1    
   112   56  133 1    
   113   56  134 1    
   114   57   58 1    
   115   58  135 1    
   116   58  136 1    
   117   59   60 am   BACKBONE|DICT|INTERRES
   118   59  137 1    
   119   60   61 2    
   120   60   62 1    
   121   62   63 1    
   122   62   64 1    
   123   62  138 1    
   124   63  139 1    
   125   63  140 1    
   126   63  141 1    
   127   64   65 am   BACKBONE|DICT|INTERRES
   128   64  142 1    
   129   65   66 2    
   130   65   67 1    
   131   67   68 1    
   132   67   69 1    
   133   67  143 1    
   134   68  144 1    
   135   68  145 1    
   136   68  146 1    
   137   69   70 am   BACKBONE|DICT|INTERRES
   138   69  147 1    
   139   70   71 2    
   140   70   72 1    
   141   72   73 1    
   142   72   74 1    
   143   72  148 1    
   144   73  149 1    
   145   73  150 1    
   146   73  151 1    
   147   74   75 am   BACKBONE|DICT|INTERRES
   148   74  152 1    
   149   75   76 2    
   150   75   77 1    
   151   77   78 1    
   152   77   79 1    
   153   77  153 1    
   154   78  154 1    
   155   78  155 1    
   156   78  156 1    
   157   79   80 am   BACKBONE|DICT|INTERRES
   158   79  157 1    
   159   80   81 2    
@<TRIPOS>SUBSTRUCTURE
     1 UNK         1 GROUP             0       ****    0 ROOT    
