@<TRIPOS>MOLECULE
3R207
157   159    1
SMALL
USER_CHARGES


@<TRIPOS>ATOM
      1 CA        -50.5871  -28.2223    1.1977 C.3       0 UNK        -0.1975 
      2 C         -49.5028  -27.6078    2.0702 C.2       0 UNK         0.4852 
      3 O         -48.4383  -27.2511    1.5641 O.2       0 UNK        -0.5216 
      4 N         -49.7633  -27.4850    3.3788 N.am      1 UNK        -0.4461 
      5 CA        -48.8325  -26.9333    4.3726 C.3       1 UNK         0.0864 
      6 C6        -49.5726  -26.4382    5.6430 C.3       14 UNK        -0.0898 
      7 S7        -50.5242  -27.7396    6.5035 S.3       14 UNK        -0.2598 
      8 C8        -52.2397  -27.2588    6.1329 C.3       14 UNK         0.0286 
      9 C9        -52.7954  -26.2824    7.1595 C.ar      14 UNK        -0.0844 
     10 C10       -52.9025  -24.9183    6.8703 C.ar      14 UNK        -0.0881 
     11 C11       -53.4859  -24.0439    7.7935 C.ar      14 UNK        -0.0643 
     12 C12       -53.9642  -24.5465    9.0051 C.ar      14 UNK        -0.0930 
     13 C13       -53.8237  -25.8974    9.3314 C.ar      14 UNK        -0.0827 
     14 C14       -53.2454  -26.7621    8.3927 C.ar      14 UNK        -0.1249 
     15 C15       -54.3369  -26.3580   10.6962 C.3       14 UNK         0.0141 
     16 S16       -53.9347  -28.0717   11.1731 S.3       14 UNK        -0.2313 
     17 C17       -52.1859  -27.9262   11.6795 C.3       14 UNK        -0.0915 
     18 CA        -51.7673  -29.1005   12.6062 C.3       13 UNK         0.0968 
     19 C         -50.2382  -29.1414   12.8792 C.2       13 UNK         0.5732 
     20 N         -49.7905  -29.4233   14.0978 N.am      13 UNK        -0.7310 
     21 O         -49.4390  -28.9501   11.9657 O.2       13 UNK        -0.5035 
     22 N         -52.5704  -29.1229   13.8401 N.am      13 UNK        -0.4233 
     23 C         -53.3777  -30.1223   14.2162 C.2       13 UNK         0.4989 
     24 O         -53.5048  -31.1743   13.5861 O.2       13 UNK        -0.4996 
     25 CA        -54.2084  -29.9024   15.4968 C.3       12 UNK         0.0216 
     26 CB        -54.7235  -31.2204   16.1154 C.3       12 UNK        -0.1964 
     27 N         -53.5395  -29.0787   16.5098 N.am      12 UNK        -0.4276 
     28 C         -52.3941  -29.3472   17.1576 C.2       12 UNK         0.5020 
     29 O         -51.7126  -30.3520   16.9483 O.2       12 UNK        -0.5489 
     30 CA        -51.9164  -28.3180   18.2019 C.3       11 UNK         0.0294 
     31 CB        -50.3900  -28.1213   18.1468 C.3       11 UNK        -0.2019 
     32 N         -52.5645  -27.0197   18.0076 N.am      11 UNK        -0.4493 
     33 C         -53.5720  -26.5272   18.7413 C.2       11 UNK         0.4932 
     34 O         -54.0347  -27.0918   19.7323 O.2       11 UNK        -0.5029 
     35 CA        -54.1870  -25.1865   18.2893 C.3       10 UNK         0.0280 
     36 CB        -53.6769  -24.0395   19.1766 C.3       10 UNK        -0.1976 
     37 N         -53.9263  -24.8556   16.8841 N.am      10 UNK        -0.4242 
     38 C         -54.4062  -25.5296   15.8281 C.2       10 UNK         0.5072 
     39 O         -55.1742  -26.4876   15.9194 O.2       10 UNK        -0.5224 
     40 CA        -53.8634  -25.1198   14.4455 C.3       9 UNK         0.0343 
     41 CB        -54.6996  -23.9783   13.8466 C.3       9 UNK        -0.2003 
     42 N         -52.4458  -24.7337   14.4716 N.am      9 UNK        -0.4272 
     43 C         -51.4521  -25.5422   14.8733 C.2       9 UNK         0.4988 
     44 O         -51.6442  -26.7105   15.2129 O.2       9 UNK        -0.5108 
     45 CA        -50.0298  -24.9648   14.9572 C.3       8 UNK         0.0248 
     46 CB        -48.9798  -25.9933   14.5169 C.3       8 UNK        -0.2001 
     47 N         -49.8740  -23.7672   14.1362 N.am      8 UNK        -0.4140 
     48 C         -49.7323  -22.5174   14.5974 C.2       8 UNK         0.5028 
     49 O         -49.7388  -22.2245   15.7935 O.2       8 UNK        -0.5428 
     50 CA        -49.5579  -21.3940   13.5562 C.3       7 UNK         0.0264 
     51 CB        -48.0785  -20.9897   13.4492 C.3       7 UNK        -0.1988 
     52 N         -50.0517  -21.7460   12.2222 N.am      7 UNK        -0.4454 
     53 C         -51.3395  -21.9564   11.9156 C.2       7 UNK         0.5027 
     54 O         -52.2624  -21.8098   12.7177 O.2       7 UNK        -0.5083 
     55 CA        -51.6464  -22.4646   10.4936 C.3       6 UNK         0.0844 
     56 C56       -52.1008  -21.3036    9.5656 C.3       14 UNK        -0.0967 
     57 S57       -52.0569  -21.6691    7.7690 S.3       14 UNK        -0.2604 
     58 C58       -53.6171  -22.5607    7.4771 C.3       14 UNK         0.0134 
     59 N         -50.5780  -23.2740    9.9008 N.am      6 UNK        -0.4116 
     60 C         -50.0861  -24.4239   10.3788 C.2       5 UNK         0.5034 
     61 O         -50.3626  -24.8784   11.4901 O.2       5 UNK        -0.5045 
     62 CA        -49.1704  -25.2043    9.4201 C.3       5 UNK         0.0224 
     63 CB        -48.3069  -24.2873    8.5204 C.3       5 UNK        -0.1978 
     64 N         -48.3316  -26.2048   10.0867 N.am      5 UNK        -0.4737 
     65 C         -47.2980  -26.0010   10.9174 C.2       4 UNK         0.5027 
     66 O         -46.9716  -24.8964   11.3537 O.2       4 UNK        -0.5211 
     67 CA        -46.4377  -27.2346   11.2729 C.3       4 UNK         0.0297 
     68 CB        -46.4090  -27.5194   12.7825 C.3       4 UNK        -0.1993 
     69 N         -46.8500  -28.4459   10.5500 N.am      4 UNK        -0.4486 
     70 C         -46.4674  -28.7303    9.2969 C.2       3 UNK         0.4961 
     71 O         -45.6534  -28.0480    8.6689 O.2       3 UNK        -0.5105 
     72 CA        -47.1047  -29.9538    8.6155 C.3       3 UNK         0.0299 
     73 CB        -48.5923  -30.1502    8.9830 C.3       3 UNK        -0.1972 
     74 N         -46.9541  -29.7881    7.1720 N.am      3 UNK        -0.4305 
     75 C         -47.0728  -30.7322    6.2343 C.2       2 UNK         0.5006 
     76 O         -47.3336  -31.9114    6.4809 O.2       2 UNK        -0.5106 
     77 CA        -46.8917  -30.2658    4.7751 C.3       2 UNK         0.0296 
     78 CB        -47.0582  -31.4107    3.7575 C.3       2 UNK        -0.2002 
     79 N         -47.8351  -29.1958    4.4401 N.am      2 UNK        -0.4032 
     80 C         -47.6758  -27.8956    4.7294 C.2       1 UNK         0.5000 
     81 O         -46.6704  -27.4486    5.2847 O.2       1 UNK        -0.5238 
     82 H82       -50.8892  -27.5175    0.4235 H         1 UNK         0.0889 
     83 H83       -51.4719  -28.4916    1.7742 H         1 UNK         0.0889 
     84 H84       -50.2122  -29.1225    0.7114 H         1 UNK         0.0889 
     85 H85       -50.6505  -27.8007    3.7435 H         1 UNK         0.3028 
     86 H86       -48.3587  -26.0580    3.9222 H         1 UNK         0.0864 
     87 H87       -48.8579  -26.0207    6.3515 H         1 UNK         0.0720 
     88 H88       -50.2353  -25.6115    5.3842 H         1 UNK         0.0720 
     89 H89       -52.8567  -28.1588    6.1290 H         1 UNK         0.0814 
     90 H90       -52.3096  -26.8460    5.1256 H         1 UNK         0.0814 
     91 H91       -52.5484  -24.5367    5.9225 H         1 UNK         0.1469 
     92 H92       -54.4374  -23.8756    9.7089 H         1 UNK         0.1381 
     93 H93       -53.1489  -27.8176    8.6019 H         1 UNK         0.1206 
     94 H94       -53.9526  -25.6847   11.4616 H         1 UNK         0.0813 
     95 H95       -55.4224  -26.2523   10.7073 H         1 UNK         0.0813 
     96 H96       -51.5763  -27.9012   10.7744 H         1 UNK         0.0638 
     97 H97       -52.0293  -26.9716   12.1838 H         1 UNK         0.0638 
     98 H98       -51.9473  -30.0173   12.0429 H         1 UNK         0.0568 
     99 H99       -50.4370  -29.6126   14.8487 H         1 UNK         0.3450 
    100 H100      -48.7990  -29.4743   14.2593 H         1 UNK         0.3450 
    101 H101      -52.4592  -28.3103   14.4393 H         1 UNK         0.2987 
    102 H102      -55.0815  -29.3291   15.1814 H         1 UNK         0.0766 
    103 H103      -53.9039  -31.8809   16.4003 H         1 UNK         0.0798 
    104 H104      -55.3278  -31.0329   17.0029 H         1 UNK         0.0798 
    105 H105      -55.3504  -31.7668   15.4096 H         1 UNK         0.0798 
    106 H106      -54.0015  -28.2002   16.7141 H         1 UNK         0.3198 
    107 H107      -52.1696  -28.7222   19.1841 H         1 UNK         0.0843 
    108 H108      -49.8658  -29.0517   18.3692 H         1 UNK         0.0831 
    109 H109      -50.0579  -27.3830   18.8766 H         1 UNK         0.0831 
    110 H110      -50.0615  -27.7913   17.1612 H         1 UNK         0.0831 
    111 H111      -52.2815  -26.5254   17.1693 H         1 UNK         0.3133 
    112 H112      -55.2686  -25.2642   18.4187 H         1 UNK         0.0566 
    113 H113      -54.1630  -23.0962   18.9264 H         1 UNK         0.0814 
    114 H114      -53.8845  -24.2381   20.2292 H         1 UNK         0.0814 
    115 H115      -52.5995  -23.9003   19.0784 H         1 UNK         0.0814 
    116 H116      -53.2982  -24.0843   16.7092 H         1 UNK         0.3091 
    117 H117      -53.9534  -25.9925   13.7961 H         1 UNK         0.0702 
    118 H118      -54.3690  -23.7273   12.8388 H         1 UNK         0.0785 
    119 H119      -54.6373  -23.0719   14.4501 H         1 UNK         0.0785 
    120 H120      -55.7521  -24.2577   13.7821 H         1 UNK         0.0785 
    121 H121      -52.2213  -23.7894   14.1874 H         1 UNK         0.2998 
    122 H122      -49.8490  -24.7320   16.0081 H         1 UNK         0.0697 
    123 H123      -49.1548  -26.3189   13.4910 H         1 UNK         0.0825 
    124 H124      -48.9978  -26.8786   15.1523 H         1 UNK         0.0825 
    125 H125      -47.9745  -25.5768   14.5717 H         1 UNK         0.0825 
    126 H126      -49.9008  -23.9297   13.1324 H         1 UNK         0.3029 
    127 H127      -50.1270  -20.5316   13.9104 H         1 UNK         0.0897 
    128 H128      -47.9449  -20.1421   12.7767 H         1 UNK         0.0792 
    129 H129      -47.6832  -20.6938   14.4222 H         1 UNK         0.0792 
    130 H130      -47.4613  -21.8118   13.0833 H         1 UNK         0.0792 
    131 H131      -49.3572  -21.9048   11.5060 H         1 UNK         0.3086 
    132 H132      -52.4893  -23.1396   10.6214 H         1 UNK         0.0583 
    133 H133      -53.1041  -20.9733    9.8412 H         1 UNK         0.1020 
    134 H134      -51.4577  -20.4329    9.7111 H         1 UNK         0.1020 
    135 H135      -54.4210  -22.1047    8.0569 H         1 UNK         0.0694 
    136 H136      -53.8954  -22.4414    6.4289 H         1 UNK         0.0694 
    137 H137      -50.3084  -22.9910    8.9696 H         1 UNK         0.2989 
    138 H138      -49.8425  -25.7703    8.7730 H         1 UNK         0.1055 
    139 H139      -47.7603  -23.5452    9.1038 H         1 UNK         0.0806 
    140 H140      -47.5710  -24.8624    7.9579 H         1 UNK         0.0806 
    141 H141      -48.9152  -23.7528    7.7898 H         1 UNK         0.0806 
    142 H142      -48.5476  -27.1657    9.8659 H         1 UNK         0.3061 
    143 H143      -45.4158  -26.9829   10.9811 H         1 UNK         0.0734 
    144 H144      -46.1213  -26.6297   13.3436 H         1 UNK         0.0832 
    145 H145      -47.3775  -27.8463   13.1537 H         1 UNK         0.0832 
    146 H146      -45.6839  -28.2974   13.0210 H         1 UNK         0.0832 
    147 H147      -47.5770  -29.0002   10.9923 H         1 UNK         0.3156 
    148 H148      -46.5386  -30.8352    8.9224 H         1 UNK         0.0589 
    149 H149      -49.1671  -29.2311    8.8638 H         1 UNK         0.0808 
    150 H150      -49.0656  -30.9139    8.3663 H         1 UNK         0.0808 
    151 H151      -48.6996  -30.4823   10.0149 H         1 UNK         0.0808 
    152 H152      -46.6764  -28.8528    6.8844 H         1 UNK         0.3098 
    153 H153      -45.8721  -29.8856    4.6814 H         1 UNK         0.0720 
    154 H154      -46.8854  -31.0632    2.7387 H         1 UNK         0.0791 
    155 H155      -48.0570  -31.8471    3.7986 H         1 UNK         0.0791 
    156 H156      -46.3432  -32.2117    3.9501 H         1 UNK         0.0791 
    157 H157      -48.7090  -29.4800    4.0229 H         1 UNK         0.3028 
@<TRIPOS>BOND
     1    1    2 1    
     2    1   82 1    
     3    1   83 1    
     4    1   84 1    
     5    2    3 2    
     6    2    4 am   BACKBONE|DICT|INTERRES
     7    4    5 1    
     8    4   85 1    
     9    5    6 1    
    10    5   80 1    
    11    5   86 1    
    12    6    7 1    
    13    6   87 1    
    14    6   88 1    
    15    7    8 1    
    16    8    9 1    
    17    8   89 1    
    18    8   90 1    
    19    9   10 ar   
    20    9   14 ar   
    21   10   11 ar   
    22   10   91 1    
    23   11   12 ar   
    24   11   58 1    
    25   12   13 ar   
    26   12   92 1    
    27   13   14 ar   
    28   13   15 1    
    29   14   93 1    
    30   15   16 1    
    31   15   94 1    
    32   15   95 1    
    33   16   17 1    
    34   17   18 1    
    35   17   96 1    
    36   17   97 1    
    37   18   19 1    
    38   18   22 1    
    39   18   98 1    
    40   19   20 am   BACKBONE|DICT|INTERRES
    41   19   21 2    
    42   20   99 1    
    43   20  100 1    
    44   22   23 am   BACKBONE|DICT|INTERRES
    45   22  101 1    
    46   23   24 2    
    47   23   25 1    
    48   25   26 1    
    49   25   27 1    
    50   25  102 1    
    51   26  103 1    
    52   26  104 1    
    53   26  105 1    
    54   27   28 am   BACKBONE|DICT|INTERRES
    55   27  106 1    
    56   28   29 2    
    57   28   30 1    
    58   30   31 1    
    59   30   32 1    
    60   30  107 1    
    61   31  108 1    
    62   31  109 1    
    63   31  110 1    
    64   32   33 am   BACKBONE|DICT|INTERRES
    65   32  111 1    
    66   33   34 2    
    67   33   35 1    
    68   35   36 1    
    69   35   37 1    
    70   35  112 1    
    71   36  113 1    
    72   36  114 1    
    73   36  115 1    
    74   37   38 am   BACKBONE|DICT|INTERRES
    75   37  116 1    
    76   38   39 2    
    77   38   40 1    
    78   40   41 1    
    79   40   42 1    
    80   40  117 1    
    81   41  118 1    
    82   41  119 1    
    83   41  120 1    
    84   42   43 am   BACKBONE|DICT|INTERRES
    85   42  121 1    
    86   43   44 2    
    87   43   45 1    
    88   45   46 1    
    89   45   47 1    
    90   45  122 1    
    91   46  123 1    
    92   46  124 1    
    93   46  125 1    
    94   47   48 am   BACKBONE|DICT|INTERRES
    95   47  126 1    
    96   48   49 2    
    97   48   50 1    
    98   50   51 1    
    99   50   52 1    
   100   50  127 1    
   101   51  128 1    
   102   51  129 1    
   103   51  130 1    
   104   52   53 am   BACKBONE|DICT|INTERRES
   105   52  131 1    
   106   53   54 2    
   107   53   55 1    
   108   55   56 1    
   109   55   59 1    
   110   55  132 1    
   111   56   57 1    
   112   56  133 1    
   113   56  134 1    
   114   57   58 1    
   115   58  135 1    
   116   58  136 1    
   117   59   60 am   BACKBONE|DICT|INTERRES
   118   59  137 1    
   119   60   61 2    
   120   60   62 1    
   121   62   63 1    
   122   62   64 1    
   123   62  138 1    
   124   63  139 1    
   125   63  140 1    
   126   63  141 1    
   127   64   65 am   BACKBONE|DICT|INTERRES
   128   64  142 1    
   129   65   66 2    
   130   65   67 1    
   131   67   68 1    
   132   67   69 1    
   133   67  143 1    
   134   68  144 1    
   135   68  145 1    
   136   68  146 1    
   137   69   70 am   BACKBONE|DICT|INTERRES
   138   69  147 1    
   139   70   71 2    
   140   70   72 1    
   141   72   73 1    
   142   72   74 1    
   143   72  148 1    
   144   73  149 1    
   145   73  150 1    
   146   73  151 1    
   147   74   75 am   BACKBONE|DICT|INTERRES
   148   74  152 1    
   149   75   76 2    
   150   75   77 1    
   151   77   78 1    
   152   77   79 1    
   153   77  153 1    
   154   78  154 1    
   155   78  155 1    
   156   78  156 1    
   157   79   80 am   BACKBONE|DICT|INTERRES
   158   79  157 1    
   159   80   81 2    
@<TRIPOS>SUBSTRUCTURE
     1 UNK         1 GROUP             0       ****    0 ROOT    
