@<TRIPOS>MOLECULE
3R207
157   159    1
SMALL
USER_CHARGES


@<TRIPOS>ATOM
      1 CA        -48.2421  -32.5830    2.4211 C.3       0 UNK        -0.1975 
      2 C         -48.6609  -31.7393    3.6162 C.2       0 UNK         0.4852 
      3 O         -49.8201  -31.7945    4.0285 O.2       0 UNK        -0.5216 
      4 N         -47.7291  -30.9589    4.1725 N.am      1 UNK        -0.4461 
      5 CA        -47.9385  -30.0479    5.2954 C.3       1 UNK         0.0864 
      6 C6        -48.0143  -30.7958    6.6561 C.3       14 UNK        -0.0898 
      7 S7        -48.9558  -29.8639    7.9065 S.3       14 UNK        -0.2598 
      8 C8        -50.6606  -30.3151    7.4571 C.3       14 UNK         0.0286 
      9 C9        -51.6616  -29.3121    8.0102 C.ar      14 UNK        -0.0844 
     10 C10       -51.6853  -28.0065    7.5127 C.ar      14 UNK        -0.0881 
     11 C11       -52.6055  -27.0715    7.9973 C.ar      14 UNK        -0.0643 
     12 C12       -53.5313  -27.4651    8.9686 C.ar      14 UNK        -0.0930 
     13 C13       -53.5293  -28.7740    9.4653 C.ar      14 UNK        -0.0827 
     14 C14       -52.5825  -29.6885    8.9914 C.ar      14 UNK        -0.1249 
     15 C15       -54.5675  -29.2193   10.4864 C.3       14 UNK         0.0141 
     16 S16       -54.2505  -28.5118   12.1308 S.3       14 UNK        -0.2313 
     17 C17       -55.3489  -27.0464   12.1273 C.3       14 UNK        -0.0915 
     18 CA        -56.5524  -27.1742   13.0999 C.3       13 UNK         0.0968 
     19 C         -57.5550  -28.2768   12.6400 C.2       13 UNK         0.5732 
     20 N         -57.7204  -29.3827   13.3575 N.am      13 UNK        -0.7310 
     21 O         -58.2017  -28.1178   11.6072 O.2       13 UNK        -0.5035 
     22 N         -56.0922  -27.2701   14.4907 N.am      13 UNK        -0.4233 
     23 C         -56.8621  -27.2006   15.5824 C.2       13 UNK         0.4989 
     24 O         -58.0599  -26.9104   15.5554 O.2       13 UNK        -0.4996 
     25 CA        -56.1762  -27.5314   16.9265 C.3       12 UNK         0.0216 
     26 CB        -57.1880  -27.8890   18.0352 C.3       12 UNK        -0.1964 
     27 N         -55.1487  -28.5799   16.8252 N.am      12 UNK        -0.4276 
     28 C         -55.2731  -29.8099   16.3034 C.2       12 UNK         0.5020 
     29 O         -56.3218  -30.2430   15.8205 O.2       12 UNK        -0.5489 
     30 CA        -54.0021  -30.6872   16.2912 C.3       11 UNK         0.0294 
     31 CB        -54.1950  -31.9917   15.4950 C.3       11 UNK        -0.2019 
     32 N         -52.8428  -29.9738   15.7466 N.am      11 UNK        -0.4493 
     33 C         -52.0834  -29.0943   16.4125 C.2       11 UNK         0.4932 
     34 O         -52.2651  -28.8073   17.5970 O.2       11 UNK        -0.5029 
     35 CA        -50.9709  -28.3691   15.6282 C.3       10 UNK         0.0280 
     36 CB        -50.7444  -28.9086   14.1976 C.3       10 UNK        -0.1976 
     37 N         -51.1892  -26.9187   15.5848 N.am      10 UNK        -0.4242 
     38 C         -52.2949  -26.2706   15.1884 C.2       10 UNK         0.5072 
     39 O         -53.3346  -26.8369   14.8580 O.2       10 UNK        -0.5224 
     40 CA        -52.2671  -24.7328   15.1359 C.3       9 UNK         0.0343 
     41 CB        -52.9956  -24.1228   16.3496 C.3       9 UNK        -0.2003 
     42 N         -50.9403  -24.1341   14.9376 N.am      9 UNK        -0.4272 
     43 C         -49.8946  -24.0972   15.7767 C.2       9 UNK         0.4988 
     44 O         -49.9051  -24.6164   16.8931 O.2       9 UNK        -0.5108 
     45 CA        -48.5968  -23.4209   15.2914 C.3       8 UNK         0.0248 
     46 CB        -47.4448  -24.4400   15.2609 C.3       8 UNK        -0.2001 
     47 N         -48.7073  -22.7866   13.9739 N.am      8 UNK        -0.4140 
     48 C         -49.3517  -21.6382   13.7245 C.2       8 UNK         0.5028 
     49 O         -49.8775  -20.9455   14.5965 O.2       8 UNK        -0.5428 
     50 CA        -49.4634  -21.2066   12.2521 C.3       7 UNK         0.0264 
     51 CB        -48.2072  -20.4351   11.8178 C.3       7 UNK        -0.1988 
     52 N         -49.6964  -22.3223   11.3287 N.am      7 UNK        -0.4454 
     53 C         -50.7797  -23.1168   11.3290 C.2       7 UNK         0.5027 
     54 O         -51.7134  -23.0010   12.1230 O.2       7 UNK        -0.5083 
     55 CA        -50.8024  -24.2520   10.2830 C.3       6 UNK         0.0844 
     56 C56       -51.1624  -23.6787    8.8868 C.3       14 UNK        -0.0967 
     57 S57       -50.9927  -24.8552    7.5040 S.3       14 UNK        -0.2604 
     58 C58       -52.6288  -25.6568    7.4306 C.3       14 UNK         0.0134 
     59 N         -49.5459  -25.0073   10.3113 N.am      6 UNK        -0.4116 
     60 C         -49.1058  -25.7087   11.3681 C.2       5 UNK         0.5034 
     61 O         -49.7455  -25.8688   12.4070 O.2       5 UNK        -0.5045 
     62 CA        -47.6827  -26.2781   11.2786 C.3       5 UNK         0.0224 
     63 CB        -47.6819  -27.6528   10.5949 C.3       5 UNK        -0.1978 
     64 N         -46.7718  -25.3658   10.5819 N.am      5 UNK        -0.4737 
     65 C         -46.3392  -24.2069   11.1011 C.2       4 UNK         0.5027 
     66 O         -46.6364  -23.8138   12.2270 O.2       4 UNK        -0.5211 
     67 CA        -45.4643  -23.3133   10.2064 C.3       4 UNK         0.0297 
     68 CB        -43.9878  -23.7243   10.3155 C.3       4 UNK        -0.1993 
     69 N         -45.8765  -23.3336    8.8028 N.am      4 UNK        -0.4486 
     70 C         -47.0658  -22.9146    8.3474 C.2       3 UNK         0.4961 
     71 O         -47.9285  -22.3975    9.0571 O.2       3 UNK        -0.5105 
     72 CA        -47.3588  -23.1620    6.8571 C.3       3 UNK         0.0299 
     73 CB        -46.9482  -21.9413    6.0193 C.3       3 UNK        -0.1972 
     74 N         -46.7111  -24.3682    6.3234 N.am      3 UNK        -0.4305 
     75 C         -46.9444  -25.6120    6.7644 C.2       2 UNK         0.5006 
     76 O         -47.7140  -25.8816    7.6888 O.2       2 UNK        -0.5106 
     77 CA        -46.1436  -26.7400    6.1118 C.3       2 UNK         0.0296 
     78 CB        -44.8644  -27.0325    6.9186 C.3       2 UNK        -0.2002 
     79 N         -46.9961  -27.9224    6.0648 N.am      2 UNK        -0.4032 
     80 C         -46.8412  -28.9675    5.2467 C.2       1 UNK         0.5000 
     81 O         -45.8928  -29.0914    4.4635 O.2       1 UNK        -0.5238 
     82 H82       -47.1917  -32.4383    2.1685 H         1 UNK         0.0889 
     83 H83       -48.8402  -32.3209    1.5487 H         1 UNK         0.0889 
     84 H84       -48.3966  -33.6400    2.6360 H         1 UNK         0.0889 
     85 H85       -46.7993  -30.8921    3.7740 H         1 UNK         0.3028 
     86 H86       -48.8833  -29.5322    5.1102 H         1 UNK         0.0864 
     87 H87       -48.4988  -31.7665    6.5395 H         1 UNK         0.0720 
     88 H88       -47.0172  -31.0118    7.0446 H         1 UNK         0.0720 
     89 H89       -50.7654  -30.3523    6.3719 H         1 UNK         0.0814 
     90 H90       -50.8706  -31.3223    7.8203 H         1 UNK         0.0814 
     91 H91       -50.9775  -27.7135    6.7494 H         1 UNK         0.1469 
     92 H92       -54.2610  -26.7552    9.3297 H         1 UNK         0.1381 
     93 H93       -52.5751  -30.7007    9.3723 H         1 UNK         0.1206 
     94 H94       -55.5686  -28.9575   10.1410 H         1 UNK         0.0813 
     95 H95       -54.5626  -30.3062   10.5804 H         1 UNK         0.0813 
     96 H96       -55.7034  -26.8387   11.1174 H         1 UNK         0.0638 
     97 H97       -54.7440  -26.1818   12.4051 H         1 UNK         0.0638 
     98 H98       -57.1092  -26.2378   13.0363 H         1 UNK         0.0568 
     99 H99       -58.3765  -30.0783   13.0426 H         1 UNK         0.3450 
    100 H100      -57.1921  -29.5396   14.2110 H         1 UNK         0.3450 
    101 H101      -55.0939  -27.4300   14.6082 H         1 UNK         0.2987 
    102 H102      -55.6551  -26.6221   17.2296 H         1 UNK         0.0766 
    103 H103      -57.8883  -27.0709   18.2087 H         1 UNK         0.0798 
    104 H104      -56.6857  -28.0884   18.9817 H         1 UNK         0.0798 
    105 H105      -57.7741  -28.7710   17.7742 H         1 UNK         0.0798 
    106 H106      -54.2241  -28.3273   17.1598 H         1 UNK         0.3198 
    107 H107      -53.7940  -30.9590   17.3284 H         1 UNK         0.0843 
    108 H108      -55.0134  -32.5840   15.9064 H         1 UNK         0.0831 
    109 H109      -53.3006  -32.6141   15.5276 H         1 UNK         0.0831 
    110 H110      -54.4301  -31.7935   14.4483 H         1 UNK         0.0831 
    111 H111      -52.6710  -30.0880   14.7579 H         1 UNK         0.3133 
    112 H112      -50.0498  -28.5266   16.1908 H         1 UNK         0.0566 
    113 H113      -49.8906  -28.4175   13.7300 H         1 UNK         0.0814 
    114 H114      -50.5315  -29.9783   14.2016 H         1 UNK         0.0814 
    115 H115      -51.6056  -28.7364   13.5515 H         1 UNK         0.0814 
    116 H116      -50.4352  -26.3426   15.9403 H         1 UNK         0.3091 
    117 H117      -52.8353  -24.4572   14.2461 H         1 UNK         0.0702 
    118 H118      -52.5146  -24.3876   17.2914 H         1 UNK         0.0785 
    119 H119      -54.0248  -24.4803   16.4021 H         1 UNK         0.0785 
    120 H120      -53.0330  -23.0354   16.2837 H         1 UNK         0.0785 
    121 H121      -50.8091  -23.7270   14.0193 H         1 UNK         0.2998 
    122 H122      -48.3467  -22.6485   16.0215 H         1 UNK         0.0697 
    123 H123      -47.6386  -25.2416   14.5472 H         1 UNK         0.0825 
    124 H124      -47.2968  -24.9007   16.2385 H         1 UNK         0.0825 
    125 H125      -46.5029  -23.9657   14.9846 H         1 UNK         0.0825 
    126 H126      -48.2256  -23.2520   13.2087 H         1 UNK         0.3029 
    127 H127      -50.3201  -20.5341   12.1731 H         1 UNK         0.0897 
    128 H128      -48.3042  -20.0598   10.7988 H         1 UNK         0.0792 
    129 H129      -48.0332  -19.5749   12.4657 H         1 UNK         0.0792 
    130 H130      -47.3156  -21.0614   11.8595 H         1 UNK         0.0792 
    131 H131      -48.9924  -22.4646   10.6063 H         1 UNK         0.3086 
    132 H132      -51.5945  -24.9485   10.5673 H         1 UNK         0.0583 
    133 H133      -52.1773  -23.2771    8.8946 H         1 UNK         0.1020 
    134 H134      -50.5198  -22.8304    8.6442 H         1 UNK         0.1020 
    135 H135      -53.3735  -25.0423    7.9379 H         1 UNK         0.0694 
    136 H136      -52.9393  -25.7108    6.3864 H         1 UNK         0.0694 
    137 H137      -48.9722  -24.9664    9.4783 H         1 UNK         0.2989 
    138 H138      -47.3159  -26.4098   12.2990 H         1 UNK         0.1055 
    139 H139      -48.3061  -28.3597   11.1433 H         1 UNK         0.0806 
    140 H140      -46.6785  -28.0753   10.5442 H         1 UNK         0.0806 
    141 H141      -48.0758  -27.5978    9.5811 H         1 UNK         0.0806 
    142 H142      -46.5587  -25.5843    9.6176 H         1 UNK         0.3061 
    143 H143      -45.5616  -22.2871   10.5666 H         1 UNK         0.0734 
    144 H144      -43.6532  -23.6975   11.3537 H         1 UNK         0.0832 
    145 H145      -43.8194  -24.7366    9.9457 H         1 UNK         0.0832 
    146 H146      -43.3439  -23.0480    9.7529 H         1 UNK         0.0832 
    147 H147      -45.2298  -23.7364    8.1411 H         1 UNK         0.3156 
    148 H148      -48.4376  -23.2957    6.7563 H         1 UNK         0.0589 
    149 H149      -45.8717  -21.7685    6.0542 H         1 UNK         0.0808 
    150 H150      -47.2370  -22.0607    4.9749 H         1 UNK         0.0808 
    151 H151      -47.4353  -21.0364    6.3858 H         1 UNK         0.0808 
    152 H152      -46.0556  -24.2335    5.5663 H         1 UNK         0.3098 
    153 H153      -45.8803  -26.4471    5.0931 H         1 UNK         0.0720 
    154 H154      -44.2735  -27.8226    6.4551 H         1 UNK         0.0791 
    155 H155      -45.0954  -27.3444    7.9383 H         1 UNK         0.0791 
    156 H156      -44.2275  -26.1494    6.9811 H         1 UNK         0.0791 
    157 H157      -47.7903  -27.8877    6.6947 H         1 UNK         0.3028 
@<TRIPOS>BOND
     1    1    2 1    
     2    1   82 1    
     3    1   83 1    
     4    1   84 1    
     5    2    3 2    
     6    2    4 am   BACKBONE|DICT|INTERRES
     7    4    5 1    
     8    4   85 1    
     9    5    6 1    
    10    5   80 1    
    11    5   86 1    
    12    6    7 1    
    13    6   87 1    
    14    6   88 1    
    15    7    8 1    
    16    8    9 1    
    17    8   89 1    
    18    8   90 1    
    19    9   10 ar   
    20    9   14 ar   
    21   10   11 ar   
    22   10   91 1    
    23   11   12 ar   
    24   11   58 1    
    25   12   13 ar   
    26   12   92 1    
    27   13   14 ar   
    28   13   15 1    
    29   14   93 1    
    30   15   16 1    
    31   15   94 1    
    32   15   95 1    
    33   16   17 1    
    34   17   18 1    
    35   17   96 1    
    36   17   97 1    
    37   18   19 1    
    38   18   22 1    
    39   18   98 1    
    40   19   20 am   BACKBONE|DICT|INTERRES
    41   19   21 2    
    42   20   99 1    
    43   20  100 1    
    44   22   23 am   BACKBONE|DICT|INTERRES
    45   22  101 1    
    46   23   24 2    
    47   23   25 1    
    48   25   26 1    
    49   25   27 1    
    50   25  102 1    
    51   26  103 1    
    52   26  104 1    
    53   26  105 1    
    54   27   28 am   BACKBONE|DICT|INTERRES
    55   27  106 1    
    56   28   29 2    
    57   28   30 1    
    58   30   31 1    
    59   30   32 1    
    60   30  107 1    
    61   31  108 1    
    62   31  109 1    
    63   31  110 1    
    64   32   33 am   BACKBONE|DICT|INTERRES
    65   32  111 1    
    66   33   34 2    
    67   33   35 1    
    68   35   36 1    
    69   35   37 1    
    70   35  112 1    
    71   36  113 1    
    72   36  114 1    
    73   36  115 1    
    74   37   38 am   BACKBONE|DICT|INTERRES
    75   37  116 1    
    76   38   39 2    
    77   38   40 1    
    78   40   41 1    
    79   40   42 1    
    80   40  117 1    
    81   41  118 1    
    82   41  119 1    
    83   41  120 1    
    84   42   43 am   BACKBONE|DICT|INTERRES
    85   42  121 1    
    86   43   44 2    
    87   43   45 1    
    88   45   46 1    
    89   45   47 1    
    90   45  122 1    
    91   46  123 1    
    92   46  124 1    
    93   46  125 1    
    94   47   48 am   BACKBONE|DICT|INTERRES
    95   47  126 1    
    96   48   49 2    
    97   48   50 1    
    98   50   51 1    
    99   50   52 1    
   100   50  127 1    
   101   51  128 1    
   102   51  129 1    
   103   51  130 1    
   104   52   53 am   BACKBONE|DICT|INTERRES
   105   52  131 1    
   106   53   54 2    
   107   53   55 1    
   108   55   56 1    
   109   55   59 1    
   110   55  132 1    
   111   56   57 1    
   112   56  133 1    
   113   56  134 1    
   114   57   58 1    
   115   58  135 1    
   116   58  136 1    
   117   59   60 am   BACKBONE|DICT|INTERRES
   118   59  137 1    
   119   60   61 2    
   120   60   62 1    
   121   62   63 1    
   122   62   64 1    
   123   62  138 1    
   124   63  139 1    
   125   63  140 1    
   126   63  141 1    
   127   64   65 am   BACKBONE|DICT|INTERRES
   128   64  142 1    
   129   65   66 2    
   130   65   67 1    
   131   67   68 1    
   132   67   69 1    
   133   67  143 1    
   134   68  144 1    
   135   68  145 1    
   136   68  146 1    
   137   69   70 am   BACKBONE|DICT|INTERRES
   138   69  147 1    
   139   70   71 2    
   140   70   72 1    
   141   72   73 1    
   142   72   74 1    
   143   72  148 1    
   144   73  149 1    
   145   73  150 1    
   146   73  151 1    
   147   74   75 am   BACKBONE|DICT|INTERRES
   148   74  152 1    
   149   75   76 2    
   150   75   77 1    
   151   77   78 1    
   152   77   79 1    
   153   77  153 1    
   154   78  154 1    
   155   78  155 1    
   156   78  156 1    
   157   79   80 am   BACKBONE|DICT|INTERRES
   158   79  157 1    
   159   80   81 2    
@<TRIPOS>SUBSTRUCTURE
     1 UNK         1 GROUP             0       ****    0 ROOT    
