@<TRIPOS>MOLECULE
3R207
157   159    1
SMALL
USER_CHARGES


@<TRIPOS>ATOM
      1 CA        -47.9623  -30.0315   10.0800 C.3       0 UNK        -0.1975 
      2 C         -47.8208  -30.1324    8.5688 C.2       0 UNK         0.4852 
      3 O         -46.7032  -30.1315    8.0526 O.2       0 UNK        -0.5216 
      4 N         -48.9522  -30.2201    7.8583 N.am      1 UNK        -0.4461 
      5 CA        -49.0177  -30.3590    6.3952 C.3       1 UNK         0.0864 
      6 C6        -50.2866  -31.1284    5.9435 C.3       14 UNK        -0.0898 
      7 S7        -50.3735  -32.8010    6.6730 S.3       14 UNK        -0.2598 
      8 C8        -52.1695  -33.0171    6.9433 C.3       14 UNK         0.0286 
      9 C9        -52.8164  -32.0285    7.9161 C.ar      14 UNK        -0.0844 
     10 C10       -52.0924  -31.4084    8.9435 C.ar      14 UNK        -0.0881 
     11 C11       -52.7109  -30.4852    9.7891 C.ar      14 UNK        -0.0643 
     12 C12       -54.0790  -30.2531    9.6616 C.ar      14 UNK        -0.0930 
     13 C13       -54.8217  -30.8438    8.6367 C.ar      14 UNK        -0.0827 
     14 C14       -54.1782  -31.7350    7.7717 C.ar      14 UNK        -0.1249 
     15 C15       -56.3109  -30.5474    8.4366 C.3       14 UNK         0.0141 
     16 S16       -56.9307  -29.0038    9.2092 S.3       14 UNK        -0.2313 
     17 C17       -56.0966  -27.6992    8.2381 C.3       14 UNK        -0.0915 
     18 CA        -55.0083  -26.9013    9.0176 C.3       13 UNK         0.0968 
     19 C         -54.2946  -25.8969    8.0798 C.2       13 UNK         0.5732 
     20 N         -53.3875  -26.3757    7.2395 N.am      13 UNK        -0.7310 
     21 O         -54.5743  -24.6990    8.0828 O.2       13 UNK        -0.5035 
     22 N         -55.5421  -26.2100   10.2021 N.am      13 UNK        -0.4233 
     23 C         -55.3989  -26.6251   11.4650 C.2       13 UNK         0.4989 
     24 O         -54.8487  -27.6804   11.7840 O.2       13 UNK        -0.4996 
     25 CA        -55.9916  -25.7256   12.5657 C.3       12 UNK         0.0216 
     26 CB        -57.5272  -25.8208   12.5774 C.3       12 UNK        -0.1964 
     27 N         -55.4819  -26.1407   13.8760 N.am      12 UNK        -0.4276 
     28 C         -54.2713  -25.8202   14.3470 C.2       12 UNK         0.5020 
     29 O         -53.5563  -24.9432   13.8565 O.2       12 UNK        -0.5489 
     30 CA        -53.7733  -26.6611   15.5324 C.3       11 UNK         0.0294 
     31 CB        -53.3362  -28.0567   15.0502 C.3       11 UNK        -0.2019 
     32 N         -52.6235  -26.0182   16.1636 N.am      11 UNK        -0.4493 
     33 C         -52.5283  -25.6906   17.4571 C.2       11 UNK         0.4932 
     34 O         -53.4136  -25.9173   18.2846 O.2       11 UNK        -0.5029 
     35 CA        -51.2333  -24.9791   17.8972 C.3       10 UNK         0.0280 
     36 CB        -51.0545  -24.9286   19.4301 C.3       10 UNK        -0.1976 
     37 N         -50.0292  -25.5030   17.2415 N.am      10 UNK        -0.4242 
     38 C         -49.5011  -26.7341   17.3448 C.2       10 UNK         0.5072 
     39 O         -49.9692  -27.6181   18.0642 O.2       10 UNK        -0.5224 
     40 CA        -48.2366  -27.0538   16.5151 C.3       9 UNK         0.0343 
     41 CB        -48.4728  -28.2616   15.5906 C.3       9 UNK        -0.2003 
     42 N         -47.7622  -25.9268   15.7073 N.am      9 UNK        -0.4272 
     43 C         -47.0243  -24.9046   16.1620 C.2       9 UNK         0.4988 
     44 O         -46.5689  -24.8442   17.3042 O.2       9 UNK        -0.5108 
     45 CA        -46.7960  -23.7255   15.1961 C.3       8 UNK         0.0248 
     46 CB        -45.5059  -23.9269   14.3859 C.3       8 UNK        -0.2001 
     47 N         -47.9263  -23.4923   14.2875 N.am      8 UNK        -0.4140 
     48 C         -49.1598  -23.1488   14.6899 C.2       8 UNK         0.5028 
     49 O         -49.4525  -22.9259   15.8642 O.2       8 UNK        -0.5428 
     50 CA        -50.2705  -23.1082   13.6281 C.3       7 UNK         0.0264 
     51 CB        -50.2526  -21.7690   12.8757 C.3       7 UNK        -0.1988 
     52 N         -50.2032  -24.2283   12.6834 N.am      7 UNK        -0.4454 
     53 C         -50.3391  -25.5185   13.0325 C.2       7 UNK         0.5027 
     54 O         -50.5693  -25.8846   14.1842 O.2       7 UNK        -0.5083 
     55 CA        -50.1063  -26.5893   11.9465 C.3       6 UNK         0.0844 
     56 C56       -51.3905  -26.8684   11.1323 C.3       14 UNK        -0.0967 
     57 S57       -51.1733  -28.2349    9.9388 S.3       14 UNK        -0.2604 
     58 C58       -51.9028  -29.6738   10.7891 C.3       14 UNK         0.0134 
     59 N         -48.9513  -26.2538   11.1100 N.am      6 UNK        -0.4116 
     60 C         -47.6893  -26.2071   11.5592 C.2       5 UNK         0.5034 
     61 O         -47.3595  -26.5015   12.7081 O.2       5 UNK        -0.5045 
     62 CA        -46.6223  -25.7006   10.5785 C.3       5 UNK         0.0224 
     63 CB        -46.1800  -26.8086    9.6097 C.3       5 UNK        -0.1978 
     64 N         -47.0822  -24.5331    9.8244 N.am      5 UNK        -0.4737 
     65 C         -47.2603  -23.3166   10.3570 C.2       4 UNK         0.5027 
     66 O         -47.0373  -23.0491   11.5369 O.2       4 UNK        -0.5211 
     67 CA        -47.8034  -22.2215    9.4234 C.3       4 UNK         0.0297 
     68 CB        -46.6573  -21.5698    8.6340 C.3       4 UNK        -0.1993 
     69 N         -48.8229  -22.7150    8.4939 N.am      4 UNK        -0.4486 
     70 C         -50.0265  -23.1705    8.8680 C.2       3 UNK         0.4961 
     71 O         -50.4142  -23.2120   10.0337 O.2       3 UNK        -0.5105 
     72 CA        -50.9303  -23.7318    7.7601 C.3       3 UNK         0.0299 
     73 CB        -51.6636  -22.5996    7.0244 C.3       3 UNK        -0.1972 
     74 N         -50.2316  -24.5877    6.7935 N.am      3 UNK        -0.4305 
     75 C         -49.5337  -25.6833    7.1198 C.2       2 UNK         0.5006 
     76 O         -49.3144  -26.0427    8.2792 O.2       2 UNK        -0.5106 
     77 CA        -48.9602  -26.5131    5.9713 C.3       2 UNK         0.0296 
     78 CB        -47.5304  -26.0596    5.6254 C.3       2 UNK        -0.2002 
     79 N         -48.9607  -27.8963    6.4267 N.am      2 UNK        -0.4032 
     80 C         -48.9140  -28.9977    5.6701 C.2       1 UNK         0.5000 
     81 O         -48.8057  -28.9732    4.4424 O.2       1 UNK        -0.5238 
     82 H82       -47.0349  -30.3214   10.5735 H         1 UNK         0.0889 
     83 H83       -48.7537  -30.6860   10.4437 H         1 UNK         0.0889 
     84 H84       -48.1989  -29.0098   10.3726 H         1 UNK         0.0889 
     85 H85       -49.8432  -30.1802    8.3321 H         1 UNK         0.3028 
     86 H86       -48.1526  -30.9403    6.0679 H         1 UNK         0.0864 
     87 H87       -50.3014  -31.2441    4.8580 H         1 UNK         0.0720 
     88 H88       -51.1846  -30.5640    6.2012 H         1 UNK         0.0720 
     89 H89       -52.3421  -34.0271    7.3169 H         1 UNK         0.0814 
     90 H90       -52.6650  -32.9599    5.9726 H         1 UNK         0.0814 
     91 H91       -51.0419  -31.6201    9.0734 H         1 UNK         0.1469 
     92 H92       -54.5555  -29.5769   10.3499 H         1 UNK         0.1381 
     93 H93       -54.7441  -32.2061    6.9791 H         1 UNK         0.1206 
     94 H94       -56.5396  -30.5140    7.3703 H         1 UNK         0.0813 
     95 H95       -56.8799  -31.3831    8.8455 H         1 UNK         0.0813 
     96 H96       -56.8683  -27.0186    7.8741 H         1 UNK         0.0638 
     97 H97       -55.6628  -28.1603    7.3489 H         1 UNK         0.0638 
     98 H98       -54.2272  -27.5887    9.3387 H         1 UNK         0.0568 
     99 H99       -52.9301  -25.7423    6.6056 H         1 UNK         0.3450 
    100 H100      -53.1505  -27.3550    7.2342 H         1 UNK         0.3450 
    101 H101      -55.9631  -25.3110   10.0130 H         1 UNK         0.2987 
    102 H102      -55.6984  -24.6916   12.3711 H         1 UNK         0.0766 
    103 H103      -57.9567  -25.2044   13.3675 H         1 UNK         0.0798 
    104 H104      -57.8675  -26.8463   12.7288 H         1 UNK         0.0798 
    105 H105      -57.9511  -25.4748   11.6339 H         1 UNK         0.0798 
    106 H106      -55.9754  -26.9038   14.3162 H         1 UNK         0.3198 
    107 H107      -54.5963  -26.7672   16.2423 H         1 UNK         0.0843 
    108 H108      -52.5326  -27.9930   14.3150 H         1 UNK         0.0831 
    109 H109      -54.1619  -28.5937   14.5817 H         1 UNK         0.0831 
    110 H110      -52.9807  -28.6680   15.8798 H         1 UNK         0.0831 
    111 H111      -51.8657  -25.7806   15.5241 H         1 UNK         0.3133 
    112 H112      -51.3338  -23.9495   17.5522 H         1 UNK         0.0566 
    113 H113      -50.1414  -24.4008   19.7053 H         1 UNK         0.0814 
    114 H114      -51.8854  -24.4039   19.9030 H         1 UNK         0.0814 
    115 H115      -51.0111  -25.9265   19.8674 H         1 UNK         0.0814 
    116 H116      -49.5815  -24.8476   16.6101 H         1 UNK         0.3091 
    117 H117      -47.4515  -27.3252   17.2238 H         1 UNK         0.0702 
    118 H118      -47.5811  -28.4979   15.0095 H         1 UNK         0.0785 
    119 H119      -49.2892  -28.0828   14.8914 H         1 UNK         0.0785 
    120 H120      -48.7291  -29.1515   16.1668 H         1 UNK         0.0785 
    121 H121      -48.0568  -25.9147   14.7376 H         1 UNK         0.2998 
    122 H122      -46.6756  -22.8260   15.8034 H         1 UNK         0.0697 
    123 H123      -45.5659  -24.8024   13.7397 H         1 UNK         0.0825 
    124 H124      -44.6486  -24.0669   15.0457 H         1 UNK         0.0825 
    125 H125      -45.2931  -23.0618   13.7576 H         1 UNK         0.0825 
    126 H126      -47.7414  -23.5870   13.2922 H         1 UNK         0.3029 
    127 H127      -51.2259  -23.1865   14.1522 H         1 UNK         0.0897 
    128 H128      -51.1022  -21.6854   12.1979 H         1 UNK         0.0792 
    129 H129      -50.3100  -20.9297   13.5701 H         1 UNK         0.0792 
    130 H130      -49.3419  -21.6469   12.2895 H         1 UNK         0.0792 
    131 H131      -50.0781  -23.9857   11.7026 H         1 UNK         0.3086 
    132 H132      -49.8566  -27.5143   12.4711 H         1 UNK         0.0583 
    133 H133      -52.2264  -27.0915   11.7972 H         1 UNK         0.1020 
    134 H134      -51.6840  -25.9780   10.5725 H         1 UNK         0.1020 
    135 H135      -51.1111  -30.2820   11.2279 H         1 UNK         0.0694 
    136 H136      -52.5403  -29.3523   11.6140 H         1 UNK         0.0694 
    137 H137      -49.1378  -26.0447   10.1314 H         1 UNK         0.2989 
    138 H138      -45.7527  -25.4018   11.1685 H         1 UNK         0.1055 
    139 H139      -45.8205  -27.6825   10.1546 H         1 UNK         0.0806 
    140 H140      -45.3652  -26.4719    8.9687 H         1 UNK         0.0806 
    141 H141      -46.9947  -27.1391    8.9659 H         1 UNK         0.0806 
    142 H142      -47.3621  -24.6875    8.8665 H         1 UNK         0.3061 
    143 H143      -48.2645  -21.4538   10.0483 H         1 UNK         0.0734 
    144 H144      -47.0142  -20.7340    8.0319 H         1 UNK         0.0832 
    145 H145      -45.8949  -21.1776    9.3089 H         1 UNK         0.0832 
    146 H146      -46.1669  -22.2805    7.9676 H         1 UNK         0.0832 
    147 H147      -48.5873  -22.7287    7.5123 H         1 UNK         0.3156 
    148 H148      -51.6799  -24.3515    8.2547 H         1 UNK         0.0589 
    149 H149      -50.9763  -21.9669    6.4617 H         1 UNK         0.0808 
    150 H150      -52.1953  -21.9588    7.7295 H         1 UNK         0.0808 
    151 H151      -52.4062  -22.9936    6.3302 H         1 UNK         0.0808 
    152 H152      -50.3362  -24.3494    5.8174 H         1 UNK         0.3098 
    153 H153      -49.6080  -26.4198    5.0973 H         1 UNK         0.0720 
    154 H154      -47.5147  -25.0157    5.3099 H         1 UNK         0.0791 
    155 H155      -47.1139  -26.6494    4.8088 H         1 UNK         0.0791 
    156 H156      -46.8595  -26.1551    6.4802 H         1 UNK         0.0791 
    157 H157      -49.0794  -27.9902    7.4284 H         1 UNK         0.3028 
@<TRIPOS>BOND
     1    1    2 1    
     2    1   82 1    
     3    1   83 1    
     4    1   84 1    
     5    2    3 2    
     6    2    4 am   BACKBONE|DICT|INTERRES
     7    4    5 1    
     8    4   85 1    
     9    5    6 1    
    10    5   80 1    
    11    5   86 1    
    12    6    7 1    
    13    6   87 1    
    14    6   88 1    
    15    7    8 1    
    16    8    9 1    
    17    8   89 1    
    18    8   90 1    
    19    9   10 ar   
    20    9   14 ar   
    21   10   11 ar   
    22   10   91 1    
    23   11   12 ar   
    24   11   58 1    
    25   12   13 ar   
    26   12   92 1    
    27   13   14 ar   
    28   13   15 1    
    29   14   93 1    
    30   15   16 1    
    31   15   94 1    
    32   15   95 1    
    33   16   17 1    
    34   17   18 1    
    35   17   96 1    
    36   17   97 1    
    37   18   19 1    
    38   18   22 1    
    39   18   98 1    
    40   19   20 am   BACKBONE|DICT|INTERRES
    41   19   21 2    
    42   20   99 1    
    43   20  100 1    
    44   22   23 am   BACKBONE|DICT|INTERRES
    45   22  101 1    
    46   23   24 2    
    47   23   25 1    
    48   25   26 1    
    49   25   27 1    
    50   25  102 1    
    51   26  103 1    
    52   26  104 1    
    53   26  105 1    
    54   27   28 am   BACKBONE|DICT|INTERRES
    55   27  106 1    
    56   28   29 2    
    57   28   30 1    
    58   30   31 1    
    59   30   32 1    
    60   30  107 1    
    61   31  108 1    
    62   31  109 1    
    63   31  110 1    
    64   32   33 am   BACKBONE|DICT|INTERRES
    65   32  111 1    
    66   33   34 2    
    67   33   35 1    
    68   35   36 1    
    69   35   37 1    
    70   35  112 1    
    71   36  113 1    
    72   36  114 1    
    73   36  115 1    
    74   37   38 am   BACKBONE|DICT|INTERRES
    75   37  116 1    
    76   38   39 2    
    77   38   40 1    
    78   40   41 1    
    79   40   42 1    
    80   40  117 1    
    81   41  118 1    
    82   41  119 1    
    83   41  120 1    
    84   42   43 am   BACKBONE|DICT|INTERRES
    85   42  121 1    
    86   43   44 2    
    87   43   45 1    
    88   45   46 1    
    89   45   47 1    
    90   45  122 1    
    91   46  123 1    
    92   46  124 1    
    93   46  125 1    
    94   47   48 am   BACKBONE|DICT|INTERRES
    95   47  126 1    
    96   48   49 2    
    97   48   50 1    
    98   50   51 1    
    99   50   52 1    
   100   50  127 1    
   101   51  128 1    
   102   51  129 1    
   103   51  130 1    
   104   52   53 am   BACKBONE|DICT|INTERRES
   105   52  131 1    
   106   53   54 2    
   107   53   55 1    
   108   55   56 1    
   109   55   59 1    
   110   55  132 1    
   111   56   57 1    
   112   56  133 1    
   113   56  134 1    
   114   57   58 1    
   115   58  135 1    
   116   58  136 1    
   117   59   60 am   BACKBONE|DICT|INTERRES
   118   59  137 1    
   119   60   61 2    
   120   60   62 1    
   121   62   63 1    
   122   62   64 1    
   123   62  138 1    
   124   63  139 1    
   125   63  140 1    
   126   63  141 1    
   127   64   65 am   BACKBONE|DICT|INTERRES
   128   64  142 1    
   129   65   66 2    
   130   65   67 1    
   131   67   68 1    
   132   67   69 1    
   133   67  143 1    
   134   68  144 1    
   135   68  145 1    
   136   68  146 1    
   137   69   70 am   BACKBONE|DICT|INTERRES
   138   69  147 1    
   139   70   71 2    
   140   70   72 1    
   141   72   73 1    
   142   72   74 1    
   143   72  148 1    
   144   73  149 1    
   145   73  150 1    
   146   73  151 1    
   147   74   75 am   BACKBONE|DICT|INTERRES
   148   74  152 1    
   149   75   76 2    
   150   75   77 1    
   151   77   78 1    
   152   77   79 1    
   153   77  153 1    
   154   78  154 1    
   155   78  155 1    
   156   78  156 1    
   157   79   80 am   BACKBONE|DICT|INTERRES
   158   79  157 1    
   159   80   81 2    
@<TRIPOS>SUBSTRUCTURE
     1 UNK         1 GROUP             0       ****    0 ROOT    
