@<TRIPOS>MOLECULE
3R207
157   159    1
SMALL
USER_CHARGES


@<TRIPOS>ATOM
      1 CA        -49.4347  -32.0338    4.5195 C.3       0 UNK        -0.1975 
      2 C         -49.0889  -30.6053    4.1258 C.2       0 UNK         0.4852 
      3 O         -48.4221  -30.3951    3.1120 O.2       0 UNK        -0.5216 
      4 N         -49.5408  -29.6251    4.9198 N.am      1 UNK        -0.4461 
      5 CA        -49.2955  -28.1919    4.7133 C.3       1 UNK         0.0864 
      6 C6        -50.2247  -27.3216    5.5943 C.3       14 UNK        -0.0898 
      7 S7        -51.9536  -27.3470    5.0145 S.3       14 UNK        -0.2598 
      8 C8        -52.7351  -28.5970    6.0898 C.3       14 UNK         0.0286 
      9 C9        -52.7873  -28.1876    7.5571 C.ar      14 UNK        -0.0844 
     10 C10       -53.4586  -27.0239    7.9445 C.ar      14 UNK        -0.0881 
     11 C11       -53.5385  -26.6609    9.2924 C.ar      14 UNK        -0.0643 
     12 C12       -52.9602  -27.4873   10.2606 C.ar      14 UNK        -0.0930 
     13 C13       -52.2930  -28.6577    9.8891 C.ar      14 UNK        -0.0827 
     14 C14       -52.2002  -28.9962    8.5352 C.ar      14 UNK        -0.1249 
     15 C15       -51.6617  -29.5535   10.9450 C.3       14 UNK         0.0141 
     16 S16       -52.5516  -31.1368   11.0896 S.3       14 UNK        -0.2313 
     17 C17       -53.1211  -31.1460   12.8220 C.3       14 UNK        -0.0915 
     18 CA        -54.6483  -30.9121   12.9371 C.3       13 UNK         0.0968 
     19 C         -55.1627  -31.2956   14.3512 C.2       13 UNK         0.5732 
     20 N         -55.4910  -32.5621   14.5674 N.am      13 UNK        -0.7310 
     21 O         -55.2309  -30.4710   15.2603 O.2       13 UNK        -0.5035 
     22 N         -55.0063  -29.5341   12.5812 N.am      13 UNK        -0.4233 
     23 C         -56.2415  -29.1210   12.2819 C.2       13 UNK         0.4989 
     24 O         -57.2110  -29.8736   12.1666 O.2       13 UNK        -0.4996 
     25 CA        -56.4199  -27.6005   12.1211 C.3       12 UNK         0.0216 
     26 CB        -57.7509  -27.2233   11.4450 C.3       12 UNK        -0.1964 
     27 N         -56.3304  -26.9258   13.4185 N.am      12 UNK        -0.4276 
     28 C         -55.1918  -26.6826   14.0786 C.2       12 UNK         0.5020 
     29 O         -54.0714  -26.9270   13.6205 O.2       12 UNK        -0.5489 
     30 CA        -55.3309  -26.1110   15.4952 C.3       11 UNK         0.0294 
     31 CB        -55.8328  -27.2020   16.4644 C.3       11 UNK        -0.2019 
     32 N         -54.0229  -25.6183   15.9140 N.am      11 UNK        -0.4493 
     33 C         -53.7271  -24.9391   17.0285 C.2       11 UNK         0.4932 
     34 O         -54.5728  -24.5733   17.8469 O.2       11 UNK        -0.5029 
     35 CA        -52.2391  -24.6013   17.2658 C.3       10 UNK         0.0280 
     36 CB        -51.8820  -24.4729   18.7619 C.3       10 UNK        -0.1976 
     37 N         -51.3172  -25.5138   16.5756 N.am      10 UNK        -0.4242 
     38 C         -51.1496  -26.8293   16.7841 C.2       10 UNK         0.5072 
     39 O         -51.7197  -27.4675   17.6697 O.2       10 UNK        -0.5224 
     40 CA        -50.2031  -27.5739   15.8253 C.3       9 UNK         0.0343 
     41 CB        -51.0135  -28.3284   14.7603 C.3       9 UNK        -0.2003 
     42 N         -49.2413  -26.6900   15.1605 N.am      9 UNK        -0.4272 
     43 C         -48.1286  -26.2191   15.7418 C.2       9 UNK         0.4988 
     44 O         -47.7655  -26.5263   16.8779 O.2       9 UNK        -0.5108 
     45 CA        -47.2880  -25.2203   14.9279 C.3       8 UNK         0.0248 
     46 CB        -46.4705  -25.9450   13.8468 C.3       8 UNK        -0.2001 
     47 N         -48.0936  -24.1614   14.3142 N.am      8 UNK        -0.4140 
     48 C         -48.8039  -23.2484   14.9944 C.2       8 UNK         0.5028 
     49 O         -48.8473  -23.1825   16.2225 O.2       8 UNK        -0.5428 
     50 CA        -49.6260  -22.2516   14.1658 C.3       7 UNK         0.0264 
     51 CB        -48.7518  -21.0762   13.6995 C.3       7 UNK        -0.1988 
     52 N         -50.2486  -22.8963   13.0097 N.am      7 UNK        -0.4454 
     53 C         -51.3491  -23.6604   13.0768 C.2       7 UNK         0.5027 
     54 O         -51.9762  -23.8646   14.1146 O.2       7 UNK        -0.5083 
     55 CA        -51.8218  -24.3202   11.7678 C.3       6 UNK         0.0844 
     56 C56       -52.7600  -23.3559   10.9977 C.3       14 UNK        -0.0967 
     57 S57       -53.2376  -23.9179    9.3277 S.3       14 UNK        -0.2604 
     58 C58       -54.2586  -25.3794    9.6874 C.3       14 UNK         0.0134 
     59 N         -50.7014  -24.7958   10.9545 N.am      6 UNK        -0.4116 
     60 C         -49.8258  -25.7429   11.3178 C.2       5 UNK         0.5034 
     61 O         -49.8636  -26.3490   12.3880 O.2       5 UNK        -0.5045 
     62 CA        -48.6750  -26.0158   10.3384 C.3       5 UNK         0.0224 
     63 CB        -49.0964  -27.0516    9.2880 C.3       5 UNK        -0.1978 
     64 N         -48.1922  -24.8123    9.6574 N.am      5 UNK        -0.4737 
     65 C         -47.6941  -23.7186   10.2466 C.2       4 UNK         0.5027 
     66 O         -47.6524  -23.5685   11.4695 O.2       4 UNK        -0.5211 
     67 CA        -47.1622  -22.6180    9.3049 C.3       4 UNK         0.0297 
     68 CB        -46.5209  -21.4467   10.0717 C.3       4 UNK        -0.1993 
     69 N         -46.1935  -23.1411    8.3347 N.am      4 UNK        -0.4486 
     70 C         -46.4893  -23.8619    7.2444 C.2       3 UNK         0.4961 
     71 O         -47.6443  -24.1359    6.9097 O.2       3 UNK        -0.5105 
     72 CA        -45.3205  -24.3875    6.3887 C.3       3 UNK         0.0299 
     73 CB        -43.9163  -24.1074    6.9736 C.3       3 UNK        -0.1972 
     74 N         -45.4892  -25.8134    6.0876 N.am      3 UNK        -0.4305 
     75 C         -45.5384  -26.8318    6.9582 C.2       2 UNK         0.5006 
     76 O         -45.4078  -26.7071    8.1773 O.2       2 UNK        -0.5106 
     77 CA        -45.7916  -28.2270    6.3519 C.3       2 UNK         0.0296 
     78 CB        -45.3826  -29.3626    7.3088 C.3       2 UNK        -0.2002 
     79 N         -47.1917  -28.4207    5.9674 N.am      2 UNK        -0.4032 
     80 C         -47.8154  -27.8201    4.9426 C.2       1 UNK         0.5000 
     81 O         -47.2641  -27.0238    4.1789 O.2       1 UNK        -0.5238 
     82 H82       -50.0346  -32.0742    5.4285 H         1 UNK         0.0889 
     83 H83       -48.5234  -32.6069    4.6889 H         1 UNK         0.0889 
     84 H84       -49.9974  -32.5167    3.7209 H         1 UNK         0.0889 
     85 H85       -50.0914  -29.8640    5.7307 H         1 UNK         0.3028 
     86 H86       -49.5105  -27.9663    3.6661 H         1 UNK         0.0864 
     87 H87       -50.1781  -27.6368    6.6361 H         1 UNK         0.0720 
     88 H88       -49.9057  -26.2769    5.5804 H         1 UNK         0.0720 
     89 H89       -52.2221  -29.5509    5.9665 H         1 UNK         0.0814 
     90 H90       -53.7559  -28.7602    5.7418 H         1 UNK         0.0814 
     91 H91       -53.9132  -26.3931    7.1927 H         1 UNK         0.1469 
     92 H92       -53.0245  -27.2207   11.3048 H         1 UNK         0.1381 
     93 H93       -51.6870  -29.9044    8.2503 H         1 UNK         0.1206 
     94 H94       -51.6181  -29.0383   11.9046 H         1 UNK         0.0813 
     95 H95       -50.6280  -29.7641   10.6701 H         1 UNK         0.0813 
     96 H96       -52.5684  -30.4185   13.4163 H         1 UNK         0.0638 
     97 H97       -52.8543  -32.1239   13.2273 H         1 UNK         0.0638 
     98 H98       -55.1454  -31.5732   12.2240 H         1 UNK         0.0568 
     99 H99       -55.8132  -32.8330   15.4832 H         1 UNK         0.3450 
    100 H100      -55.4280  -33.2511   13.8342 H         1 UNK         0.3450 
    101 H101      -54.3059  -28.8248   12.7613 H         1 UNK         0.2987 
    102 H102      -55.6139  -27.2504   11.4775 H         1 UNK         0.0766 
    103 H103      -57.8186  -26.1483   11.2769 H         1 UNK         0.0798 
    104 H104      -58.6117  -27.5249   12.0432 H         1 UNK         0.0798 
    105 H105      -57.8436  -27.7080   10.4720 H         1 UNK         0.0798 
    106 H106      -57.2072  -26.7269   13.8791 H         1 UNK         0.3198 
    107 H107      -56.0326  -25.2750   15.4714 H         1 UNK         0.0843 
    108 H108      -56.7723  -27.6392   16.1248 H         1 UNK         0.0831 
    109 H109      -56.0118  -26.8049   17.4632 H         1 UNK         0.0831 
    110 H110      -55.1109  -28.0150   16.5545 H         1 UNK         0.0831 
    111 H111      -53.2840  -25.8289   15.2515 H         1 UNK         0.3133 
    112 H112      -52.0796  -23.6222   16.8126 H         1 UNK         0.0566 
    113 H113      -50.8275  -24.2315   18.8969 H         1 UNK         0.0814 
    114 H114      -52.4582  -23.6766   19.2344 H         1 UNK         0.0814 
    115 H115      -52.0906  -25.3919   19.3100 H         1 UNK         0.0814 
    116 H116      -50.8197  -25.0993   15.7991 H         1 UNK         0.3091 
    117 H117      -49.6534  -28.3108   16.4148 H         1 UNK         0.0702 
    118 H118      -50.3672  -28.9432   14.1340 H         1 UNK         0.0785 
    119 H119      -51.5572  -27.6432   14.1093 H         1 UNK         0.0785 
    120 H120      -51.7475  -28.9897   15.2230 H         1 UNK         0.0785 
    121 H121      -49.4463  -26.4362   14.1954 H         1 UNK         0.2998 
    122 H122      -46.5877  -24.7391   15.6139 H         1 UNK         0.0697 
    123 H123      -47.1118  -26.4779   13.1455 H         1 UNK         0.0825 
    124 H124      -45.7991  -26.6789   14.2943 H         1 UNK         0.0825 
    125 H125      -45.8566  -25.2475   13.2763 H         1 UNK         0.0825 
    126 H126      -48.0685  -24.0942   13.3000 H         1 UNK         0.3029 
    127 H127      -50.4143  -21.8520   14.8083 H         1 UNK         0.0897 
    128 H128      -49.3306  -20.3530   13.1248 H         1 UNK         0.0792 
    129 H129      -48.3284  -20.5464   14.5539 H         1 UNK         0.0792 
    130 H130      -47.9184  -21.4091   13.0806 H         1 UNK         0.0792 
    131 H131      -49.7481  -22.8345   12.1333 H         1 UNK         0.3086 
    132 H132      -52.4022  -25.1966   12.0570 H         1 UNK         0.0583 
    133 H133      -53.6692  -23.1743   11.5749 H         1 UNK         0.1020 
    134 H134      -52.2874  -22.3789   10.8763 H         1 UNK         0.1020 
    135 H135      -54.5309  -25.3902   10.7431 H         1 UNK         0.0694 
    136 H136      -55.1946  -25.3034    9.1321 H         1 UNK         0.0694 
    137 H137      -50.5997  -24.3739   10.0434 H         1 UNK         0.2989 
    138 H138      -47.8382  -26.4241   10.9072 H         1 UNK         0.1055 
    139 H139      -49.3331  -28.0049    9.7589 H         1 UNK         0.0806 
    140 H140      -48.3003  -27.2372    8.5672 H         1 UNK         0.0806 
    141 H141      -49.9833  -26.7263    8.7429 H         1 UNK         0.0806 
    142 H142      -48.1712  -24.8317    8.6413 H         1 UNK         0.3061 
    143 H143      -48.0214  -22.2240    8.7580 H         1 UNK         0.0734 
    144 H144      -47.2415  -20.9802   10.7443 H         1 UNK         0.0832 
    145 H145      -45.6745  -21.7743   10.6767 H         1 UNK         0.0832 
    146 H146      -46.1694  -20.6702    9.3922 H         1 UNK         0.0832 
    147 H147      -45.2184  -23.0040    8.5585 H         1 UNK         0.3156 
    148 H148      -45.3888  -23.8656    5.4333 H         1 UNK         0.0589 
    149 H149      -43.7782  -24.5616    7.9557 H         1 UNK         0.0808 
    150 H150      -43.1376  -24.5010    6.3201 H         1 UNK         0.0808 
    151 H151      -43.7326  -23.0366    7.0705 H         1 UNK         0.0808 
    152 H152      -45.7513  -26.0294    5.1306 H         1 UNK         0.3098 
    153 H153      -45.1745  -28.3134    5.4548 H         1 UNK         0.0720 
    154 H154      -45.4832  -30.3384    6.8332 H         1 UNK         0.0791 
    155 H155      -45.9882  -29.3667    8.2162 H         1 UNK         0.0791 
    156 H156      -44.3403  -29.2585    7.6136 H         1 UNK         0.0791 
    157 H157      -47.7253  -29.0614    6.5354 H         1 UNK         0.3028 
@<TRIPOS>BOND
     1    1    2 1    
     2    1   82 1    
     3    1   83 1    
     4    1   84 1    
     5    2    3 2    
     6    2    4 am   BACKBONE|DICT|INTERRES
     7    4    5 1    
     8    4   85 1    
     9    5    6 1    
    10    5   80 1    
    11    5   86 1    
    12    6    7 1    
    13    6   87 1    
    14    6   88 1    
    15    7    8 1    
    16    8    9 1    
    17    8   89 1    
    18    8   90 1    
    19    9   10 ar   
    20    9   14 ar   
    21   10   11 ar   
    22   10   91 1    
    23   11   12 ar   
    24   11   58 1    
    25   12   13 ar   
    26   12   92 1    
    27   13   14 ar   
    28   13   15 1    
    29   14   93 1    
    30   15   16 1    
    31   15   94 1    
    32   15   95 1    
    33   16   17 1    
    34   17   18 1    
    35   17   96 1    
    36   17   97 1    
    37   18   19 1    
    38   18   22 1    
    39   18   98 1    
    40   19   20 am   BACKBONE|DICT|INTERRES
    41   19   21 2    
    42   20   99 1    
    43   20  100 1    
    44   22   23 am   BACKBONE|DICT|INTERRES
    45   22  101 1    
    46   23   24 2    
    47   23   25 1    
    48   25   26 1    
    49   25   27 1    
    50   25  102 1    
    51   26  103 1    
    52   26  104 1    
    53   26  105 1    
    54   27   28 am   BACKBONE|DICT|INTERRES
    55   27  106 1    
    56   28   29 2    
    57   28   30 1    
    58   30   31 1    
    59   30   32 1    
    60   30  107 1    
    61   31  108 1    
    62   31  109 1    
    63   31  110 1    
    64   32   33 am   BACKBONE|DICT|INTERRES
    65   32  111 1    
    66   33   34 2    
    67   33   35 1    
    68   35   36 1    
    69   35   37 1    
    70   35  112 1    
    71   36  113 1    
    72   36  114 1    
    73   36  115 1    
    74   37   38 am   BACKBONE|DICT|INTERRES
    75   37  116 1    
    76   38   39 2    
    77   38   40 1    
    78   40   41 1    
    79   40   42 1    
    80   40  117 1    
    81   41  118 1    
    82   41  119 1    
    83   41  120 1    
    84   42   43 am   BACKBONE|DICT|INTERRES
    85   42  121 1    
    86   43   44 2    
    87   43   45 1    
    88   45   46 1    
    89   45   47 1    
    90   45  122 1    
    91   46  123 1    
    92   46  124 1    
    93   46  125 1    
    94   47   48 am   BACKBONE|DICT|INTERRES
    95   47  126 1    
    96   48   49 2    
    97   48   50 1    
    98   50   51 1    
    99   50   52 1    
   100   50  127 1    
   101   51  128 1    
   102   51  129 1    
   103   51  130 1    
   104   52   53 am   BACKBONE|DICT|INTERRES
   105   52  131 1    
   106   53   54 2    
   107   53   55 1    
   108   55   56 1    
   109   55   59 1    
   110   55  132 1    
   111   56   57 1    
   112   56  133 1    
   113   56  134 1    
   114   57   58 1    
   115   58  135 1    
   116   58  136 1    
   117   59   60 am   BACKBONE|DICT|INTERRES
   118   59  137 1    
   119   60   61 2    
   120   60   62 1    
   121   62   63 1    
   122   62   64 1    
   123   62  138 1    
   124   63  139 1    
   125   63  140 1    
   126   63  141 1    
   127   64   65 am   BACKBONE|DICT|INTERRES
   128   64  142 1    
   129   65   66 2    
   130   65   67 1    
   131   67   68 1    
   132   67   69 1    
   133   67  143 1    
   134   68  144 1    
   135   68  145 1    
   136   68  146 1    
   137   69   70 am   BACKBONE|DICT|INTERRES
   138   69  147 1    
   139   70   71 2    
   140   70   72 1    
   141   72   73 1    
   142   72   74 1    
   143   72  148 1    
   144   73  149 1    
   145   73  150 1    
   146   73  151 1    
   147   74   75 am   BACKBONE|DICT|INTERRES
   148   74  152 1    
   149   75   76 2    
   150   75   77 1    
   151   77   78 1    
   152   77   79 1    
   153   77  153 1    
   154   78  154 1    
   155   78  155 1    
   156   78  156 1    
   157   79   80 am   BACKBONE|DICT|INTERRES
   158   79  157 1    
   159   80   81 2    
@<TRIPOS>SUBSTRUCTURE
     1 UNK         1 GROUP             0       ****    0 ROOT    
