@<TRIPOS>MOLECULE
3R207
157   159    1
SMALL
USER_CHARGES


@<TRIPOS>ATOM
      1 CA        -46.1094  -26.3000   12.0774 C.3       0 UNK        -0.1975 
      2 C         -46.6069  -27.3569   11.1015 C.2       0 UNK         0.4852 
      3 O         -46.0160  -28.4335   11.0077 O.2       0 UNK        -0.5216 
      4 N         -47.6891  -27.0519   10.3782 N.am      1 UNK        -0.4461 
      5 CA        -48.2520  -27.8719    9.3053 C.3       1 UNK         0.0864 
      6 C6        -49.7533  -27.5473    9.0987 C.3       14 UNK        -0.0898 
      7 S7        -50.6954  -28.9969    8.5190 S.3       14 UNK        -0.2598 
      8 C8        -51.7681  -28.2621    7.2429 C.3       14 UNK         0.0286 
      9 C9        -52.8123  -27.3203    7.8314 C.ar      14 UNK        -0.0844 
     10 C10       -52.8399  -25.9739    7.4548 C.ar      14 UNK        -0.0881 
     11 C11       -53.8083  -25.1096    7.9757 C.ar      14 UNK        -0.0643 
     12 C12       -54.7485  -25.5996    8.8871 C.ar      14 UNK        -0.0930 
     13 C13       -54.7301  -26.9421    9.2774 C.ar      14 UNK        -0.0827 
     14 C14       -53.7689  -27.7998    8.7330 C.ar      14 UNK        -0.1249 
     15 C15       -55.7610  -27.4676   10.2690 C.3       14 UNK         0.0141 
     16 S16       -55.6206  -26.6597   11.8956 S.3       14 UNK        -0.2313 
     17 C17       -57.0641  -27.3697   12.7557 C.3       14 UNK        -0.0915 
     18 CA        -56.7566  -27.7692   14.2288 C.3       13 UNK         0.0968 
     19 C         -58.0385  -28.1394   15.0367 C.2       13 UNK         0.5732 
     20 N         -57.9654  -29.0283   16.0206 N.am      13 UNK        -0.7310 
     21 O         -59.1116  -27.5900   14.7977 O.2       13 UNK        -0.5035 
     22 N         -55.6534  -28.7385   14.3552 N.am      13 UNK        -0.4233 
     23 C         -55.6334  -29.9967   13.8956 C.2       13 UNK         0.4989 
     24 O         -56.5598  -30.5301   13.2823 O.2       13 UNK        -0.4996 
     25 CA        -54.3407  -30.7787   14.1926 C.3       12 UNK         0.0216 
     26 CB        -54.3405  -32.2166   13.6293 C.3       12 UNK        -0.1964 
     27 N         -53.1556  -30.0250   13.7675 N.am      12 UNK        -0.4276 
     28 C         -52.7980  -29.6964   12.5164 C.2       12 UNK         0.5020 
     29 O         -53.3818  -30.0866   11.5055 O.2       12 UNK        -0.5489 
     30 CA        -51.5880  -28.7569   12.3595 C.3       11 UNK         0.0294 
     31 CB        -52.0589  -27.3352   12.0185 C.3       11 UNK        -0.2019 
     32 N         -50.7404  -28.6665   13.5464 N.am      11 UNK        -0.4493 
     33 C         -49.9169  -29.6155   14.0069 C.2       11 UNK         0.4932 
     34 O         -49.7931  -30.7294   13.4989 O.2       11 UNK        -0.5029 
     35 CA        -49.0984  -29.2501   15.2536 C.3       10 UNK         0.0280 
     36 CB        -47.8449  -28.4553   14.8505 C.3       10 UNK        -0.1976 
     37 N         -49.8949  -28.4515   16.1888 N.am      10 UNK        -0.4242 
     38 C         -50.5724  -28.9453   17.2335 C.2       10 UNK         0.5072 
     39 O         -50.5549  -30.1317   17.5639 O.2       10 UNK        -0.5224 
     40 CA        -51.4164  -27.9537   18.0581 C.3       9 UNK         0.0343 
     41 CB        -50.5852  -27.3767   19.2154 C.3       9 UNK        -0.2003 
     42 N         -51.9778  -26.8514   17.2717 N.am      9 UNK        -0.4272 
     43 C         -52.9186  -26.9927   16.3283 C.2       9 UNK         0.4988 
     44 O         -53.4337  -28.0695   16.0261 O.2       9 UNK        -0.5108 
     45 CA        -53.3531  -25.7278   15.5670 C.3       8 UNK         0.0248 
     46 CB        -54.4784  -25.0130   16.3321 C.3       8 UNK        -0.2001 
     47 N         -52.2980  -24.7579   15.2357 N.am      8 UNK        -0.4140 
     48 C         -51.0790  -25.0195   14.7425 C.2       8 UNK         0.5028 
     49 O         -50.5931  -26.1468   14.6463 O.2       8 UNK        -0.5428 
     50 CA        -50.2719  -23.8235   14.2245 C.3       7 UNK         0.0264 
     51 CB        -48.7869  -23.9341   14.6149 C.3       7 UNK        -0.1988 
     52 N         -50.3742  -23.7605   12.7677 N.am      7 UNK        -0.4454 
     53 C         -51.4378  -23.3233   12.0790 C.2       7 UNK         0.5027 
     54 O         -52.4582  -22.8919   12.6191 O.2       7 UNK        -0.5083 
     55 CA        -51.3128  -23.3244   10.5363 C.3       6 UNK         0.0844 
     56 C56       -52.5382  -22.6744    9.8413 C.3       14 UNK        -0.0967 
     57 S57       -52.3944  -22.7037    8.0199 S.3       14 UNK        -0.2604 
     58 C58       -53.8650  -23.6561    7.5251 C.3       14 UNK         0.0134 
     59 N         -50.0564  -22.6803   10.1310 N.am      6 UNK        -0.4116 
     60 C         -48.8687  -23.2878   10.0583 C.2       5 UNK         0.5034 
     61 O         -48.6909  -24.4759   10.3343 O.2       5 UNK        -0.5045 
     62 CA        -47.6642  -22.4114    9.7146 C.3       5 UNK         0.0224 
     63 CB        -47.0004  -21.9151   11.0158 C.3       5 UNK        -0.1978 
     64 N         -46.7203  -23.1920    8.9165 N.am      5 UNK        -0.4737 
     65 C         -45.6673  -22.6925    8.2585 C.2       4 UNK         0.5027 
     66 O         -45.3690  -21.4979    8.2420 O.2       4 UNK        -0.5211 
     67 CA        -44.8113  -23.6946    7.4734 C.3       4 UNK         0.0297 
     68 CB        -44.0825  -24.6659    8.4193 C.3       4 UNK        -0.1993 
     69 N         -45.6214  -24.4433    6.5114 N.am      4 UNK        -0.4486 
     70 C         -45.9796  -23.9796    5.3027 C.2       3 UNK         0.4961 
     71 O         -45.6531  -22.8685    4.8823 O.2       3 UNK        -0.5105 
     72 CA        -46.8137  -24.9082    4.3977 C.3       3 UNK         0.0299 
     73 CB        -46.4888  -24.7255    2.9028 C.3       3 UNK        -0.1972 
     74 N         -46.6097  -26.3071    4.7691 N.am      3 UNK        -0.4305 
     75 C         -47.5793  -27.2023    4.9823 C.2       2 UNK         0.5006 
     76 O         -48.7700  -27.0080    4.7324 O.2       2 UNK        -0.5106 
     77 CA        -47.1636  -28.5249    5.6567 C.3       2 UNK         0.0296 
     78 CB        -45.6433  -28.8090    5.6252 C.3       2 UNK        -0.2002 
     79 N         -47.6670  -28.5760    7.0346 N.am      2 UNK        -0.4032 
     80 C         -47.4613  -27.6648    7.9993 C.2       1 UNK         0.5000 
     81 O         -46.7345  -26.6734    7.8686 O.2       1 UNK        -0.5238 
     82 H82       -45.9941  -26.7280   13.0726 H         1 UNK         0.0889 
     83 H83       -46.7965  -25.4571   12.1484 H         1 UNK         0.0889 
     84 H84       -45.1403  -25.9208   11.7545 H         1 UNK         0.0889 
     85 H85       -48.0873  -26.1161   10.4504 H         1 UNK         0.3028 
     86 H86       -48.1477  -28.9178    9.6033 H         1 UNK         0.0864 
     87 H87       -49.8972  -26.6962    8.4291 H         1 UNK         0.0720 
     88 H88       -50.2026  -27.2433   10.0406 H         1 UNK         0.0720 
     89 H89       -51.1477  -27.7530    6.5030 H         1 UNK         0.0814 
     90 H90       -52.2804  -29.0651    6.7115 H         1 UNK         0.0814 
     91 H91       -52.1132  -25.5942    6.7494 H         1 UNK         0.1469 
     92 H92       -55.5004  -24.9383    9.2955 H         1 UNK         0.1381 
     93 H93       -53.7487  -28.8409    9.0270 H         1 UNK         0.1206 
     94 H94       -56.7603  -27.2996    9.8654 H         1 UNK         0.0813 
     95 H95       -55.6534  -28.5455   10.4037 H         1 UNK         0.0813 
     96 H96       -57.4425  -28.2290   12.2005 H         1 UNK         0.0638 
     97 H97       -57.8524  -26.6161   12.7180 H         1 UNK         0.0638 
     98 H98       -56.3922  -26.8689   14.7228 H         1 UNK         0.0568 
     99 H99       -58.7966  -29.2524   16.5444 H         1 UNK         0.3450 
    100 H100      -57.0915  -29.4764   16.2428 H         1 UNK         0.3450 
    101 H101      -54.8500  -28.4228   14.8926 H         1 UNK         0.2987 
    102 H102      -54.2742  -30.8570   15.2790 H         1 UNK         0.0766 
    103 H103      -53.4096  -32.7333   13.8625 H         1 UNK         0.0798 
    104 H104      -55.1539  -32.8013   14.0605 H         1 UNK         0.0798 
    105 H105      -54.4716  -32.2331   12.5471 H         1 UNK         0.0798 
    106 H106      -52.6310  -29.5929   14.5177 H         1 UNK         0.3198 
    107 H107      -50.9772  -29.1350   11.5378 H         1 UNK         0.0843 
    108 H108      -52.5618  -27.3131   11.0550 H         1 UNK         0.0831 
    109 H109      -51.2277  -26.6330   11.9667 H         1 UNK         0.0831 
    110 H110      -52.7613  -26.9581   12.7594 H         1 UNK         0.0831 
    111 H111      -50.7256  -27.7564   14.0085 H         1 UNK         0.3133 
    112 H112      -48.7737  -30.1765   15.7321 H         1 UNK         0.0566 
    113 H113      -47.2327  -29.0215   14.1468 H         1 UNK         0.0814 
    114 H114      -47.2222  -28.2324   15.7168 H         1 UNK         0.0814 
    115 H115      -48.1025  -27.5097   14.3714 H         1 UNK         0.0814 
    116 H116      -50.0273  -27.4745   15.9429 H         1 UNK         0.3091 
    117 H117      -52.2505  -28.5142   18.4858 H         1 UNK         0.0702 
    118 H118      -51.1921  -26.7442   19.8636 H         1 UNK         0.0785 
    119 H119      -49.7460  -26.7815   18.8530 H         1 UNK         0.0785 
    120 H120      -50.1748  -28.1744   19.8365 H         1 UNK         0.0785 
    121 H121      -51.6055  -25.9288   17.4428 H         1 UNK         0.2998 
    122 H122      -53.7697  -26.0634   14.6165 H         1 UNK         0.0697 
    123 H123      -54.9358  -24.2307   15.7259 H         1 UNK         0.0825 
    124 H124      -54.1126  -24.5550   17.2519 H         1 UNK         0.0825 
    125 H125      -55.2722  -25.7079   16.6104 H         1 UNK         0.0825 
    126 H126      -52.5908  -23.7907   15.2343 H         1 UNK         0.3029 
    127 H127      -50.6722  -22.9027   14.6545 H         1 UNK         0.0897 
    128 H128      -48.3176  -24.8216   14.1884 H         1 UNK         0.0792 
    129 H129      -48.2230  -23.0643   14.2773 H         1 UNK         0.0792 
    130 H130      -48.6724  -23.9947   15.6979 H         1 UNK         0.0792 
    131 H131      -49.5962  -24.1345   12.2382 H         1 UNK         0.3086 
    132 H132      -51.2875  -24.3730   10.2292 H         1 UNK         0.0583 
    133 H133      -53.4563  -23.1834   10.1411 H         1 UNK         0.1020 
    134 H134      -52.6548  -21.6359   10.1568 H         1 UNK         0.1020 
    135 H135      -54.7569  -23.1599    7.9112 H         1 UNK         0.0694 
    136 H136      -53.9487  -23.6284    6.4378 H         1 UNK         0.0694 
    137 H137      -50.1169  -21.6937    9.9258 H         1 UNK         0.2989 
    138 H138      -48.0009  -21.5576    9.1223 H         1 UNK         0.1055 
    139 H139      -47.7153  -21.3821   11.6443 H         1 UNK         0.0806 
    140 H140      -46.1803  -21.2263   10.8140 H         1 UNK         0.0806 
    141 H141      -46.6029  -22.7430   11.6046 H         1 UNK         0.0806 
    142 H142      -46.9180  -24.1846    8.8652 H         1 UNK         0.3061 
    143 H143      -44.0490  -23.1320    6.9295 H         1 UNK         0.0734 
    144 H144      -43.4520  -24.1214    9.1233 H         1 UNK         0.0832 
    145 H145      -44.7754  -25.2699    9.0058 H         1 UNK         0.0832 
    146 H146      -43.4360  -25.3463    7.8652 H         1 UNK         0.0832 
    147 H147      -46.0028  -25.3296    6.8411 H         1 UNK         0.3156 
    148 H148      -47.8565  -24.6276    4.5595 H         1 UNK         0.0589 
    149 H149      -45.4409  -24.9400    2.6905 H         1 UNK         0.0808 
    150 H150      -47.0982  -25.3832    2.2829 H         1 UNK         0.0808 
    151 H151      -46.6874  -23.7034    2.5777 H         1 UNK         0.0808 
    152 H152      -45.6644  -26.5633    5.0193 H         1 UNK         0.3098 
    153 H153      -47.6637  -29.3227    5.1055 H         1 UNK         0.0720 
    154 H154      -45.4282  -29.8004    6.0243 H         1 UNK         0.0791 
    155 H155      -45.2586  -28.7889    4.6045 H         1 UNK         0.0791 
    156 H156      -45.0698  -28.0927    6.2148 H         1 UNK         0.0791 
    157 H157      -48.3292  -29.3157    7.2260 H         1 UNK         0.3028 
@<TRIPOS>BOND
     1    1    2 1    
     2    1   82 1    
     3    1   83 1    
     4    1   84 1    
     5    2    3 2    
     6    2    4 am   BACKBONE|DICT|INTERRES
     7    4    5 1    
     8    4   85 1    
     9    5    6 1    
    10    5   80 1    
    11    5   86 1    
    12    6    7 1    
    13    6   87 1    
    14    6   88 1    
    15    7    8 1    
    16    8    9 1    
    17    8   89 1    
    18    8   90 1    
    19    9   10 ar   
    20    9   14 ar   
    21   10   11 ar   
    22   10   91 1    
    23   11   12 ar   
    24   11   58 1    
    25   12   13 ar   
    26   12   92 1    
    27   13   14 ar   
    28   13   15 1    
    29   14   93 1    
    30   15   16 1    
    31   15   94 1    
    32   15   95 1    
    33   16   17 1    
    34   17   18 1    
    35   17   96 1    
    36   17   97 1    
    37   18   19 1    
    38   18   22 1    
    39   18   98 1    
    40   19   20 am   BACKBONE|DICT|INTERRES
    41   19   21 2    
    42   20   99 1    
    43   20  100 1    
    44   22   23 am   BACKBONE|DICT|INTERRES
    45   22  101 1    
    46   23   24 2    
    47   23   25 1    
    48   25   26 1    
    49   25   27 1    
    50   25  102 1    
    51   26  103 1    
    52   26  104 1    
    53   26  105 1    
    54   27   28 am   BACKBONE|DICT|INTERRES
    55   27  106 1    
    56   28   29 2    
    57   28   30 1    
    58   30   31 1    
    59   30   32 1    
    60   30  107 1    
    61   31  108 1    
    62   31  109 1    
    63   31  110 1    
    64   32   33 am   BACKBONE|DICT|INTERRES
    65   32  111 1    
    66   33   34 2    
    67   33   35 1    
    68   35   36 1    
    69   35   37 1    
    70   35  112 1    
    71   36  113 1    
    72   36  114 1    
    73   36  115 1    
    74   37   38 am   BACKBONE|DICT|INTERRES
    75   37  116 1    
    76   38   39 2    
    77   38   40 1    
    78   40   41 1    
    79   40   42 1    
    80   40  117 1    
    81   41  118 1    
    82   41  119 1    
    83   41  120 1    
    84   42   43 am   BACKBONE|DICT|INTERRES
    85   42  121 1    
    86   43   44 2    
    87   43   45 1    
    88   45   46 1    
    89   45   47 1    
    90   45  122 1    
    91   46  123 1    
    92   46  124 1    
    93   46  125 1    
    94   47   48 am   BACKBONE|DICT|INTERRES
    95   47  126 1    
    96   48   49 2    
    97   48   50 1    
    98   50   51 1    
    99   50   52 1    
   100   50  127 1    
   101   51  128 1    
   102   51  129 1    
   103   51  130 1    
   104   52   53 am   BACKBONE|DICT|INTERRES
   105   52  131 1    
   106   53   54 2    
   107   53   55 1    
   108   55   56 1    
   109   55   59 1    
   110   55  132 1    
   111   56   57 1    
   112   56  133 1    
   113   56  134 1    
   114   57   58 1    
   115   58  135 1    
   116   58  136 1    
   117   59   60 am   BACKBONE|DICT|INTERRES
   118   59  137 1    
   119   60   61 2    
   120   60   62 1    
   121   62   63 1    
   122   62   64 1    
   123   62  138 1    
   124   63  139 1    
   125   63  140 1    
   126   63  141 1    
   127   64   65 am   BACKBONE|DICT|INTERRES
   128   64  142 1    
   129   65   66 2    
   130   65   67 1    
   131   67   68 1    
   132   67   69 1    
   133   67  143 1    
   134   68  144 1    
   135   68  145 1    
   136   68  146 1    
   137   69   70 am   BACKBONE|DICT|INTERRES
   138   69  147 1    
   139   70   71 2    
   140   70   72 1    
   141   72   73 1    
   142   72   74 1    
   143   72  148 1    
   144   73  149 1    
   145   73  150 1    
   146   73  151 1    
   147   74   75 am   BACKBONE|DICT|INTERRES
   148   74  152 1    
   149   75   76 2    
   150   75   77 1    
   151   77   78 1    
   152   77   79 1    
   153   77  153 1    
   154   78  154 1    
   155   78  155 1    
   156   78  156 1    
   157   79   80 am   BACKBONE|DICT|INTERRES
   158   79  157 1    
   159   80   81 2    
@<TRIPOS>SUBSTRUCTURE
     1 UNK         1 GROUP             0       ****    0 ROOT    
