@<TRIPOS>MOLECULE
3R207
157   159    1
SMALL
USER_CHARGES


@<TRIPOS>ATOM
      1 CA        -44.2815  -28.5761    8.3464 C.3       0 UNK        -0.1975 
      2 C         -45.0856  -28.3123    7.0819 C.2       0 UNK         0.4852 
      3 O         -44.7093  -27.4497    6.2877 O.2       0 UNK        -0.5216 
      4 N         -46.1843  -29.0513    6.8879 N.am      1 UNK        -0.4461 
      5 CA        -47.1458  -28.8480    5.8016 C.3       1 UNK         0.0864 
      6 C6        -47.8549  -30.1779    5.4197 C.3       14 UNK        -0.0898 
      7 S7        -48.8894  -30.9013    6.7437 S.3       14 UNK        -0.2598 
      8 C8        -50.5626  -30.4874    6.1462 C.3       14 UNK         0.0286 
      9 C9        -51.5492  -30.3714    7.2971 C.ar      14 UNK        -0.0844 
     10 C10       -51.4331  -29.3128    8.2017 C.ar      14 UNK        -0.0881 
     11 C11       -52.3240  -29.1914    9.2707 C.ar      14 UNK        -0.0643 
     12 C12       -53.3293  -30.1461    9.4379 C.ar      14 UNK        -0.0930 
     13 C13       -53.4788  -31.1936    8.5245 C.ar      14 UNK        -0.0827 
     14 C14       -52.5807  -31.3029    7.4561 C.ar      14 UNK        -0.1249 
     15 C15       -54.5906  -32.2212    8.7032 C.3       14 UNK         0.0141 
     16 S16       -56.2560  -31.4897    8.5341 S.3       14 UNK        -0.2313 
     17 C17       -56.6783  -31.0423   10.2561 C.3       14 UNK        -0.0915 
     18 CA        -56.7165  -29.5076   10.5142 C.3       13 UNK         0.0968 
     19 C         -58.1037  -28.8841   10.1745 C.2       13 UNK         0.5732 
     20 N         -58.8341  -28.3259   11.1329 N.am      13 UNK        -0.7310 
     21 O         -58.5217  -28.8946    9.0194 O.2       13 UNK        -0.5035 
     22 N         -56.2158  -29.1980   11.8659 N.am      13 UNK        -0.4233 
     23 C         -55.6813  -28.0276   12.2326 C.2       13 UNK         0.4989 
     24 O         -55.5417  -27.0626   11.4762 O.2       13 UNK        -0.4996 
     25 CA        -55.1995  -27.9241   13.6862 C.3       12 UNK         0.0216 
     26 CB        -53.9488  -28.7946   13.9309 C.3       12 UNK        -0.1964 
     27 N         -54.9020  -26.5229   13.9663 N.am      12 UNK        -0.4276 
     28 C         -54.7372  -25.9664   15.1697 C.2       12 UNK         0.5020 
     29 O         -54.8423  -26.5826   16.2318 O.2       12 UNK        -0.5489 
     30 CA        -54.4181  -24.4636   15.1687 C.3       11 UNK         0.0294 
     31 CB        -55.6228  -23.6095   15.6129 C.3       11 UNK        -0.2019 
     32 N         -53.1918  -24.1775   15.9202 N.am      11 UNK        -0.4493 
     33 C         -52.9958  -24.0516   17.2412 C.2       11 UNK         0.4932 
     34 O         -53.8855  -24.0662   18.0938 O.2       11 UNK        -0.5029 
     35 CA        -51.5257  -23.8544   17.6625 C.3       10 UNK         0.0280 
     36 CB        -51.3314  -23.7215   19.1886 C.3       10 UNK        -0.1976 
     37 N         -50.6511  -24.8891   17.0987 N.am      10 UNK        -0.4242 
     38 C         -50.6853  -26.2096   17.3405 C.2       10 UNK         0.5072 
     39 O         -51.4236  -26.7381   18.1728 O.2       10 UNK        -0.5224 
     40 CA        -49.7528  -27.1157   16.5111 C.3       9 UNK         0.0343 
     41 CB        -50.5810  -27.9785   15.5432 C.3       9 UNK        -0.2003 
     42 N         -48.7349  -26.3913   15.7449 N.am      9 UNK        -0.4272 
     43 C         -47.6469  -25.8044   16.2625 C.2       9 UNK         0.4988 
     44 O         -47.3416  -25.8570   17.4541 O.2       9 UNK        -0.5108 
     45 CA        -46.7712  -24.9878   15.2927 C.3       8 UNK         0.0248 
     46 CB        -45.7684  -25.8955   14.5628 C.3       8 UNK        -0.2001 
     47 N         -47.5513  -24.2206   14.3140 N.am      8 UNK        -0.4140 
     48 C         -48.4121  -23.2404   14.6322 C.2       8 UNK         0.5028 
     49 O         -48.6243  -22.8595   15.7832 O.2       8 UNK        -0.5428 
     50 CA        -49.2174  -22.6178   13.4813 C.3       7 UNK         0.0264 
     51 CB        -48.3606  -21.6166   12.6905 C.3       7 UNK        -0.1988 
     52 N         -49.7563  -23.6305   12.5739 N.am      7 UNK        -0.4454 
     53 C         -50.6490  -24.5700   12.9175 C.2       7 UNK         0.5027 
     54 O         -51.1931  -24.6218   14.0200 O.2       7 UNK        -0.5083 
     55 CA        -50.9342  -25.6726   11.8820 C.3       6 UNK         0.0844 
     56 C56       -52.0322  -25.2529   10.8726 C.3       14 UNK        -0.0967 
     57 S57       -52.2968  -26.4154    9.4800 S.3       14 UNK        -0.2604 
     58 C58       -52.1718  -28.0574   10.2695 C.3       14 UNK         0.0134 
     59 N         -49.7020  -26.1013   11.2207 N.am      6 UNK        -0.4116 
     60 C         -48.7289  -26.8124   11.8013 C.2       5 UNK         0.5034 
     61 O         -48.7373  -27.1488   12.9831 O.2       5 UNK        -0.5045 
     62 CA        -47.5412  -27.2036   10.9116 C.3       5 UNK         0.0224 
     63 CB        -47.7904  -28.5794   10.2748 C.3       5 UNK        -0.1978 
     64 N         -47.2743  -26.2033    9.8724 N.am      5 UNK        -0.4737 
     65 C         -46.7909  -24.9817   10.1464 C.2       4 UNK         0.5027 
     66 O         -46.4863  -24.6090   11.2812 O.2       4 UNK        -0.5211 
     67 CA        -46.6791  -23.9957    8.9738 C.3       4 UNK         0.0297 
     68 CB        -45.5266  -24.3832    8.0361 C.3       4 UNK        -0.1993 
     69 N         -47.9173  -23.8702    8.2016 N.am      4 UNK        -0.4486 
     70 C         -49.0957  -23.4474    8.6747 C.2       3 UNK         0.4961 
     71 O         -49.2888  -23.1519    9.8520 O.2       3 UNK        -0.5105 
     72 CA        -50.2725  -23.3535    7.6872 C.3       3 UNK         0.0299 
     73 CB        -50.1957  -22.0656    6.8445 C.3       3 UNK        -0.1972 
     74 N         -50.4514  -24.5497    6.8545 N.am      3 UNK        -0.4305 
     75 C         -49.6458  -25.0289    5.8977 C.2       2 UNK         0.5006 
     76 O         -48.6141  -24.4748    5.5097 O.2       2 UNK        -0.5106 
     77 CA        -50.0582  -26.3767    5.2883 C.3       2 UNK         0.0296 
     78 CB        -50.7164  -26.1706    3.9149 C.3       2 UNK        -0.2002 
     79 N         -48.9338  -27.3067    5.1535 N.am      2 UNK        -0.4032 
     80 C         -48.1484  -27.7265    6.1570 C.2       1 UNK         0.5000 
     81 O         -48.2314  -27.3071    7.3174 O.2       1 UNK        -0.5238 
     82 H82       -43.2232  -28.6755    8.1064 H         1 UNK         0.0889 
     83 H83       -44.5999  -29.4897    8.8482 H         1 UNK         0.0889 
     84 H84       -44.3983  -27.7451    9.0420 H         1 UNK         0.0889 
     85 H85       -46.4655  -29.7295    7.5811 H         1 UNK         0.3028 
     86 H86       -46.5957  -28.5106    4.9202 H         1 UNK         0.0864 
     87 H87       -47.1013  -30.9201    5.1515 H         1 UNK         0.0720 
     88 H88       -48.4539  -30.0490    4.5167 H         1 UNK         0.0720 
     89 H89       -50.8824  -31.2454    5.4295 H         1 UNK         0.0814 
     90 H90       -50.5526  -29.5411    5.6059 H         1 UNK         0.0814 
     91 H91       -50.6402  -28.5869    8.0792 H         1 UNK         0.1469 
     92 H92       -53.9965  -30.0743   10.2828 H         1 UNK         0.1381 
     93 H93       -52.6792  -32.1176    6.7515 H         1 UNK         0.1206 
     94 H94       -54.4958  -33.0077    7.9530 H         1 UNK         0.0813 
     95 H95       -54.4822  -32.7198    9.6670 H         1 UNK         0.0813 
     96 H96       -55.9510  -31.5192   10.9141 H         1 UNK         0.0638 
     97 H97       -57.6324  -31.5074   10.5115 H         1 UNK         0.0638 
     98 H98       -56.0229  -29.0351    9.8162 H         1 UNK         0.0568 
     99 H99       -59.7266  -27.9210   10.8982 H         1 UNK         0.3450 
    100 H100      -58.5059  -28.3064   12.0844 H         1 UNK         0.3450 
    101 H101      -56.3179  -29.9291   12.5545 H         1 UNK         0.2987 
    102 H102      -56.0115  -28.2517   14.3388 H         1 UNK         0.0766 
    103 H103      -53.6702  -28.7956   14.9847 H         1 UNK         0.0798 
    104 H104      -53.0888  -28.4367   13.3653 H         1 UNK         0.0798 
    105 H105      -54.1194  -29.8339   13.6480 H         1 UNK         0.0798 
    106 H106      -54.8779  -25.9516   13.1290 H         1 UNK         0.3198 
    107 H107      -54.1837  -24.1707   14.1437 H         1 UNK         0.0843 
    108 H108      -55.3697  -22.5500   15.6497 H         1 UNK         0.0831 
    109 H109      -55.9926  -23.9035   16.5955 H         1 UNK         0.0831 
    110 H110      -56.4528  -23.7223   14.9145 H         1 UNK         0.0831 
    111 H111      -52.3539  -24.2163   15.3394 H         1 UNK         0.3133 
    112 H112      -51.2032  -22.9138   17.2134 H         1 UNK         0.0566 
    113 H113      -50.2828  -23.5654   19.4419 H         1 UNK         0.0814 
    114 H114      -51.8895  -22.8691   19.5774 H         1 UNK         0.0814 
    115 H115      -51.6786  -24.6054   19.7242 H         1 UNK         0.0814 
    116 H116      -49.9995  -24.5607   16.3963 H         1 UNK         0.3091 
    117 H117      -49.2419  -27.7815   17.2096 H         1 UNK         0.0702 
    118 H118      -49.9498  -28.6728   14.9884 H         1 UNK         0.0785 
    119 H119      -51.1207  -27.3643   14.8218 H         1 UNK         0.0785 
    120 H120      -51.3199  -28.5732   16.0817 H         1 UNK         0.0785 
    121 H121      -48.8561  -26.3818   14.7357 H         1 UNK         0.2998 
    122 H122      -46.2037  -24.2703   15.8890 H         1 UNK         0.0697 
    123 H123      -45.1148  -25.3199   13.9068 H         1 UNK         0.0825 
    124 H124      -45.1318  -26.4225   15.2746 H         1 UNK         0.0825 
    125 H125      -46.2700  -26.6495   13.9566 H         1 UNK         0.0825 
    126 H126      -47.4185  -24.4527   13.3362 H         1 UNK         0.3029 
    127 H127      -50.0603  -22.0778   13.9183 H         1 UNK         0.0897 
    128 H128      -48.9507  -21.1092   11.9270 H         1 UNK         0.0792 
    129 H129      -47.9492  -20.8486   13.3469 H         1 UNK         0.0792 
    130 H130      -47.5231  -22.1058   12.1911 H         1 UNK         0.0792 
    131 H131      -49.4144  -23.6064   11.6140 H         1 UNK         0.3086 
    132 H132      -51.3153  -26.5260   12.4463 H         1 UNK         0.0583 
    133 H133      -52.9851  -25.1319   11.3912 H         1 UNK         0.1020 
    134 H134      -51.8039  -24.2761   10.4430 H         1 UNK         0.1020 
    135 H135      -51.2086  -28.1881   10.7583 H         1 UNK         0.0694 
    136 H136      -52.9306  -28.1239   11.0477 H         1 UNK         0.0694 
    137 H137      -49.6014  -25.8563   10.2471 H         1 UNK         0.2989 
    138 H138      -46.6592  -27.2779   11.5514 H         1 UNK         0.1055 
    139 H139      -47.9620  -29.3376   11.0401 H         1 UNK         0.0806 
    140 H140      -46.9345  -28.9045    9.6870 H         1 UNK         0.0806 
    141 H141      -48.6643  -28.5746    9.6228 H         1 UNK         0.0806 
    142 H142      -47.5313  -26.4470    8.9173 H         1 UNK         0.3061 
    143 H143      -46.4565  -23.0135    9.3959 H         1 UNK         0.0734 
    144 H144      -45.3424  -23.6069    7.2935 H         1 UNK         0.0832 
    145 H145      -44.5983  -24.5294    8.5901 H         1 UNK         0.0832 
    146 H146      -45.7405  -25.3091    7.5025 H         1 UNK         0.0832 
    147 H147      -47.8798  -24.1126    7.2142 H         1 UNK         0.3156 
    148 H148      -51.1796  -23.2855    8.2893 H         1 UNK         0.0589 
    149 H149      -49.2984  -22.0289    6.2263 H         1 UNK         0.0808 
    150 H150      -51.0598  -21.9702    6.1870 H         1 UNK         0.0808 
    151 H151      -50.1787  -21.1843    7.4871 H         1 UNK         0.0808 
    152 H152      -51.2547  -25.1113    7.1045 H         1 UNK         0.3098 
    153 H153      -50.7863  -26.8512    5.9500 H         1 UNK         0.0720 
    154 H154      -50.0213  -25.7323    3.1973 H         1 UNK         0.0791 
    155 H155      -51.5735  -25.4997    3.9888 H         1 UNK         0.0791 
    156 H156      -51.0793  -27.1118    3.5013 H         1 UNK         0.0791 
    157 H157      -48.7713  -27.6728    4.2271 H         1 UNK         0.3028 
@<TRIPOS>BOND
     1    1    2 1    
     2    1   82 1    
     3    1   83 1    
     4    1   84 1    
     5    2    3 2    
     6    2    4 am   BACKBONE|DICT|INTERRES
     7    4    5 1    
     8    4   85 1    
     9    5    6 1    
    10    5   80 1    
    11    5   86 1    
    12    6    7 1    
    13    6   87 1    
    14    6   88 1    
    15    7    8 1    
    16    8    9 1    
    17    8   89 1    
    18    8   90 1    
    19    9   10 ar   
    20    9   14 ar   
    21   10   11 ar   
    22   10   91 1    
    23   11   12 ar   
    24   11   58 1    
    25   12   13 ar   
    26   12   92 1    
    27   13   14 ar   
    28   13   15 1    
    29   14   93 1    
    30   15   16 1    
    31   15   94 1    
    32   15   95 1    
    33   16   17 1    
    34   17   18 1    
    35   17   96 1    
    36   17   97 1    
    37   18   19 1    
    38   18   22 1    
    39   18   98 1    
    40   19   20 am   BACKBONE|DICT|INTERRES
    41   19   21 2    
    42   20   99 1    
    43   20  100 1    
    44   22   23 am   BACKBONE|DICT|INTERRES
    45   22  101 1    
    46   23   24 2    
    47   23   25 1    
    48   25   26 1    
    49   25   27 1    
    50   25  102 1    
    51   26  103 1    
    52   26  104 1    
    53   26  105 1    
    54   27   28 am   BACKBONE|DICT|INTERRES
    55   27  106 1    
    56   28   29 2    
    57   28   30 1    
    58   30   31 1    
    59   30   32 1    
    60   30  107 1    
    61   31  108 1    
    62   31  109 1    
    63   31  110 1    
    64   32   33 am   BACKBONE|DICT|INTERRES
    65   32  111 1    
    66   33   34 2    
    67   33   35 1    
    68   35   36 1    
    69   35   37 1    
    70   35  112 1    
    71   36  113 1    
    72   36  114 1    
    73   36  115 1    
    74   37   38 am   BACKBONE|DICT|INTERRES
    75   37  116 1    
    76   38   39 2    
    77   38   40 1    
    78   40   41 1    
    79   40   42 1    
    80   40  117 1    
    81   41  118 1    
    82   41  119 1    
    83   41  120 1    
    84   42   43 am   BACKBONE|DICT|INTERRES
    85   42  121 1    
    86   43   44 2    
    87   43   45 1    
    88   45   46 1    
    89   45   47 1    
    90   45  122 1    
    91   46  123 1    
    92   46  124 1    
    93   46  125 1    
    94   47   48 am   BACKBONE|DICT|INTERRES
    95   47  126 1    
    96   48   49 2    
    97   48   50 1    
    98   50   51 1    
    99   50   52 1    
   100   50  127 1    
   101   51  128 1    
   102   51  129 1    
   103   51  130 1    
   104   52   53 am   BACKBONE|DICT|INTERRES
   105   52  131 1    
   106   53   54 2    
   107   53   55 1    
   108   55   56 1    
   109   55   59 1    
   110   55  132 1    
   111   56   57 1    
   112   56  133 1    
   113   56  134 1    
   114   57   58 1    
   115   58  135 1    
   116   58  136 1    
   117   59   60 am   BACKBONE|DICT|INTERRES
   118   59  137 1    
   119   60   61 2    
   120   60   62 1    
   121   62   63 1    
   122   62   64 1    
   123   62  138 1    
   124   63  139 1    
   125   63  140 1    
   126   63  141 1    
   127   64   65 am   BACKBONE|DICT|INTERRES
   128   64  142 1    
   129   65   66 2    
   130   65   67 1    
   131   67   68 1    
   132   67   69 1    
   133   67  143 1    
   134   68  144 1    
   135   68  145 1    
   136   68  146 1    
   137   69   70 am   BACKBONE|DICT|INTERRES
   138   69  147 1    
   139   70   71 2    
   140   70   72 1    
   141   72   73 1    
   142   72   74 1    
   143   72  148 1    
   144   73  149 1    
   145   73  150 1    
   146   73  151 1    
   147   74   75 am   BACKBONE|DICT|INTERRES
   148   74  152 1    
   149   75   76 2    
   150   75   77 1    
   151   77   78 1    
   152   77   79 1    
   153   77  153 1    
   154   78  154 1    
   155   78  155 1    
   156   78  156 1    
   157   79   80 am   BACKBONE|DICT|INTERRES
   158   79  157 1    
   159   80   81 2    
@<TRIPOS>SUBSTRUCTURE
     1 UNK         1 GROUP             0       ****    0 ROOT    
