@<TRIPOS>MOLECULE
3R207
157   159    1
SMALL
USER_CHARGES


@<TRIPOS>ATOM
      1 CA        -53.2727  -25.7586    1.3407 C.3       0 UNK        -0.1975 
      2 C         -52.4352  -25.5824    2.5991 C.2       0 UNK         0.4852 
      3 O         -52.3684  -24.4766    3.1387 O.2       0 UNK        -0.5216 
      4 N         -51.8041  -26.6644    3.0734 N.am      1 UNK        -0.4461 
      5 CA        -50.9010  -26.6644    4.2288 C.3       1 UNK         0.0864 
      6 C6        -50.7426  -28.0917    4.8169 C.3       14 UNK        -0.0898 
      7 S7        -50.3482  -28.0691    6.6009 S.3       14 UNK        -0.2598 
      8 C8        -51.7634  -28.9871    7.2817 C.3       14 UNK         0.0286 
      9 C9        -51.6828  -29.1202    8.7957 C.ar      14 UNK        -0.0844 
     10 C10       -50.6908  -29.9142    9.3796 C.ar      14 UNK        -0.0881 
     11 C11       -50.6383  -30.0793   10.7662 C.ar      14 UNK        -0.0643 
     12 C12       -51.6003  -29.4575   11.5643 C.ar      14 UNK        -0.0930 
     13 C13       -52.5870  -28.6429   11.0031 C.ar      14 UNK        -0.0827 
     14 C14       -52.6171  -28.4745    9.6119 C.ar      14 UNK        -0.1249 
     15 C15       -53.5607  -27.9535   11.9591 C.3       14 UNK         0.0141 
     16 S16       -54.9745  -27.0765   11.2086 S.3       14 UNK        -0.2313 
     17 C17       -55.9956  -28.4583   10.5934 C.3       14 UNK        -0.0915 
     18 CA        -57.1409  -28.8297   11.5720 C.3       13 UNK         0.0968 
     19 C         -58.1754  -29.7785   10.8979 C.2       13 UNK         0.5732 
     20 N         -58.3901  -30.9937   11.3889 N.am      13 UNK        -0.7310 
     21 O         -58.8062  -29.3983    9.9144 O.2       13 UNK        -0.5035 
     22 N         -56.6039  -29.3270   12.8489 N.am      13 UNK        -0.4233 
     23 C         -57.2362  -29.2627   14.0266 C.2       13 UNK         0.4989 
     24 O         -58.3475  -28.7604   14.1933 O.2       13 UNK        -0.4996 
     25 CA        -56.4730  -29.8368   15.2227 C.3       12 UNK         0.0216 
     26 CB        -56.2879  -31.3636   15.0918 C.3       12 UNK        -0.1964 
     27 N         -55.1886  -29.1475   15.3599 N.am      12 UNK        -0.4276 
     28 C         -54.4100  -29.1742   16.4475 C.2       12 UNK         0.5020 
     29 O         -54.6658  -29.8372   17.4540 O.2       12 UNK        -0.5489 
     30 CA        -53.1217  -28.3270   16.4277 C.3       11 UNK         0.0294 
     31 CB        -51.9097  -29.2137   16.0978 C.3       11 UNK        -0.2019 
     32 N         -53.1144  -27.1638   15.5304 N.am      11 UNK        -0.4493 
     33 C         -53.9740  -26.1339   15.5677 C.2       11 UNK         0.4932 
     34 O         -54.9908  -26.1079   16.2623 O.2       11 UNK        -0.5029 
     35 CA        -53.5856  -24.9124   14.7124 C.3       10 UNK         0.0280 
     36 CB        -54.6064  -23.7584   14.7943 C.3       10 UNK        -0.1976 
     37 N         -52.2328  -24.4442   15.0369 N.am      10 UNK        -0.4242 
     38 C         -51.7741  -24.0332   16.2313 C.2       10 UNK         0.5072 
     39 O         -52.4793  -23.8918   17.2314 O.2       10 UNK        -0.5224 
     40 CA        -50.2637  -23.7586   16.3576 C.3       9 UNK         0.0343 
     41 CB        -49.5856  -24.9127   17.1147 C.3       9 UNK        -0.2003 
     42 N         -49.5864  -23.5682   15.0728 N.am      9 UNK        -0.4272 
     43 C         -49.7025  -22.4761   14.3040 C.2       9 UNK         0.4988 
     44 O         -50.3409  -21.4741   14.6280 O.2       9 UNK        -0.5108 
     45 CA        -49.0175  -22.5214   12.9268 C.3       8 UNK         0.0248 
     46 CB        -47.5270  -22.1661   13.0469 C.3       8 UNK        -0.2001 
     47 N         -49.1600  -23.8175   12.2574 N.am      8 UNK        -0.4140 
     48 C         -50.3251  -24.3716   11.8907 C.2       8 UNK         0.5028 
     49 O         -51.4218  -23.8366   12.0491 O.2       8 UNK        -0.5428 
     50 CA        -50.2619  -25.7866   11.3024 C.3       7 UNK         0.0264 
     51 CB        -49.8176  -25.7678    9.8320 C.3       7 UNK        -0.1988 
     52 N         -49.3788  -26.6534   12.0813 N.am      7 UNK        -0.4454 
     53 C         -49.6659  -27.1402   13.2973 C.2       7 UNK         0.5027 
     54 O         -50.7330  -26.9418   13.8832 O.2       7 UNK        -0.5083 
     55 CA        -48.5647  -27.9672   13.9945 C.3       6 UNK         0.0844 
     56 C56       -48.6719  -29.4813   13.6820 C.3       14 UNK        -0.0967 
     57 S57       -48.1457  -29.9484   11.9900 S.3       14 UNK        -0.2604 
     58 C58       -49.5549  -30.9417   11.3977 C.3       14 UNK         0.0134 
     59 N         -47.2189  -27.4502   13.7349 N.am      6 UNK        -0.4116 
     60 C         -46.7586  -26.2613   14.1449 C.2       5 UNK         0.5034 
     61 O         -47.4104  -25.4661   14.8193 O.2       5 UNK        -0.5045 
     62 CA        -45.3488  -25.8719   13.6704 C.3       5 UNK         0.0224 
     63 CB        -44.2774  -26.5006   14.5754 C.3       5 UNK        -0.1978 
     64 N         -45.0882  -26.2286   12.2700 N.am      5 UNK        -0.4737 
     65 C         -45.7908  -25.7566   11.2325 C.2       4 UNK         0.5027 
     66 O         -46.7600  -25.0046   11.3524 O.2       4 UNK        -0.5211 
     67 CA        -45.3829  -26.2478    9.8379 C.3       4 UNK         0.0297 
     68 CB        -46.1413  -27.5379    9.4835 C.3       4 UNK        -0.1993 
     69 N         -45.6927  -25.2279    8.8392 N.am      4 UNK        -0.4486 
     70 C         -44.9566  -24.1409    8.5845 C.2       3 UNK         0.4961 
     71 O         -43.8497  -23.9390    9.0879 O.2       3 UNK        -0.5105 
     72 CA        -45.5579  -23.1175    7.5933 C.3       3 UNK         0.0299 
     73 CB        -44.5721  -21.9887    7.2365 C.3       3 UNK        -0.1972 
     74 N         -46.0417  -23.7355    6.3519 N.am      3 UNK        -0.4305 
     75 C         -47.1679  -24.4488    6.2296 C.2       2 UNK         0.5006 
     76 O         -47.9454  -24.6580    7.1661 O.2       2 UNK        -0.5106 
     77 CA        -47.4478  -25.0727    4.8573 C.3       2 UNK         0.0296 
     78 CB        -46.4179  -26.1753    4.5335 C.3       2 UNK        -0.2002 
     79 N         -48.7919  -25.6368    4.9003 N.am      2 UNK        -0.4032 
     80 C         -49.5307  -26.0477    3.8674 C.2       1 UNK         0.5000 
     81 O         -49.1602  -25.9881    2.6904 O.2       1 UNK        -0.5238 
     82 H82       -53.2558  -26.7869    0.9798 H         1 UNK         0.0889 
     83 H83       -52.8956  -25.1146    0.5466 H         1 UNK         0.0889 
     84 H84       -54.3091  -25.4859    1.5382 H         1 UNK         0.0889 
     85 H85       -51.8655  -27.5349    2.5649 H         1 UNK         0.3028 
     86 H86       -51.3600  -26.0273    4.9889 H         1 UNK         0.0864 
     87 H87       -51.6680  -28.6539    4.6814 H         1 UNK         0.0720 
     88 H88       -49.9771  -28.6636    4.2880 H         1 UNK         0.0720 
     89 H89       -51.7954  -29.9832    6.8376 H         1 UNK         0.0814 
     90 H90       -52.6878  -28.4869    6.9882 H         1 UNK         0.0814 
     91 H91       -49.9594  -30.4031    8.7505 H         1 UNK         0.1469 
     92 H92       -51.5706  -29.5903   12.6355 H         1 UNK         0.1381 
     93 H93       -53.3680  -27.8483    9.1527 H         1 UNK         0.1206 
     94 H94       -52.9974  -27.2263   12.5406 H         1 UNK         0.0813 
     95 H95       -53.9334  -28.6851   12.6738 H         1 UNK         0.0813 
     96 H96       -55.3665  -29.3255   10.3855 H         1 UNK         0.0638 
     97 H97       -56.4003  -28.1423    9.6302 H         1 UNK         0.0638 
     98 H98       -57.6941  -27.9123   11.7831 H         1 UNK         0.0568 
     99 H99       -59.0680  -31.5909   10.9422 H         1 UNK         0.3450 
    100 H100      -57.8862  -31.3192   12.1969 H         1 UNK         0.3450 
    101 H101      -55.7244  -29.8162   12.7921 H         1 UNK         0.2987 
    102 H102      -57.0675  -29.6344   16.1165 H         1 UNK         0.0766 
    103 H103      -55.6124  -31.6272   14.2775 H         1 UNK         0.0798 
    104 H104      -57.2414  -31.8588   14.9031 H         1 UNK         0.0798 
    105 H105      -55.8834  -31.7951   16.0073 H         1 UNK         0.0798 
    106 H106      -54.9457  -28.5015   14.6231 H         1 UNK         0.3198 
    107 H107      -52.9895  -27.9399   17.4402 H         1 UNK         0.0843 
    108 H108      -51.9589  -29.5963   15.0784 H         1 UNK         0.0831 
    109 H109      -51.8588  -30.0739   16.7670 H         1 UNK         0.0831 
    110 H110      -50.9743  -28.6652   16.2088 H         1 UNK         0.0831 
    111 H111      -52.2902  -27.0659   14.9393 H         1 UNK         0.3133 
    112 H112      -53.5550  -25.2462   13.6750 H         1 UNK         0.0566 
    113 H113      -55.5913  -24.0873   14.4606 H         1 UNK         0.0814 
    114 H114      -54.7173  -23.3817   15.8115 H         1 UNK         0.0814 
    115 H115      -54.3100  -22.9244   14.1581 H         1 UNK         0.0814 
    116 H116      -51.5639  -24.5157   14.2807 H         1 UNK         0.3091 
    117 H117      -50.1440  -22.8467   16.9462 H         1 UNK         0.0702 
    118 H118      -48.5272  -24.7109   17.2806 H         1 UNK         0.0785 
    119 H119      -49.6663  -25.8533   16.5679 H         1 UNK         0.0785 
    120 H120      -50.0431  -25.0636   18.0934 H         1 UNK         0.0785 
    121 H121      -48.9666  -24.3163   14.7729 H         1 UNK         0.2998 
    122 H122      -49.4972  -21.7723   12.2937 H         1 UNK         0.0697 
    123 H123      -46.9875  -22.8918   13.6562 H         1 UNK         0.0825 
    124 H124      -47.3943  -21.1871   13.5092 H         1 UNK         0.0825 
    125 H125      -47.0475  -22.1316   12.0682 H         1 UNK         0.0825 
    126 H126      -48.2976  -24.3157   12.0391 H         1 UNK         0.3029 
    127 H127      -51.2688  -26.2019   11.3371 H         1 UNK         0.0897 
    128 H128      -48.8230  -25.3399    9.7089 H         1 UNK         0.0792 
    129 H129      -50.5027  -25.1740    9.2259 H         1 UNK         0.0792 
    130 H130      -49.8059  -26.7733    9.4113 H         1 UNK         0.0792 
    131 H131      -48.4692  -26.8452   11.6889 H         1 UNK         0.3086 
    132 H132      -48.7388  -27.8526   15.0667 H         1 UNK         0.0583 
    133 H133      -48.0360  -30.0307   14.3781 H         1 UNK         0.1020 
    134 H134      -49.6801  -29.8425   13.8848 H         1 UNK         0.1020 
    135 H135      -49.1834  -31.6604   10.6656 H         1 UNK         0.0694 
    136 H136      -49.9679  -31.5356   12.2143 H         1 UNK         0.0694 
    137 H137      -46.6205  -28.0326   13.1675 H         1 UNK         0.2989 
    138 H138      -45.2699  -24.7856   13.7532 H         1 UNK         0.1055 
    139 H139      -44.4460  -26.2359   15.6204 H         1 UNK         0.0806 
    140 H140      -43.2797  -26.1485   14.3125 H         1 UNK         0.0806 
    141 H141      -44.2776  -27.5894   14.5111 H         1 UNK         0.0806 
    142 H142      -44.3108  -26.8496   12.0931 H         1 UNK         0.3061 
    143 H143      -44.3096  -26.4489    9.8251 H         1 UNK         0.0734 
    144 H144      -45.8617  -27.9020    8.4947 H         1 UNK         0.0832 
    145 H145      -45.9175  -28.3341   10.1947 H         1 UNK         0.0832 
    146 H146      -47.2221  -27.3911    9.4895 H         1 UNK         0.0832 
    147 H147      -46.6164  -25.2623    8.4171 H         1 UNK         0.3156 
    148 H148      -46.4094  -22.6583    8.1002 H         1 UNK         0.0589 
    149 H149      -43.6823  -22.3728    6.7361 H         1 UNK         0.0808 
    150 H150      -45.0341  -21.2495    6.5818 H         1 UNK         0.0808 
    151 H151      -44.2409  -21.4601    8.1315 H         1 UNK         0.0808 
    152 H152      -45.4402  -23.6441    5.5455 H         1 UNK         0.3098 
    153 H153      -47.4120  -24.2869    4.1003 H         1 UNK         0.0720 
    154 H154      -46.6092  -26.6299    3.5615 H         1 UNK         0.0791 
    155 H155      -46.4342  -26.9698    5.2809 H         1 UNK         0.0791 
    156 H156      -45.4033  -25.7770    4.5018 H         1 UNK         0.0791 
    157 H157      -49.1633  -25.7055    5.8422 H         1 UNK         0.3028 
@<TRIPOS>BOND
     1    1    2 1    
     2    1   82 1    
     3    1   83 1    
     4    1   84 1    
     5    2    3 2    
     6    2    4 am   BACKBONE|DICT|INTERRES
     7    4    5 1    
     8    4   85 1    
     9    5    6 1    
    10    5   80 1    
    11    5   86 1    
    12    6    7 1    
    13    6   87 1    
    14    6   88 1    
    15    7    8 1    
    16    8    9 1    
    17    8   89 1    
    18    8   90 1    
    19    9   10 ar   
    20    9   14 ar   
    21   10   11 ar   
    22   10   91 1    
    23   11   12 ar   
    24   11   58 1    
    25   12   13 ar   
    26   12   92 1    
    27   13   14 ar   
    28   13   15 1    
    29   14   93 1    
    30   15   16 1    
    31   15   94 1    
    32   15   95 1    
    33   16   17 1    
    34   17   18 1    
    35   17   96 1    
    36   17   97 1    
    37   18   19 1    
    38   18   22 1    
    39   18   98 1    
    40   19   20 am   BACKBONE|DICT|INTERRES
    41   19   21 2    
    42   20   99 1    
    43   20  100 1    
    44   22   23 am   BACKBONE|DICT|INTERRES
    45   22  101 1    
    46   23   24 2    
    47   23   25 1    
    48   25   26 1    
    49   25   27 1    
    50   25  102 1    
    51   26  103 1    
    52   26  104 1    
    53   26  105 1    
    54   27   28 am   BACKBONE|DICT|INTERRES
    55   27  106 1    
    56   28   29 2    
    57   28   30 1    
    58   30   31 1    
    59   30   32 1    
    60   30  107 1    
    61   31  108 1    
    62   31  109 1    
    63   31  110 1    
    64   32   33 am   BACKBONE|DICT|INTERRES
    65   32  111 1    
    66   33   34 2    
    67   33   35 1    
    68   35   36 1    
    69   35   37 1    
    70   35  112 1    
    71   36  113 1    
    72   36  114 1    
    73   36  115 1    
    74   37   38 am   BACKBONE|DICT|INTERRES
    75   37  116 1    
    76   38   39 2    
    77   38   40 1    
    78   40   41 1    
    79   40   42 1    
    80   40  117 1    
    81   41  118 1    
    82   41  119 1    
    83   41  120 1    
    84   42   43 am   BACKBONE|DICT|INTERRES
    85   42  121 1    
    86   43   44 2    
    87   43   45 1    
    88   45   46 1    
    89   45   47 1    
    90   45  122 1    
    91   46  123 1    
    92   46  124 1    
    93   46  125 1    
    94   47   48 am   BACKBONE|DICT|INTERRES
    95   47  126 1    
    96   48   49 2    
    97   48   50 1    
    98   50   51 1    
    99   50   52 1    
   100   50  127 1    
   101   51  128 1    
   102   51  129 1    
   103   51  130 1    
   104   52   53 am   BACKBONE|DICT|INTERRES
   105   52  131 1    
   106   53   54 2    
   107   53   55 1    
   108   55   56 1    
   109   55   59 1    
   110   55  132 1    
   111   56   57 1    
   112   56  133 1    
   113   56  134 1    
   114   57   58 1    
   115   58  135 1    
   116   58  136 1    
   117   59   60 am   BACKBONE|DICT|INTERRES
   118   59  137 1    
   119   60   61 2    
   120   60   62 1    
   121   62   63 1    
   122   62   64 1    
   123   62  138 1    
   124   63  139 1    
   125   63  140 1    
   126   63  141 1    
   127   64   65 am   BACKBONE|DICT|INTERRES
   128   64  142 1    
   129   65   66 2    
   130   65   67 1    
   131   67   68 1    
   132   67   69 1    
   133   67  143 1    
   134   68  144 1    
   135   68  145 1    
   136   68  146 1    
   137   69   70 am   BACKBONE|DICT|INTERRES
   138   69  147 1    
   139   70   71 2    
   140   70   72 1    
   141   72   73 1    
   142   72   74 1    
   143   72  148 1    
   144   73  149 1    
   145   73  150 1    
   146   73  151 1    
   147   74   75 am   BACKBONE|DICT|INTERRES
   148   74  152 1    
   149   75   76 2    
   150   75   77 1    
   151   77   78 1    
   152   77   79 1    
   153   77  153 1    
   154   78  154 1    
   155   78  155 1    
   156   78  156 1    
   157   79   80 am   BACKBONE|DICT|INTERRES
   158   79  157 1    
   159   80   81 2    
@<TRIPOS>SUBSTRUCTURE
     1 UNK         1 GROUP             0       ****    0 ROOT    
