@<TRIPOS>MOLECULE
3R207
157   159    1
SMALL
USER_CHARGES


@<TRIPOS>ATOM
      1 CA        -45.2946  -28.8886    9.0228 C.3       0 UNK        -0.1975 
      2 C         -46.3036  -28.2308    8.0945 C.2       0 UNK         0.4852 
      3 O         -46.1629  -27.0485    7.7797 O.2       0 UNK        -0.5216 
      4 N         -47.3064  -28.9910    7.6309 N.am      1 UNK        -0.4461 
      5 CA        -48.3988  -28.5419    6.7508 C.3       1 UNK         0.0864 
      6 C6        -49.3882  -27.5746    7.4589 C.3       14 UNK        -0.0898 
      7 S7        -50.1473  -28.3307    8.9382 S.3       14 UNK        -0.2598 
      8 C8        -51.9033  -28.4504    8.4664 C.3       14 UNK         0.0286 
      9 C9        -52.6852  -27.2031    8.8578 C.ar      14 UNK        -0.0844 
     10 C10       -52.5753  -26.0311    8.1033 C.ar      14 UNK        -0.0881 
     11 C11       -53.2812  -24.8818    8.4673 C.ar      14 UNK        -0.0643 
     12 C12       -54.1349  -24.9180    9.5721 C.ar      14 UNK        -0.0930 
     13 C13       -54.2619  -26.0849   10.3292 C.ar      14 UNK        -0.0827 
     14 C14       -53.5286  -27.2218    9.9743 C.ar      14 UNK        -0.1249 
     15 C15       -55.1837  -26.1071   11.5361 C.3       14 UNK         0.0141 
     16 S16       -54.3723  -25.3453   12.9700 S.3       14 UNK        -0.2313 
     17 C17       -55.6192  -25.5820   14.2770 C.3       14 UNK        -0.0915 
     18 CA        -55.3440  -26.8715   15.1021 C.3       13 UNK         0.0968 
     19 C         -55.9770  -26.8622   16.5315 C.2       13 UNK         0.5732 
     20 N         -56.2160  -28.0144   17.1506 N.am      13 UNK        -0.7310 
     21 O         -56.2371  -25.8046   17.1008 O.2       13 UNK        -0.5035 
     22 N         -55.6181  -28.0957   14.3329 N.am      13 UNK        -0.4233 
     23 C         -56.8279  -28.6074   14.0588 C.2       13 UNK         0.4989 
     24 O         -57.8889  -28.0145   14.2577 O.2       13 UNK        -0.4996 
     25 CA        -56.8770  -30.0453   13.5031 C.3       12 UNK         0.0216 
     26 CB        -57.2064  -30.0278   12.0012 C.3       12 UNK        -0.1964 
     27 N         -55.6457  -30.8156   13.7102 N.am      12 UNK        -0.4276 
     28 C         -55.0558  -31.0876   14.8839 C.2       12 UNK         0.5020 
     29 O         -55.5368  -30.7962   15.9804 O.2       12 UNK        -0.5489 
     30 CA        -53.6615  -31.7380   14.8133 C.3       11 UNK         0.0294 
     31 CB        -53.5440  -32.7778   13.6777 C.3       11 UNK        -0.2019 
     32 N         -52.5657  -30.7603   14.7208 N.am      11 UNK        -0.4493 
     33 C         -52.4058  -29.7602   13.8403 C.2       11 UNK         0.4932 
     34 O         -53.2485  -29.4417   13.0006 O.2       11 UNK        -0.5029 
     35 CA        -51.0703  -28.9956   13.9043 C.3       10 UNK         0.0280 
     36 CB        -50.9224  -27.9909   12.7464 C.3       10 UNK        -0.1976 
     37 N         -50.8724  -28.2970   15.1776 N.am      10 UNK        -0.4242 
     38 C         -50.5004  -28.8810   16.3280 C.2       10 UNK         0.5072 
     39 O         -50.3557  -30.0998   16.4456 O.2       10 UNK        -0.5224 
     40 CA        -50.2173  -27.9855   17.5520 C.3       9 UNK         0.0343 
     41 CB        -48.7016  -27.8425   17.7677 C.3       9 UNK        -0.2003 
     42 N         -50.8082  -26.6502   17.4623 N.am      9 UNK        -0.4272 
     43 C         -52.1164  -26.3865   17.5729 C.2       9 UNK         0.4988 
     44 O         -52.9547  -27.2378   17.8649 O.2       9 UNK        -0.5108 
     45 CA        -52.5791  -24.9402   17.2949 C.3       8 UNK         0.0248 
     46 CB        -52.8731  -24.2114   18.6160 C.3       8 UNK        -0.2001 
     47 N         -51.6660  -24.1202   16.4839 N.am      8 UNK        -0.4140 
     48 C         -51.2155  -24.4330   15.2609 C.2       8 UNK         0.5028 
     49 O         -51.4327  -25.5130   14.7116 O.2       8 UNK        -0.5428 
     50 CA        -50.3110  -23.4009   14.5775 C.3       7 UNK         0.0264 
     51 CB        -48.8674  -23.5427   15.0891 C.3       7 UNK        -0.1988 
     52 N         -50.3095  -23.6173   13.1321 N.am      7 UNK        -0.4454 
     53 C         -51.0150  -22.9260   12.2310 C.2       7 UNK         0.5027 
     54 O         -51.7381  -21.9735   12.5325 O.2       7 UNK        -0.5083 
     55 CA        -50.8552  -23.3383   10.7441 C.3       6 UNK         0.0844 
     56 C56       -51.6397  -22.3890    9.7937 C.3       14 UNK        -0.0967 
     57 S57       -51.4870  -22.8272    8.0241 S.3       14 UNK        -0.2604 
     58 C58       -53.1005  -23.5958    7.6781 C.3       14 UNK         0.0134 
     59 N         -49.4451  -23.4385   10.3454 N.am      6 UNK        -0.4116 
     60 C         -48.5706  -24.3966   10.6751 C.2       5 UNK         0.5034 
     61 O         -48.8394  -25.3346   11.4272 O.2       5 UNK        -0.5045 
     62 CA        -47.1619  -24.2760   10.0585 C.3       5 UNK         0.0224 
     63 CB        -46.1876  -25.3329   10.6088 C.3       5 UNK        -0.1978 
     64 N         -47.2041  -24.3761    8.5964 N.am      5 UNK        -0.4737 
     65 C         -47.6088  -23.3956    7.7759 C.2       4 UNK         0.5027 
     66 O         -47.9246  -22.2734    8.1776 O.2       4 UNK        -0.5211 
     67 CA        -47.6965  -23.7316    6.2753 C.3       4 UNK         0.0297 
     68 CB        -47.8731  -22.4852    5.3825 C.3       4 UNK        -0.1993 
     69 N         -46.5821  -24.5632    5.8123 N.am      4 UNK        -0.4486 
     70 C         -45.2739  -24.2572    5.8155 C.2       3 UNK         0.4961 
     71 O         -44.8273  -23.1620    6.1593 O.2       3 UNK        -0.5105 
     72 CA        -44.2828  -25.3530    5.3746 C.3       3 UNK         0.0299 
     73 CB        -43.2601  -25.6445    6.4877 C.3       3 UNK        -0.1972 
     74 N         -44.9578  -26.6029    5.0179 N.am      3 UNK        -0.4305 
     75 C         -45.3360  -26.9493    3.7791 C.2       2 UNK         0.5006 
     76 O         -45.0825  -26.2823    2.7755 O.2       2 UNK        -0.5106 
     77 CA        -46.1482  -28.2511    3.6235 C.3       2 UNK         0.0296 
     78 CB        -45.2347  -29.3997    3.1652 C.3       2 UNK        -0.2002 
     79 N         -46.8655  -28.6624    4.8360 N.am      2 UNK        -0.4032 
     80 C         -47.8609  -27.9739    5.4159 C.2       1 UNK         0.5000 
     81 O         -48.2954  -26.9109    4.9679 O.2       1 UNK        -0.5238 
     82 H82       -44.2885  -28.7779    8.6194 H         1 UNK         0.0889 
     83 H83       -45.4934  -29.9520    9.1533 H         1 UNK         0.0889 
     84 H84       -45.3215  -28.4153   10.0034 H         1 UNK         0.0889 
     85 H85       -47.3678  -29.9543    7.9308 H         1 UNK         0.3028 
     86 H86       -48.9595  -29.4373    6.4773 H         1 UNK         0.0864 
     87 H87       -48.8862  -26.6555    7.7646 H         1 UNK         0.0720 
     88 H88       -50.1731  -27.2741    6.7655 H         1 UNK         0.0720 
     89 H89       -52.3291  -29.3251    8.9605 H         1 UNK         0.0814 
     90 H90       -51.9993  -28.6368    7.3959 H         1 UNK         0.0814 
     91 H91       -51.9234  -25.9967    7.2432 H         1 UNK         0.1469 
     92 H92       -54.6869  -24.0332    9.8582 H         1 UNK         0.1381 
     93 H93       -53.6131  -28.1203   10.5712 H         1 UNK         0.1206 
     94 H94       -56.1088  -25.5742   11.3121 H         1 UNK         0.0813 
     95 H95       -55.4637  -27.1334   11.7721 H         1 UNK         0.0813 
     96 H96       -56.6233  -25.5859   13.8509 H         1 UNK         0.0638 
     97 H97       -55.5615  -24.6937   14.9077 H         1 UNK         0.0638 
     98 H98       -54.2723  -26.9014   15.3016 H         1 UNK         0.0568 
     99 H99       -56.6098  -28.0002   18.0771 H         1 UNK         0.3450 
    100 H100      -55.9829  -28.8992   16.7140 H         1 UNK         0.3450 
    101 H101      -54.8041  -28.6370   14.0642 H         1 UNK         0.2987 
    102 H102      -57.6799  -30.5653   14.0291 H         1 UNK         0.0766 
    103 H103      -58.1305  -29.4806   11.8090 H         1 UNK         0.0798 
    104 H104      -57.3440  -31.0370   11.6124 H         1 UNK         0.0798 
    105 H105      -56.4168  -29.5480   11.4210 H         1 UNK         0.0798 
    106 H106      -55.1132  -31.0282   12.8782 H         1 UNK         0.3198 
    107 H107      -53.5238  -32.2679   15.7573 H         1 UNK         0.0843 
    108 H108      -52.6237  -33.3542   13.7729 H         1 UNK         0.0831 
    109 H109      -53.5387  -32.3183   12.6889 H         1 UNK         0.0831 
    110 H110      -54.3706  -33.4894   13.7079 H         1 UNK         0.0831 
    111 H111      -51.8248  -30.8628   15.4104 H         1 UNK         0.3133 
    112 H112      -50.2739  -29.7341   13.7914 H         1 UNK         0.0566 
    113 H113      -49.9621  -27.4767   12.7800 H         1 UNK         0.0814 
    114 H114      -51.7080  -27.2341   12.7595 H         1 UNK         0.0814 
    115 H115      -50.9853  -28.4973   11.7834 H         1 UNK         0.0814 
    116 H116      -51.0233  -27.2894   15.1526 H         1 UNK         0.3091 
    117 H117      -50.6393  -28.4875   18.4253 H         1 UNK         0.0702 
    118 H118      -48.4806  -27.2780   18.6738 H         1 UNK         0.0785 
    119 H119      -48.2204  -27.3369   16.9293 H         1 UNK         0.0785 
    120 H120      -48.2282  -28.8197   17.8740 H         1 UNK         0.0785 
    121 H121      -50.1889  -25.8927   17.2156 H         1 UNK         0.2998 
    122 H122      -53.5129  -25.0098   16.7354 H         1 UNK         0.0697 
    123 H123      -51.9696  -24.0742   19.2115 H         1 UNK         0.0825 
    124 H124      -53.5818  -24.7767   19.2234 H         1 UNK         0.0825 
    125 H125      -53.3152  -23.2305   18.4405 H         1 UNK         0.0825 
    126 H126      -51.4078  -23.2253   16.8750 H         1 UNK         0.3029 
    127 H127      -50.6767  -22.3984   14.8100 H         1 UNK         0.0897 
    128 H128      -48.4674  -24.5399   14.8982 H         1 UNK         0.0792 
    129 H129      -48.8086  -23.3660   16.1638 H         1 UNK         0.0792 
    130 H130      -48.2060  -22.8217   14.6081 H         1 UNK         0.0792 
    131 H131      -49.7941  -24.4271   12.7953 H         1 UNK         0.3086 
    132 H132      -51.2931  -24.3348   10.6533 H         1 UNK         0.0583 
    133 H133      -52.6962  -22.3649   10.0661 H         1 UNK         0.1020 
    134 H134      -51.2825  -21.3637    9.9080 H         1 UNK         0.1020 
    135 H135      -53.8980  -22.8841    7.8979 H         1 UNK         0.0694 
    136 H136      -53.1682  -23.8126    6.6110 H         1 UNK         0.0694 
    137 H137      -49.1255  -22.7392    9.6822 H         1 UNK         0.2989 
    138 H138      -46.7695  -23.2935   10.3306 H         1 UNK         0.1055 
    139 H139      -45.2049  -25.2530   10.1434 H         1 UNK         0.0806 
    140 H140      -46.5587  -26.3436   10.4403 H         1 UNK         0.0806 
    141 H141      -46.0512  -25.2137   11.6843 H         1 UNK         0.0806 
    142 H142      -46.9357  -25.2734    8.1993 H         1 UNK         0.3061 
    143 H143      -48.5939  -24.3418    6.1611 H         1 UNK         0.0734 
    144 H144      -47.0418  -21.7879    5.4888 H         1 UNK         0.0832 
    145 H145      -47.9520  -22.7585    4.3304 H         1 UNK         0.0832 
    146 H146      -48.7840  -21.9458    5.6457 H         1 UNK         0.0832 
    147 H147      -46.8512  -25.4929    5.5101 H         1 UNK         0.3156 
    148 H148      -43.7375  -24.9683    4.5104 H         1 UNK         0.0589 
    149 H149      -42.5504  -26.4140    6.1837 H         1 UNK         0.0808 
    150 H150      -42.6823  -24.7521    6.7314 H         1 UNK         0.0808 
    151 H151      -43.7440  -25.9772    7.4066 H         1 UNK         0.0808 
    152 H152      -45.2484  -27.1776    5.7994 H         1 UNK         0.3098 
    153 H153      -46.8925  -28.0748    2.8439 H         1 UNK         0.0720 
    154 H154      -44.7090  -29.1375    2.2458 H         1 UNK         0.0791 
    155 H155      -45.8063  -30.3053    2.9607 H         1 UNK         0.0791 
    156 H156      -44.4794  -29.6393    3.9149 H         1 UNK         0.0791 
    157 H157      -46.5559  -29.5162    5.2781 H         1 UNK         0.3028 
@<TRIPOS>BOND
     1    1    2 1    
     2    1   82 1    
     3    1   83 1    
     4    1   84 1    
     5    2    3 2    
     6    2    4 am   BACKBONE|DICT|INTERRES
     7    4    5 1    
     8    4   85 1    
     9    5    6 1    
    10    5   80 1    
    11    5   86 1    
    12    6    7 1    
    13    6   87 1    
    14    6   88 1    
    15    7    8 1    
    16    8    9 1    
    17    8   89 1    
    18    8   90 1    
    19    9   10 ar   
    20    9   14 ar   
    21   10   11 ar   
    22   10   91 1    
    23   11   12 ar   
    24   11   58 1    
    25   12   13 ar   
    26   12   92 1    
    27   13   14 ar   
    28   13   15 1    
    29   14   93 1    
    30   15   16 1    
    31   15   94 1    
    32   15   95 1    
    33   16   17 1    
    34   17   18 1    
    35   17   96 1    
    36   17   97 1    
    37   18   19 1    
    38   18   22 1    
    39   18   98 1    
    40   19   20 am   BACKBONE|DICT|INTERRES
    41   19   21 2    
    42   20   99 1    
    43   20  100 1    
    44   22   23 am   BACKBONE|DICT|INTERRES
    45   22  101 1    
    46   23   24 2    
    47   23   25 1    
    48   25   26 1    
    49   25   27 1    
    50   25  102 1    
    51   26  103 1    
    52   26  104 1    
    53   26  105 1    
    54   27   28 am   BACKBONE|DICT|INTERRES
    55   27  106 1    
    56   28   29 2    
    57   28   30 1    
    58   30   31 1    
    59   30   32 1    
    60   30  107 1    
    61   31  108 1    
    62   31  109 1    
    63   31  110 1    
    64   32   33 am   BACKBONE|DICT|INTERRES
    65   32  111 1    
    66   33   34 2    
    67   33   35 1    
    68   35   36 1    
    69   35   37 1    
    70   35  112 1    
    71   36  113 1    
    72   36  114 1    
    73   36  115 1    
    74   37   38 am   BACKBONE|DICT|INTERRES
    75   37  116 1    
    76   38   39 2    
    77   38   40 1    
    78   40   41 1    
    79   40   42 1    
    80   40  117 1    
    81   41  118 1    
    82   41  119 1    
    83   41  120 1    
    84   42   43 am   BACKBONE|DICT|INTERRES
    85   42  121 1    
    86   43   44 2    
    87   43   45 1    
    88   45   46 1    
    89   45   47 1    
    90   45  122 1    
    91   46  123 1    
    92   46  124 1    
    93   46  125 1    
    94   47   48 am   BACKBONE|DICT|INTERRES
    95   47  126 1    
    96   48   49 2    
    97   48   50 1    
    98   50   51 1    
    99   50   52 1    
   100   50  127 1    
   101   51  128 1    
   102   51  129 1    
   103   51  130 1    
   104   52   53 am   BACKBONE|DICT|INTERRES
   105   52  131 1    
   106   53   54 2    
   107   53   55 1    
   108   55   56 1    
   109   55   59 1    
   110   55  132 1    
   111   56   57 1    
   112   56  133 1    
   113   56  134 1    
   114   57   58 1    
   115   58  135 1    
   116   58  136 1    
   117   59   60 am   BACKBONE|DICT|INTERRES
   118   59  137 1    
   119   60   61 2    
   120   60   62 1    
   121   62   63 1    
   122   62   64 1    
   123   62  138 1    
   124   63  139 1    
   125   63  140 1    
   126   63  141 1    
   127   64   65 am   BACKBONE|DICT|INTERRES
   128   64  142 1    
   129   65   66 2    
   130   65   67 1    
   131   67   68 1    
   132   67   69 1    
   133   67  143 1    
   134   68  144 1    
   135   68  145 1    
   136   68  146 1    
   137   69   70 am   BACKBONE|DICT|INTERRES
   138   69  147 1    
   139   70   71 2    
   140   70   72 1    
   141   72   73 1    
   142   72   74 1    
   143   72  148 1    
   144   73  149 1    
   145   73  150 1    
   146   73  151 1    
   147   74   75 am   BACKBONE|DICT|INTERRES
   148   74  152 1    
   149   75   76 2    
   150   75   77 1    
   151   77   78 1    
   152   77   79 1    
   153   77  153 1    
   154   78  154 1    
   155   78  155 1    
   156   78  156 1    
   157   79   80 am   BACKBONE|DICT|INTERRES
   158   79  157 1    
   159   80   81 2    
@<TRIPOS>SUBSTRUCTURE
     1 UNK         1 GROUP             0       ****    0 ROOT    
