@<TRIPOS>MOLECULE
3R207
157   159    1
SMALL
USER_CHARGES


@<TRIPOS>ATOM
      1 CA        -50.6180  -26.2447    4.7991 C.3       0 UNK        -0.1975 
      2 C         -49.6034  -27.1166    5.5256 C.2       0 UNK         0.4852 
      3 O         -49.3815  -28.2575    5.1184 O.2       0 UNK        -0.5216 
      4 N         -49.0019  -26.5829    6.6003 N.am      1 UNK        -0.4461 
      5 CA        -47.9366  -27.2003    7.4096 C.3       1 UNK         0.0864 
      6 C6        -48.3881  -28.4780    8.1772 C.3       14 UNK        -0.0898 
      7 S7        -49.6879  -28.1027    9.4013 S.3       14 UNK        -0.2598 
      8 C8        -51.1908  -28.6794    8.5471 C.3       14 UNK         0.0286 
      9 C9        -52.3480  -27.7379    8.8335 C.ar      14 UNK        -0.0844 
     10 C10       -52.4242  -26.5126    8.1712 C.ar      14 UNK        -0.0881 
     11 C11       -53.4266  -25.5926    8.4824 C.ar      14 UNK        -0.0643 
     12 C12       -54.3879  -25.9291    9.4424 C.ar      14 UNK        -0.0930 
     13 C13       -54.3443  -27.1674   10.0948 C.ar      14 UNK        -0.0827 
     14 C14       -53.3198  -28.0664    9.7800 C.ar      14 UNK        -0.1249 
     15 C15       -55.3685  -27.4932   11.1786 C.3       14 UNK         0.0141 
     16 S16       -56.2409  -29.0702   10.9204 S.3       14 UNK        -0.2313 
     17 C17       -55.1935  -30.2411   11.8548 C.3       14 UNK        -0.0915 
     18 CA        -55.8768  -30.7507   13.1523 C.3       13 UNK         0.0968 
     19 C         -55.1734  -32.0158   13.7297 C.2       13 UNK         0.5732 
     20 N         -54.9532  -32.1343   15.0341 N.am      13 UNK        -0.7310 
     21 O         -54.8346  -32.9293   12.9808 O.2       13 UNK        -0.5035 
     22 N         -56.0236  -29.6717   14.1436 N.am      13 UNK        -0.4233 
     23 C         -57.1256  -29.4486   14.8705 C.2       13 UNK         0.4989 
     24 O         -58.1828  -30.0638   14.7161 O.2       13 UNK        -0.4996 
     25 CA        -57.0230  -28.3659   15.9670 C.3       12 UNK         0.0216 
     26 CB        -58.1966  -28.4140   16.9683 C.3       12 UNK        -0.1964 
     27 N         -55.7423  -28.3737   16.6874 N.am      12 UNK        -0.4276 
     28 C         -55.1705  -29.4069   17.3291 C.2       12 UNK         0.5020 
     29 O         -55.6829  -30.5242   17.4050 O.2       12 UNK        -0.5489 
     30 CA        -53.7787  -29.1890   17.9552 C.3       11 UNK         0.0294 
     31 CB        -52.7899  -30.2665   17.4731 C.3       11 UNK        -0.2019 
     32 N         -53.2263  -27.8757   17.6235 N.am      11 UNK        -0.4493 
     33 C         -53.2369  -26.7985   18.4205 C.2       11 UNK         0.4932 
     34 O         -53.6470  -26.8065   19.5809 O.2       11 UNK        -0.5029 
     35 CA        -52.7295  -25.4771   17.8088 C.3       10 UNK         0.0280 
     36 CB        -51.2676  -25.2268   18.2103 C.3       10 UNK        -0.1976 
     37 N         -52.8495  -25.4358   16.3463 N.am      10 UNK        -0.4242 
     38 C         -54.0196  -25.4334   15.6858 C.2       10 UNK         0.5072 
     39 O         -55.1146  -25.3935   16.2464 O.2       10 UNK        -0.5224 
     40 CA        -53.9792  -25.5997   14.1572 C.3       9 UNK         0.0343 
     41 CB        -54.0407  -24.2361   13.4546 C.3       9 UNK        -0.2003 
     42 N         -52.8076  -26.3559   13.6993 N.am      9 UNK        -0.4272 
     43 C         -52.5904  -27.6495   13.9925 C.2       9 UNK         0.4988 
     44 O         -53.4374  -28.3573   14.5397 O.2       9 UNK        -0.5108 
     45 CA        -51.2039  -28.2579   13.6990 C.3       8 UNK         0.0248 
     46 CB        -51.2888  -29.4143   12.6932 C.3       8 UNK        -0.2001 
     47 N         -50.1971  -27.2935   13.2501 N.am      8 UNK        -0.4140 
     48 C         -49.6611  -26.3372   14.0211 C.2       8 UNK         0.5028 
     49 O         -49.9607  -26.1677   15.2037 O.2       8 UNK        -0.5428 
     50 CA        -48.6766  -25.3692   13.3418 C.3       7 UNK         0.0264 
     51 CB        -47.2419  -25.9147   13.4196 C.3       7 UNK        -0.1988 
     52 N         -49.0032  -25.0578   11.9442 N.am      7 UNK        -0.4454 
     53 C         -50.1552  -24.5108   11.5221 C.2       7 UNK         0.5027 
     54 O         -51.1054  -24.2875   12.2720 O.2       7 UNK        -0.5083 
     55 CA        -50.2474  -24.1608   10.0183 C.3       6 UNK         0.0844 
     56 C56       -51.5140  -23.3286    9.6641 C.3       14 UNK        -0.0967 
     57 S57       -51.8527  -23.3483    7.8703 S.3       14 UNK        -0.2604 
     58 C58       -53.4561  -24.2276    7.8004 C.3       14 UNK         0.0134 
     59 N         -48.9942  -23.5630    9.5274 N.am      6 UNK        -0.4116 
     60 C         -48.4427  -22.4127    9.9467 C.2       5 UNK         0.5034 
     61 O         -48.9661  -21.6535   10.7627 O.2       5 UNK        -0.5045 
     62 CA        -47.0462  -22.0603    9.4055 C.3       5 UNK         0.0224 
     63 CB        -45.9826  -22.3042   10.4904 C.3       5 UNK        -0.1978 
     64 N         -46.6620  -22.8063    8.2031 N.am      5 UNK        -0.4737 
     65 C         -47.0030  -22.4694    6.9518 C.2       4 UNK         0.5027 
     66 O         -47.7718  -21.5442    6.6897 O.2       4 UNK        -0.5211 
     67 CA        -46.3968  -23.3066    5.8030 C.3       4 UNK         0.0297 
     68 CB        -46.0515  -22.4445    4.5705 C.3       4 UNK        -0.1993 
     69 N         -45.2533  -24.1482    6.1965 N.am      4 UNK        -0.4486 
     70 C         -44.0500  -23.7505    6.6471 C.2       3 UNK         0.4961 
     71 O         -43.7212  -22.5686    6.7491 O.2       3 UNK        -0.5105 
     72 CA        -43.0572  -24.8382    7.1103 C.3       3 UNK         0.0299 
     73 CB        -42.4860  -24.5028    8.5008 C.3       3 UNK        -0.1972 
     74 N         -43.6686  -26.1694    7.1711 N.am      3 UNK        -0.4305 
     75 C         -43.5207  -27.1364    6.2552 C.2       2 UNK         0.5006 
     76 O         -42.7840  -27.0495    5.2724 O.2       2 UNK        -0.5106 
     77 CA        -44.3697  -28.4094    6.4529 C.3       2 UNK         0.0296 
     78 CB        -43.5896  -29.4539    7.2679 C.3       2 UNK        -0.2002 
     79 N         -45.6783  -28.1747    7.0840 N.am      2 UNK        -0.4032 
     80 C         -46.6349  -27.3740    6.5879 C.2       1 UNK         0.5000 
     81 O         -46.4751  -26.7121    5.5587 O.2       1 UNK        -0.5238 
     82 H82       -51.5998  -26.7174    4.8165 H         1 UNK         0.0889 
     83 H83       -50.3213  -26.1144    3.7587 H         1 UNK         0.0889 
     84 H84       -50.7090  -25.2565    5.2503 H         1 UNK         0.0889 
     85 H85       -49.2298  -25.6320    6.8460 H         1 UNK         0.3028 
     86 H86       -47.6772  -26.4543    8.1618 H         1 UNK         0.0864 
     87 H87       -48.7205  -29.2605    7.4936 H         1 UNK         0.0720 
     88 H88       -47.5648  -28.9103    8.7468 H         1 UNK         0.0720 
     89 H89       -51.4223  -29.6944    8.8733 H         1 UNK         0.0814 
     90 H90       -51.0302  -28.7338    7.4706 H         1 UNK         0.0814 
     91 H91       -51.6729  -26.2521    7.4429 H         1 UNK         0.1469 
     92 H92       -55.1632  -25.2180    9.6928 H         1 UNK         0.1381 
     93 H93       -53.2680  -29.0220   10.2764 H         1 UNK         0.1206 
     94 H94       -54.8670  -27.5232   12.1414 H         1 UNK         0.0813 
     95 H95       -56.1157  -26.7014   11.2481 H         1 UNK         0.0813 
     96 H96       -54.2346  -29.7870   12.1003 H         1 UNK         0.0638 
     97 H97       -54.9739  -31.0663   11.1753 H         1 UNK         0.0638 
     98 H98       -56.8671  -31.1065   12.8633 H         1 UNK         0.0568 
     99 H99       -54.5048  -32.9694   15.3739 H         1 UNK         0.3450 
    100 H100      -55.2753  -31.4366   15.6959 H         1 UNK         0.3450 
    101 H101      -55.1735  -29.1575   14.3594 H         1 UNK         0.2987 
    102 H102      -57.0729  -27.4081   15.4468 H         1 UNK         0.0766 
    103 H103      -59.1533  -28.2890   16.4597 H         1 UNK         0.0798 
    104 H104      -58.1189  -27.6170   17.7078 H         1 UNK         0.0798 
    105 H105      -58.2322  -29.3645   17.5020 H         1 UNK         0.0798 
    106 H106      -55.2479  -27.4895   16.6821 H         1 UNK         0.3198 
    107 H107      -53.8920  -29.2875   19.0368 H         1 UNK         0.0843 
    108 H108      -52.6824  -30.2613   16.3876 H         1 UNK         0.0831 
    109 H109      -53.1250  -31.2639   17.7608 H         1 UNK         0.0831 
    110 H110      -51.8014  -30.1223   17.9094 H         1 UNK         0.0831 
    111 H111      -52.8938  -27.7709   16.6741 H         1 UNK         0.3133 
    112 H112      -53.3387  -24.6683   18.2177 H         1 UNK         0.0566 
    113 H113      -50.9031  -24.2776   17.8170 H         1 UNK         0.0814 
    114 H114      -50.6080  -26.0158   17.8468 H         1 UNK         0.0814 
    115 H115      -51.1624  -25.1896   19.2955 H         1 UNK         0.0814 
    116 H116      -51.9852  -25.4994   15.8189 H         1 UNK         0.3091 
    117 H117      -54.8756  -26.1562   13.8822 H         1 UNK         0.0702 
    118 H118      -54.0276  -24.3473   12.3701 H         1 UNK         0.0785 
    119 H119      -53.2030  -23.5979   13.7379 H         1 UNK         0.0785 
    120 H120      -54.9565  -23.7046   13.7164 H         1 UNK         0.0785 
    121 H121      -52.0820  -25.8194   13.2343 H         1 UNK         0.2998 
    122 H122      -50.8555  -28.6770   14.6453 H         1 UNK         0.0697 
    123 H123      -51.5488  -29.0601   11.6988 H         1 UNK         0.0825 
    124 H124      -52.0358  -30.1497   12.9949 H         1 UNK         0.0825 
    125 H125      -50.3368  -29.9397   12.6167 H         1 UNK         0.0825 
    126 H126      -49.9134  -27.3463   12.2818 H         1 UNK         0.3029 
    127 H127      -48.7156  -24.4308   13.8994 H         1 UNK         0.0897 
    128 H128      -47.1264  -26.8346   12.8448 H         1 UNK         0.0792 
    129 H129      -46.9655  -26.1383   14.4511 H         1 UNK         0.0792 
    130 H130      -46.5196  -25.1894   13.0442 H         1 UNK         0.0792 
    131 H131      -48.2745  -25.2210   11.2658 H         1 UNK         0.3086 
    132 H132      -50.3373  -25.1247    9.5175 H         1 UNK         0.0583 
    133 H133      -52.3937  -23.7106   10.1847 H         1 UNK         0.1020 
    134 H134      -51.4106  -22.2947    9.9954 H         1 UNK         0.1020 
    135 H135      -54.2201  -23.5898    8.2478 H         1 UNK         0.0694 
    136 H136      -53.7388  -24.3619    6.7556 H         1 UNK         0.0694 
    137 H137      -48.4836  -24.0922    8.8396 H         1 UNK         0.2989 
    138 H138      -47.0535  -20.9933    9.1699 H         1 UNK         0.1055 
    139 H139      -45.9261  -23.3550   10.7771 H         1 UNK         0.0806 
    140 H140      -46.2059  -21.7331   11.3929 H         1 UNK         0.0806 
    141 H141      -44.9933  -21.9944   10.1521 H         1 UNK         0.0806 
    142 H142      -46.0004  -23.5582    8.3236 H         1 UNK         0.3061 
    143 H143      -47.1829  -23.9999    5.5003 H         1 UNK         0.0734 
    144 H144      -45.3232  -21.6687    4.8083 H         1 UNK         0.0832 
    145 H145      -45.6441  -23.0524    3.7628 H         1 UNK         0.0832 
    146 H146      -46.9390  -21.9448    4.1804 H         1 UNK         0.0832 
    147 H147      -45.4146  -25.1446    6.0787 H         1 UNK         0.3156 
    148 H148      -42.2298  -24.8374    6.3979 H         1 UNK         0.0589 
    149 H149      -41.7728  -25.2594    8.8285 H         1 UNK         0.0808 
    150 H150      -41.9562  -23.5492    8.4900 H         1 UNK         0.0808 
    151 H151      -43.2697  -24.4310    9.2557 H         1 UNK         0.0808 
    152 H152      -44.2754  -26.3507    7.9573 H         1 UNK         0.3098 
    153 H153      -44.5591  -28.8256    5.4611 H         1 UNK         0.0720 
    154 H154      -42.6232  -29.6656    6.8077 H         1 UNK         0.0791 
    155 H155      -44.1308  -30.3985    7.3256 H         1 UNK         0.0791 
    156 H156      -43.3972  -29.1127    8.2860 H         1 UNK         0.0791 
    157 H157      -45.8594  -28.6785    7.9403 H         1 UNK         0.3028 
@<TRIPOS>BOND
     1    1    2 1    
     2    1   82 1    
     3    1   83 1    
     4    1   84 1    
     5    2    3 2    
     6    2    4 am   BACKBONE|DICT|INTERRES
     7    4    5 1    
     8    4   85 1    
     9    5    6 1    
    10    5   80 1    
    11    5   86 1    
    12    6    7 1    
    13    6   87 1    
    14    6   88 1    
    15    7    8 1    
    16    8    9 1    
    17    8   89 1    
    18    8   90 1    
    19    9   10 ar   
    20    9   14 ar   
    21   10   11 ar   
    22   10   91 1    
    23   11   12 ar   
    24   11   58 1    
    25   12   13 ar   
    26   12   92 1    
    27   13   14 ar   
    28   13   15 1    
    29   14   93 1    
    30   15   16 1    
    31   15   94 1    
    32   15   95 1    
    33   16   17 1    
    34   17   18 1    
    35   17   96 1    
    36   17   97 1    
    37   18   19 1    
    38   18   22 1    
    39   18   98 1    
    40   19   20 am   BACKBONE|DICT|INTERRES
    41   19   21 2    
    42   20   99 1    
    43   20  100 1    
    44   22   23 am   BACKBONE|DICT|INTERRES
    45   22  101 1    
    46   23   24 2    
    47   23   25 1    
    48   25   26 1    
    49   25   27 1    
    50   25  102 1    
    51   26  103 1    
    52   26  104 1    
    53   26  105 1    
    54   27   28 am   BACKBONE|DICT|INTERRES
    55   27  106 1    
    56   28   29 2    
    57   28   30 1    
    58   30   31 1    
    59   30   32 1    
    60   30  107 1    
    61   31  108 1    
    62   31  109 1    
    63   31  110 1    
    64   32   33 am   BACKBONE|DICT|INTERRES
    65   32  111 1    
    66   33   34 2    
    67   33   35 1    
    68   35   36 1    
    69   35   37 1    
    70   35  112 1    
    71   36  113 1    
    72   36  114 1    
    73   36  115 1    
    74   37   38 am   BACKBONE|DICT|INTERRES
    75   37  116 1    
    76   38   39 2    
    77   38   40 1    
    78   40   41 1    
    79   40   42 1    
    80   40  117 1    
    81   41  118 1    
    82   41  119 1    
    83   41  120 1    
    84   42   43 am   BACKBONE|DICT|INTERRES
    85   42  121 1    
    86   43   44 2    
    87   43   45 1    
    88   45   46 1    
    89   45   47 1    
    90   45  122 1    
    91   46  123 1    
    92   46  124 1    
    93   46  125 1    
    94   47   48 am   BACKBONE|DICT|INTERRES
    95   47  126 1    
    96   48   49 2    
    97   48   50 1    
    98   50   51 1    
    99   50   52 1    
   100   50  127 1    
   101   51  128 1    
   102   51  129 1    
   103   51  130 1    
   104   52   53 am   BACKBONE|DICT|INTERRES
   105   52  131 1    
   106   53   54 2    
   107   53   55 1    
   108   55   56 1    
   109   55   59 1    
   110   55  132 1    
   111   56   57 1    
   112   56  133 1    
   113   56  134 1    
   114   57   58 1    
   115   58  135 1    
   116   58  136 1    
   117   59   60 am   BACKBONE|DICT|INTERRES
   118   59  137 1    
   119   60   61 2    
   120   60   62 1    
   121   62   63 1    
   122   62   64 1    
   123   62  138 1    
   124   63  139 1    
   125   63  140 1    
   126   63  141 1    
   127   64   65 am   BACKBONE|DICT|INTERRES
   128   64  142 1    
   129   65   66 2    
   130   65   67 1    
   131   67   68 1    
   132   67   69 1    
   133   67  143 1    
   134   68  144 1    
   135   68  145 1    
   136   68  146 1    
   137   69   70 am   BACKBONE|DICT|INTERRES
   138   69  147 1    
   139   70   71 2    
   140   70   72 1    
   141   72   73 1    
   142   72   74 1    
   143   72  148 1    
   144   73  149 1    
   145   73  150 1    
   146   73  151 1    
   147   74   75 am   BACKBONE|DICT|INTERRES
   148   74  152 1    
   149   75   76 2    
   150   75   77 1    
   151   77   78 1    
   152   77   79 1    
   153   77  153 1    
   154   78  154 1    
   155   78  155 1    
   156   78  156 1    
   157   79   80 am   BACKBONE|DICT|INTERRES
   158   79  157 1    
   159   80   81 2    
@<TRIPOS>SUBSTRUCTURE
     1 UNK         1 GROUP             0       ****    0 ROOT    
