@<TRIPOS>MOLECULE
3R207
157   159    1
SMALL
USER_CHARGES


@<TRIPOS>ATOM
      1 CA        -45.5805  -31.8699    4.5611 C.3       0 UNK        -0.1975 
      2 C         -46.6032  -30.7544    4.4045 C.2       0 UNK         0.4852 
      3 O         -47.0877  -30.5191    3.2972 O.2       0 UNK        -0.5216 
      4 N         -46.9305  -30.0610    5.5036 N.am      1 UNK        -0.4461 
      5 CA        -47.9253  -28.9780    5.5507 C.3       1 UNK         0.0864 
      6 C6        -48.4602  -28.7374    6.9879 C.3       14 UNK        -0.0898 
      7 S7        -49.0789  -30.2582    7.7890 S.3       14 UNK        -0.2598 
      8 C8        -50.7758  -30.3807    7.1370 C.3       14 UNK         0.0286 
      9 C9        -51.7478  -29.4759    7.8802 C.ar      14 UNK        -0.0844 
     10 C10       -52.1026  -28.2308    7.3525 C.ar      14 UNK        -0.0881 
     11 C11       -53.0064  -27.4059    8.0290 C.ar      14 UNK        -0.0643 
     12 C12       -53.5669  -27.8385    9.2318 C.ar      14 UNK        -0.0930 
     13 C13       -53.2080  -29.0726    9.7779 C.ar      14 UNK        -0.0827 
     14 C14       -52.3036  -29.8914    9.0946 C.ar      14 UNK        -0.1249 
     15 C15       -53.7432  -29.4819   11.1393 C.3       14 UNK         0.0141 
     16 S16       -55.5481  -29.7100   11.1556 S.3       14 UNK        -0.2313 
     17 C17       -55.7990  -30.1536   12.9090 C.3       14 UNK        -0.0915 
     18 CA        -56.8418  -29.2670   13.6402 C.3       13 UNK         0.0968 
     19 C         -57.1221  -29.8083   15.0743 C.2       13 UNK         0.5732 
     20 N         -56.8861  -29.0557   16.1440 N.am      13 UNK        -0.7310 
     21 O         -57.5781  -30.9402   15.2202 O.2       13 UNK        -0.5035 
     22 N         -56.4975  -27.8356   13.6040 N.am      13 UNK        -0.4233 
     23 C         -57.4040  -26.8545   13.7223 C.2       13 UNK         0.4989 
     24 O         -58.6195  -27.0600   13.7494 O.2       13 UNK        -0.4996 
     25 CA        -56.8863  -25.4037   13.8275 C.3       12 UNK         0.0216 
     26 CB        -57.8783  -24.4741   14.5591 C.3       12 UNK        -0.1964 
     27 N         -55.5486  -25.2732   14.4147 N.am      12 UNK        -0.4276 
     28 C         -55.1318  -25.6930   15.6168 C.2       12 UNK         0.5020 
     29 O         -55.8356  -26.3029   16.4256 O.2       12 UNK        -0.5489 
     30 CA        -53.6525  -25.4171   15.9466 C.3       11 UNK         0.0294 
     31 CB        -53.5202  -24.7246   17.3131 C.3       11 UNK        -0.2019 
     32 N         -52.8019  -26.6126   15.9372 N.am      11 UNK        -0.4493 
     33 C         -52.8144  -27.6206   15.0520 C.2       11 UNK         0.4932 
     34 O         -53.6005  -27.7133   14.1092 O.2       11 UNK        -0.5029 
     35 CA        -51.7277  -28.6835   15.2541 C.3       10 UNK         0.0280 
     36 CB        -51.7838  -29.8365   14.2352 C.3       10 UNK        -0.1976 
     37 N         -50.4230  -28.0363   15.1703 N.am      10 UNK        -0.4242 
     38 C         -49.3703  -28.3398   15.9358 C.2       10 UNK         0.5072 
     39 O         -49.3888  -29.2036   16.8145 O.2       10 UNK        -0.5224 
     40 CA        -48.0622  -27.5691   15.6850 C.3       9 UNK         0.0343 
     41 CB        -47.2010  -28.3142   14.6513 C.3       9 UNK        -0.2003 
     42 N         -48.2002  -26.1685   15.2701 N.am      9 UNK        -0.4272 
     43 C         -48.8646  -25.2022   15.9210 C.2       9 UNK         0.4988 
     44 O         -49.6071  -25.4005   16.8831 O.2       9 UNK        -0.5108 
     45 CA        -48.6038  -23.7607   15.4501 C.3       8 UNK         0.0248 
     46 CB        -47.1997  -23.5586   14.8418 C.3       8 UNK        -0.2001 
     47 N         -49.6073  -23.3288   14.4817 N.am      8 UNK        -0.4140 
     48 C         -50.7816  -22.7655   14.7966 C.2       8 UNK         0.5028 
     49 O         -51.1637  -22.5661   15.9495 O.2       8 UNK        -0.5428 
     50 CA        -51.6771  -22.3155   13.6343 C.3       7 UNK         0.0264 
     51 CB        -51.2526  -20.9202   13.1462 C.3       7 UNK        -0.1988 
     52 N         -51.6169  -23.2499   12.5114 N.am      7 UNK        -0.4454 
     53 C         -52.6119  -24.0686   12.1415 C.2       7 UNK         0.5027 
     54 O         -53.7076  -24.1164   12.7003 O.2       7 UNK        -0.5083 
     55 CA        -52.3570  -24.9667   10.9132 C.3       6 UNK         0.0844 
     56 C56       -52.8675  -24.2368    9.6342 C.3       14 UNK        -0.0967 
     57 S57       -52.1578  -24.7921    8.0404 S.3       14 UNK        -0.2604 
     58 C58       -53.3550  -26.0371    7.4725 C.3       14 UNK         0.0134 
     59 N         -50.9649  -25.3996   10.8005 N.am      6 UNK        -0.4116 
     60 C         -50.2385  -26.0541   11.7173 C.2       5 UNK         0.5034 
     61 O         -50.6560  -26.4327   12.8103 O.2       5 UNK        -0.5045 
     62 CA        -48.7555  -26.2575   11.3761 C.3       5 UNK         0.0224 
     63 CB        -48.5486  -27.6259   10.7088 C.3       5 UNK        -0.1978 
     64 N         -48.2042  -25.2060   10.5138 N.am      5 UNK        -0.4737 
     65 C         -48.1958  -23.8894   10.7632 C.2       4 UNK         0.5027 
     66 O         -48.6851  -23.3991   11.7841 O.2       4 UNK        -0.5211 
     67 CA        -47.5789  -22.9730    9.6824 C.3       4 UNK         0.0297 
     68 CB        -47.2848  -21.5613   10.2233 C.3       4 UNK        -0.1993 
     69 N         -46.3592  -23.5103    9.0613 N.am      4 UNK        -0.4486 
     70 C         -46.2980  -24.5341    8.1997 C.2       3 UNK         0.4961 
     71 O         -47.2823  -25.1908    7.8515 O.2       3 UNK        -0.5105 
     72 CA        -44.8972  -24.9349    7.7110 C.3       3 UNK         0.0299 
     73 CB        -44.1611  -25.7336    8.8003 C.3       3 UNK        -0.1972 
     74 N         -44.9833  -25.7581    6.5052 N.am      3 UNK        -0.4305 
     75 C         -45.2156  -25.2932    5.2699 C.2       2 UNK         0.5006 
     76 O         -45.2565  -24.0963    4.9810 O.2       2 UNK        -0.5106 
     77 CA        -45.4414  -26.3449    4.1696 C.3       2 UNK         0.0296 
     78 CB        -44.1075  -26.7331    3.5106 C.3       2 UNK        -0.2002 
     79 N         -46.1018  -27.5509    4.6780 N.am      2 UNK        -0.4032 
     80 C         -47.4159  -27.6543    4.9331 C.2       1 UNK         0.5000 
     81 O         -48.2244  -26.7548    4.6967 O.2       1 UNK        -0.5238 
     82 H82       -45.2351  -31.9655    5.5904 H         1 UNK         0.0889 
     83 H83       -44.7143  -31.6770    3.9288 H         1 UNK         0.0889 
     84 H84       -46.0166  -32.8223    4.2608 H         1 UNK         0.0889 
     85 H85       -46.5257  -30.3176    6.3934 H         1 UNK         0.3028 
     86 H86       -48.7726  -29.2870    4.9350 H         1 UNK         0.0864 
     87 H87       -47.6697  -28.3298    7.6211 H         1 UNK         0.0720 
     88 H88       -49.2539  -27.9886    6.9880 H         1 UNK         0.0720 
     89 H89       -51.1081  -31.4158    7.2295 H         1 UNK         0.0814 
     90 H90       -50.7810  -30.1603    6.0687 H         1 UNK         0.0814 
     91 H91       -51.6686  -27.8964    6.4201 H         1 UNK         0.1469 
     92 H92       -54.2672  -27.2053    9.7582 H         1 UNK         0.1381 
     93 H93       -52.0165  -30.8463    9.5137 H         1 UNK         0.1206 
     94 H94       -53.4746  -28.7023   11.8486 H         1 UNK         0.0813 
     95 H95       -53.2643  -30.3997   11.4835 H         1 UNK         0.0813 
     96 H96       -54.8482  -30.1128   13.4390 H         1 UNK         0.0638 
     97 H97       -56.1079  -31.2003   12.9293 H         1 UNK         0.0638 
     98 H98       -57.7816  -29.3915   13.0991 H         1 UNK         0.0568 
     99 H99       -57.0838  -29.4317   17.0569 H         1 UNK         0.3450 
    100 H100      -56.5218  -28.1111   16.0610 H         1 UNK         0.3450 
    101 H101      -55.5060  -27.6157   13.6401 H         1 UNK         0.2987 
    102 H102      -56.7958  -25.0469   12.8005 H         1 UNK         0.0766 
    103 H103      -57.5070  -23.4500   14.5982 H         1 UNK         0.0798 
    104 H104      -58.0588  -24.8048   15.5826 H         1 UNK         0.0798 
    105 H105      -58.8426  -24.4461   14.0503 H         1 UNK         0.0798 
    106 H106      -54.8570  -24.8351   13.8025 H         1 UNK         0.3198 
    107 H107      -53.2456  -24.7390   15.1962 H         1 UNK         0.0843 
    108 H108      -54.1151  -23.8109   17.3458 H         1 UNK         0.0831 
    109 H109      -52.4868  -24.4430   17.5179 H         1 UNK         0.0831 
    110 H110      -53.8614  -25.3668   18.1261 H         1 UNK         0.0831 
    111 H111      -52.0822  -26.6368   16.6463 H         1 UNK         0.3133 
    112 H112      -51.8822  -29.0995   16.2519 H         1 UNK         0.0566 
    113 H113      -51.0175  -30.5833   14.4426 H         1 UNK         0.0814 
    114 H114      -52.7453  -30.3465   14.2718 H         1 UNK         0.0814 
    115 H115      -51.6288  -29.4764   13.2179 H         1 UNK         0.0814 
    116 H116      -50.3435  -27.3123   14.4578 H         1 UNK         0.3091 
    117 H117      -47.5171  -27.5592   16.6311 H         1 UNK         0.0702 
    118 H118      -46.2202  -27.8517   14.5389 H         1 UNK         0.0785 
    119 H119      -47.6783  -28.3385   13.6712 H         1 UNK         0.0785 
    120 H120      -47.0344  -29.3486   14.9557 H         1 UNK         0.0785 
    121 H121      -47.6115  -25.8801   14.5041 H         1 UNK         0.2998 
    122 H122      -48.6627  -23.1239   16.3356 H         1 UNK         0.0697 
    123 H123      -46.4210  -23.9051   15.5231 H         1 UNK         0.0825 
    124 H124      -47.0089  -22.5019   14.6525 H         1 UNK         0.0825 
    125 H125      -47.0725  -24.0832   13.8945 H         1 UNK         0.0825 
    126 H126      -49.3505  -23.4188   13.5015 H         1 UNK         0.3029 
    127 H127      -52.6979  -22.2428   14.0165 H         1 UNK         0.0897 
    128 H128      -51.9191  -20.5559   12.3643 H         1 UNK         0.0792 
    129 H129      -51.2829  -20.1954   13.9611 H         1 UNK         0.0792 
    130 H130      -50.2372  -20.9216   12.7467 H         1 UNK         0.0792 
    131 H131      -50.7357  -23.2989   12.0116 H         1 UNK         0.3086 
    132 H132      -52.9452  -25.8718   11.0633 H         1 UNK         0.0583 
    133 H133      -52.6394  -23.1695    9.6863 H         1 UNK         0.1020 
    134 H134      -53.9566  -24.2910    9.5876 H         1 UNK         0.1020 
    135 H135      -54.3698  -25.7486    7.7502 H         1 UNK         0.0694 
    136 H136      -53.3364  -26.0690    6.3820 H         1 UNK         0.0694 
    137 H137      -50.5154  -25.1660    9.9270 H         1 UNK         0.2989 
    138 H138      -48.1976  -26.2375   12.3128 H         1 UNK         0.1055 
    139 H139      -48.9180  -28.4320   11.3446 H         1 UNK         0.0806 
    140 H140      -47.4938  -27.8224   10.5163 H         1 UNK         0.0806 
    141 H141      -49.0825  -27.6943    9.7599 H         1 UNK         0.0806 
    142 H142      -47.8403  -25.4944    9.6084 H         1 UNK         0.3061 
    143 H143      -48.3340  -22.8739    8.8997 H         1 UNK         0.0734 
    144 H144      -48.1904  -21.0914   10.6097 H         1 UNK         0.0832 
    145 H145      -46.5591  -21.5855   11.0372 H         1 UNK         0.0832 
    146 H146      -46.8957  -20.9076    9.4425 H         1 UNK         0.0832 
    147 H147      -45.4941  -23.0629    9.3297 H         1 UNK         0.3156 
    148 H148      -44.3286  -24.0298    7.4867 H         1 UNK         0.0589 
    149 H149      -44.7058  -26.6373    9.0779 H         1 UNK         0.0808 
    150 H150      -43.1655  -26.0307    8.4696 H         1 UNK         0.0808 
    151 H151      -44.0333  -25.1409    9.7070 H         1 UNK         0.0808 
    152 H152      -45.0049  -26.7559    6.6474 H         1 UNK         0.3098 
    153 H153      -46.0784  -25.8943    3.4053 H         1 UNK         0.0720 
    154 H154      -44.2609  -27.4312    2.6873 H         1 UNK         0.0791 
    155 H155      -43.4220  -27.1965    4.2213 H         1 UNK         0.0791 
    156 H156      -43.6065  -25.8553    3.0999 H         1 UNK         0.0791 
    157 H157      -45.5178  -28.3520    4.8681 H         1 UNK         0.3028 
@<TRIPOS>BOND
     1    1    2 1    
     2    1   82 1    
     3    1   83 1    
     4    1   84 1    
     5    2    3 2    
     6    2    4 am   BACKBONE|DICT|INTERRES
     7    4    5 1    
     8    4   85 1    
     9    5    6 1    
    10    5   80 1    
    11    5   86 1    
    12    6    7 1    
    13    6   87 1    
    14    6   88 1    
    15    7    8 1    
    16    8    9 1    
    17    8   89 1    
    18    8   90 1    
    19    9   10 ar   
    20    9   14 ar   
    21   10   11 ar   
    22   10   91 1    
    23   11   12 ar   
    24   11   58 1    
    25   12   13 ar   
    26   12   92 1    
    27   13   14 ar   
    28   13   15 1    
    29   14   93 1    
    30   15   16 1    
    31   15   94 1    
    32   15   95 1    
    33   16   17 1    
    34   17   18 1    
    35   17   96 1    
    36   17   97 1    
    37   18   19 1    
    38   18   22 1    
    39   18   98 1    
    40   19   20 am   BACKBONE|DICT|INTERRES
    41   19   21 2    
    42   20   99 1    
    43   20  100 1    
    44   22   23 am   BACKBONE|DICT|INTERRES
    45   22  101 1    
    46   23   24 2    
    47   23   25 1    
    48   25   26 1    
    49   25   27 1    
    50   25  102 1    
    51   26  103 1    
    52   26  104 1    
    53   26  105 1    
    54   27   28 am   BACKBONE|DICT|INTERRES
    55   27  106 1    
    56   28   29 2    
    57   28   30 1    
    58   30   31 1    
    59   30   32 1    
    60   30  107 1    
    61   31  108 1    
    62   31  109 1    
    63   31  110 1    
    64   32   33 am   BACKBONE|DICT|INTERRES
    65   32  111 1    
    66   33   34 2    
    67   33   35 1    
    68   35   36 1    
    69   35   37 1    
    70   35  112 1    
    71   36  113 1    
    72   36  114 1    
    73   36  115 1    
    74   37   38 am   BACKBONE|DICT|INTERRES
    75   37  116 1    
    76   38   39 2    
    77   38   40 1    
    78   40   41 1    
    79   40   42 1    
    80   40  117 1    
    81   41  118 1    
    82   41  119 1    
    83   41  120 1    
    84   42   43 am   BACKBONE|DICT|INTERRES
    85   42  121 1    
    86   43   44 2    
    87   43   45 1    
    88   45   46 1    
    89   45   47 1    
    90   45  122 1    
    91   46  123 1    
    92   46  124 1    
    93   46  125 1    
    94   47   48 am   BACKBONE|DICT|INTERRES
    95   47  126 1    
    96   48   49 2    
    97   48   50 1    
    98   50   51 1    
    99   50   52 1    
   100   50  127 1    
   101   51  128 1    
   102   51  129 1    
   103   51  130 1    
   104   52   53 am   BACKBONE|DICT|INTERRES
   105   52  131 1    
   106   53   54 2    
   107   53   55 1    
   108   55   56 1    
   109   55   59 1    
   110   55  132 1    
   111   56   57 1    
   112   56  133 1    
   113   56  134 1    
   114   57   58 1    
   115   58  135 1    
   116   58  136 1    
   117   59   60 am   BACKBONE|DICT|INTERRES
   118   59  137 1    
   119   60   61 2    
   120   60   62 1    
   121   62   63 1    
   122   62   64 1    
   123   62  138 1    
   124   63  139 1    
   125   63  140 1    
   126   63  141 1    
   127   64   65 am   BACKBONE|DICT|INTERRES
   128   64  142 1    
   129   65   66 2    
   130   65   67 1    
   131   67   68 1    
   132   67   69 1    
   133   67  143 1    
   134   68  144 1    
   135   68  145 1    
   136   68  146 1    
   137   69   70 am   BACKBONE|DICT|INTERRES
   138   69  147 1    
   139   70   71 2    
   140   70   72 1    
   141   72   73 1    
   142   72   74 1    
   143   72  148 1    
   144   73  149 1    
   145   73  150 1    
   146   73  151 1    
   147   74   75 am   BACKBONE|DICT|INTERRES
   148   74  152 1    
   149   75   76 2    
   150   75   77 1    
   151   77   78 1    
   152   77   79 1    
   153   77  153 1    
   154   78  154 1    
   155   78  155 1    
   156   78  156 1    
   157   79   80 am   BACKBONE|DICT|INTERRES
   158   79  157 1    
   159   80   81 2    
@<TRIPOS>SUBSTRUCTURE
     1 UNK         1 GROUP             0       ****    0 ROOT    
