@<TRIPOS>MOLECULE
3R207
157   159    1
SMALL
USER_CHARGES


@<TRIPOS>ATOM
      1 CA        -53.4303  -22.7799    4.5063 C.3       0 UNK        -0.1975 
      2 C         -52.3464  -23.5024    5.2915 C.2       0 UNK         0.4852 
      3 O         -51.9347  -24.5946    4.8966 O.2       0 UNK        -0.5216 
      4 N         -51.8825  -22.8992    6.3961 N.am      1 UNK        -0.4461 
      5 CA        -50.8540  -23.3799    7.3352 C.3       1 UNK         0.0864 
      6 C6        -51.1889  -24.7335    8.0190 C.3       14 UNK        -0.0898 
      7 S7        -52.7621  -24.6986    8.9517 S.3       14 UNK        -0.2598 
      8 C8        -53.8574  -25.7365    7.9176 C.3       14 UNK         0.0286 
      9 C9        -53.8522  -27.2050    8.3308 C.ar      14 UNK        -0.0844 
     10 C10       -52.6567  -27.9228    8.3840 C.ar      14 UNK        -0.0881 
     11 C11       -52.6305  -29.2467    8.8227 C.ar      14 UNK        -0.0643 
     12 C12       -53.8328  -29.8936    9.1223 C.ar      14 UNK        -0.0930 
     13 C13       -55.0493  -29.2087    9.0159 C.ar      14 UNK        -0.0827 
     14 C14       -55.0483  -27.8594    8.6425 C.ar      14 UNK        -0.1249 
     15 C15       -56.3718  -29.9259    9.2563 C.3       14 UNK         0.0141 
     16 S16       -56.7600  -30.1087   11.0247 S.3       14 UNK        -0.2313 
     17 C17       -56.1415  -31.7938   11.3569 C.3       14 UNK        -0.0915 
     18 CA        -55.6208  -31.9730   12.8048 C.3       13 UNK         0.0968 
     19 C         -55.1670  -33.4406   13.0375 C.2       13 UNK         0.5732 
     20 N         -56.0636  -34.3021   13.4983 N.am      13 UNK        -0.7310 
     21 O         -54.0275  -33.8121   12.7612 O.2       13 UNK        -0.5035 
     22 N         -54.5778  -30.9892   13.1213 N.am      13 UNK        -0.4233 
     23 C         -54.0212  -30.8057   14.3247 C.2       13 UNK         0.4989 
     24 O         -54.3262  -31.4435   15.3335 O.2       13 UNK        -0.4996 
     25 CA        -52.9456  -29.7102   14.4283 C.3       12 UNK         0.0216 
     26 CB        -51.5521  -30.3234   14.2067 C.3       12 UNK        -0.1964 
     27 N         -53.1455  -28.5867   13.5031 N.am      12 UNK        -0.4276 
     28 C         -54.1818  -27.7346   13.5474 C.2       12 UNK         0.5020 
     29 O         -55.1031  -27.8177   14.3614 O.2       12 UNK        -0.5489 
     30 CA        -54.1517  -26.5824   12.5309 C.3       11 UNK         0.0294 
     31 CB        -55.5321  -26.2866   11.9092 C.3       11 UNK        -0.2019 
     32 N         -53.5363  -25.3956   13.1345 N.am      11 UNK        -0.4493 
     33 C         -54.0261  -24.5561   14.0601 C.2       11 UNK         0.4932 
     34 O         -55.1809  -24.5696   14.4892 O.2       11 UNK        -0.5029 
     35 CA        -53.0152  -23.5231   14.5976 C.3       10 UNK         0.0280 
     36 CB        -53.6289  -22.5114   15.5894 C.3       10 UNK        -0.1976 
     37 N         -51.8320  -24.1817   15.1626 N.am      10 UNK        -0.4242 
     38 C         -51.7744  -25.0030   16.2225 C.2       10 UNK         0.5072 
     39 O         -52.7205  -25.2234   16.9794 O.2       10 UNK        -0.5224 
     40 CA        -50.4437  -25.7383   16.4783 C.3       9 UNK         0.0343 
     41 CB        -50.5811  -27.2152   16.0797 C.3       9 UNK        -0.2003 
     42 N         -49.2930  -25.1649   15.7732 N.am      9 UNK        -0.4272 
     43 C         -48.6807  -24.0235   16.1187 C.2       9 UNK         0.4988 
     44 O         -49.0002  -23.3426   17.0937 O.2       9 UNK        -0.5108 
     45 CA        -47.5277  -23.5511   15.2153 C.3       8 UNK         0.0248 
     46 CB        -46.2205  -24.2721   15.5816 C.3       8 UNK        -0.2001 
     47 N         -47.8055  -23.7324   13.7880 N.am      8 UNK        -0.4140 
     48 C         -48.7787  -23.1023   13.1127 C.2       8 UNK         0.5028 
     49 O         -49.5256  -22.2583   13.6080 O.2       8 UNK        -0.5428 
     50 CA        -48.9913  -23.5263   11.6498 C.3       7 UNK         0.0264 
     51 CB        -47.9356  -22.8847   10.7377 C.3       7 UNK        -0.1988 
     52 N         -48.9784  -24.9823   11.4847 N.am      7 UNK        -0.4454 
     53 C         -49.8596  -25.8105   12.0626 C.2       7 UNK         0.5027 
     54 O         -50.8095  -25.4233   12.7384 O.2       7 UNK        -0.5083 
     55 CA        -49.6517  -27.3254   11.8959 C.3       6 UNK         0.0844 
     56 C56       -50.3786  -27.8359   10.6368 C.3       14 UNK        -0.0967 
     57 S57       -50.5311  -29.6541   10.6036 S.3       14 UNK        -0.2604 
     58 C58       -51.2924  -29.9577    8.9721 C.3       14 UNK         0.0134 
     59 N         -48.2355  -27.6844   11.9291 N.am      6 UNK        -0.4116 
     60 C         -47.4703  -27.6081   13.0262 C.2       5 UNK         0.5034 
     61 O         -47.8865  -27.2679   14.1340 O.2       5 UNK        -0.5045 
     62 CA        -45.9757  -27.9078   12.8353 C.3       5 UNK         0.0224 
     63 CB        -45.7269  -29.4226   12.7577 C.3       5 UNK        -0.1978 
     64 N         -45.4260  -27.2514   11.6450 N.am      5 UNK        -0.4737 
     65 C         -45.3433  -25.9221   11.4927 C.2       4 UNK         0.5027 
     66 O         -45.6853  -25.1133   12.3549 O.2       4 UNK        -0.5211 
     67 CA        -44.8278  -25.4060   10.1394 C.3       4 UNK         0.0297 
     68 CB        -43.2932  -25.3264   10.1465 C.3       4 UNK        -0.1993 
     69 N         -45.2750  -26.1878    8.9804 N.am      4 UNK        -0.4486 
     70 C         -46.5526  -26.3874    8.6302 C.2       3 UNK         0.4961 
     71 O         -47.5211  -26.0276    9.3020 O.2       3 UNK        -0.5105 
     72 CA        -46.7990  -27.1178    7.3041 C.3       3 UNK         0.0299 
     73 CB        -47.5779  -28.4239    7.5311 C.3       3 UNK        -0.1972 
     74 N         -47.5550  -26.2482    6.4043 N.am      3 UNK        -0.4305 
     75 C         -47.0235  -25.2416    5.6959 C.2       2 UNK         0.5006 
     76 O         -45.8164  -25.0010    5.6458 O.2       2 UNK        -0.5106 
     77 CA        -48.0017  -24.3495    4.9114 C.3       2 UNK         0.0296 
     78 CB        -48.2723  -24.9365    3.5167 C.3       2 UNK        -0.2002 
     79 N         -49.2739  -24.1485    5.6088 N.am      2 UNK        -0.4032 
     80 C         -49.4405  -23.4084    6.7129 C.2       1 UNK         0.5000 
     81 O         -48.5377  -22.7507    7.2305 O.2       1 UNK        -0.5238 
     82 H82       -53.0879  -22.5810    3.4912 H         1 UNK         0.0889 
     83 H83       -53.7035  -21.8299    4.9652 H         1 UNK         0.0889 
     84 H84       -54.3254  -23.3987    4.4493 H         1 UNK         0.0889 
     85 H85       -52.2644  -21.9947    6.6360 H         1 UNK         0.3028 
     86 H86       -50.8160  -22.6280    8.1257 H         1 UNK         0.0864 
     87 H87       -50.4011  -25.0035    8.7256 H         1 UNK         0.0720 
     88 H88       -51.2131  -25.5290    7.2755 H         1 UNK         0.0720 
     89 H89       -53.5790  -25.6581    6.8671 H         1 UNK         0.0814 
     90 H90       -54.8670  -25.3301    7.9925 H         1 UNK         0.0814 
     91 H91       -51.7265  -27.4423    8.1294 H         1 UNK         0.1469 
     92 H92       -53.8170  -30.9300    9.4260 H         1 UNK         0.1381 
     93 H93       -55.9849  -27.3226    8.5773 H         1 UNK         0.1206 
     94 H94       -56.3627  -30.9012    8.7676 H         1 UNK         0.0813 
     95 H95       -57.1853  -29.3707    8.7868 H         1 UNK         0.0813 
     96 H96       -55.3565  -32.0448   10.6432 H         1 UNK         0.0638 
     97 H97       -56.9613  -32.4873   11.1603 H         1 UNK         0.0638 
     98 H98       -56.4502  -31.7717   13.4857 H         1 UNK         0.0568 
     99 H99       -57.0044  -34.0113   13.7148 H         1 UNK         0.3450 
    100 H100      -55.7916  -35.2623   13.6398 H         1 UNK         0.3450 
    101 H101      -54.2685  -30.4148   12.3530 H         1 UNK         0.2987 
    102 H102      -52.9857  -29.3091   15.4431 H         1 UNK         0.0766 
    103 H103      -50.7571  -29.5873   14.3164 H         1 UNK         0.0798 
    104 H104      -51.4614  -30.7715   13.2168 H         1 UNK         0.0798 
    105 H105      -51.3576  -31.1126   14.9343 H         1 UNK         0.0798 
    106 H106      -52.4385  -28.4595   12.7949 H         1 UNK         0.3198 
    107 H107      -53.4992  -26.8753   11.7068 H         1 UNK         0.0843 
    108 H108      -56.2780  -26.0207   12.6580 H         1 UNK         0.0831 
    109 H109      -55.9095  -27.1637   11.3837 H         1 UNK         0.0831 
    110 H110      -55.4731  -25.4747   11.1843 H         1 UNK         0.0831 
    111 H111      -52.5428  -25.2924   12.9228 H         1 UNK         0.3133 
    112 H112      -52.6609  -22.9574   13.7342 H         1 UNK         0.0566 
    113 H113      -52.8854  -21.7906   15.9294 H         1 UNK         0.0814 
    114 H114      -54.4355  -21.9489   15.1180 H         1 UNK         0.0814 
    115 H115      -54.0487  -23.0009   16.4685 H         1 UNK         0.0814 
    116 H116      -50.9994  -24.1204   14.5895 H         1 UNK         0.3091 
    117 H117      -50.2448  -25.6919   17.5510 H         1 UNK         0.0702 
    118 H118      -49.6674  -27.7731   16.2857 H         1 UNK         0.0785 
    119 H119      -50.8065  -27.3152   15.0185 H         1 UNK         0.0785 
    120 H120      -51.3882  -27.6977   16.6325 H         1 UNK         0.0785 
    121 H121      -48.9188  -25.7043   14.9991 H         1 UNK         0.2998 
    122 H122      -47.3869  -22.4826   15.3907 H         1 UNK         0.0697 
    123 H123      -46.2843  -25.3448   15.3948 H         1 UNK         0.0825 
    124 H124      -45.9809  -24.1367   16.6371 H         1 UNK         0.0825 
    125 H125      -45.3801  -23.8844   15.0054 H         1 UNK         0.0825 
    126 H126      -47.1977  -24.3731   13.2819 H         1 UNK         0.3029 
    127 H127      -49.9754  -23.1721   11.3344 H         1 UNK         0.0897 
    128 H128      -48.0228  -23.2469    9.7147 H         1 UNK         0.0792 
    129 H129      -46.9219  -23.0937   11.0775 H         1 UNK         0.0792 
    130 H130      -48.0519  -21.8007   10.7126 H         1 UNK         0.0792 
    131 H131      -48.2717  -25.3720   10.8636 H         1 UNK         0.3086 
    132 H132      -50.1231  -27.7969   12.7597 H         1 UNK         0.0583 
    133 H133      -51.3865  -27.4207   10.6129 H         1 UNK         0.1020 
    134 H134      -49.8773  -27.4884    9.7328 H         1 UNK         0.1020 
    135 H135      -50.6063  -29.6384    8.1866 H         1 UNK         0.0694 
    136 H136      -51.4242  -31.0327    8.8406 H         1 UNK         0.0694 
    137 H137      -47.8070  -27.9289   11.0492 H         1 UNK         0.2989 
    138 H138      -45.4496  -27.5170   13.7095 H         1 UNK         0.1055 
    139 H139      -46.1209  -29.9271   13.6413 H         1 UNK         0.0806 
    140 H140      -44.6612  -29.6470   12.7080 H         1 UNK         0.0806 
    141 H141      -46.2057  -29.8713   11.8864 H         1 UNK         0.0806 
    142 H142      -45.1179  -27.8425   10.8864 H         1 UNK         0.3061 
    143 H143      -45.2154  -24.3939   10.0101 H         1 UNK         0.0734 
    144 H144      -42.9149  -24.8550    9.2392 H         1 UNK         0.0832 
    145 H145      -42.9380  -24.7312   10.9892 H         1 UNK         0.0832 
    146 H146      -42.8360  -26.3132   10.2298 H         1 UNK         0.0832 
    147 H147      -44.5519  -26.5196    8.3577 H         1 UNK         0.3156 
    148 H148      -45.8418  -27.3687    6.8417 H         1 UNK         0.0589 
    149 H149      -48.5682  -28.2397    7.9456 H         1 UNK         0.0808 
    150 H150      -47.7052  -28.9744    6.5988 H         1 UNK         0.0808 
    151 H151      -47.0502  -29.0802    8.2244 H         1 UNK         0.0808 
    152 H152      -48.5581  -26.3516    6.4104 H         1 UNK         0.3098 
    153 H153      -47.5284  -23.3735    4.7835 H         1 UNK         0.0720 
    154 H154      -48.9022  -24.2732    2.9236 H         1 UNK         0.0791 
    155 H155      -48.7685  -25.9062    3.5746 H         1 UNK         0.0791 
    156 H156      -47.3416  -25.0776    2.9652 H         1 UNK         0.0791 
    157 H157      -50.1064  -24.5814    5.2132 H         1 UNK         0.3028 
@<TRIPOS>BOND
     1    1    2 1    
     2    1   82 1    
     3    1   83 1    
     4    1   84 1    
     5    2    3 2    
     6    2    4 am   BACKBONE|DICT|INTERRES
     7    4    5 1    
     8    4   85 1    
     9    5    6 1    
    10    5   80 1    
    11    5   86 1    
    12    6    7 1    
    13    6   87 1    
    14    6   88 1    
    15    7    8 1    
    16    8    9 1    
    17    8   89 1    
    18    8   90 1    
    19    9   10 ar   
    20    9   14 ar   
    21   10   11 ar   
    22   10   91 1    
    23   11   12 ar   
    24   11   58 1    
    25   12   13 ar   
    26   12   92 1    
    27   13   14 ar   
    28   13   15 1    
    29   14   93 1    
    30   15   16 1    
    31   15   94 1    
    32   15   95 1    
    33   16   17 1    
    34   17   18 1    
    35   17   96 1    
    36   17   97 1    
    37   18   19 1    
    38   18   22 1    
    39   18   98 1    
    40   19   20 am   BACKBONE|DICT|INTERRES
    41   19   21 2    
    42   20   99 1    
    43   20  100 1    
    44   22   23 am   BACKBONE|DICT|INTERRES
    45   22  101 1    
    46   23   24 2    
    47   23   25 1    
    48   25   26 1    
    49   25   27 1    
    50   25  102 1    
    51   26  103 1    
    52   26  104 1    
    53   26  105 1    
    54   27   28 am   BACKBONE|DICT|INTERRES
    55   27  106 1    
    56   28   29 2    
    57   28   30 1    
    58   30   31 1    
    59   30   32 1    
    60   30  107 1    
    61   31  108 1    
    62   31  109 1    
    63   31  110 1    
    64   32   33 am   BACKBONE|DICT|INTERRES
    65   32  111 1    
    66   33   34 2    
    67   33   35 1    
    68   35   36 1    
    69   35   37 1    
    70   35  112 1    
    71   36  113 1    
    72   36  114 1    
    73   36  115 1    
    74   37   38 am   BACKBONE|DICT|INTERRES
    75   37  116 1    
    76   38   39 2    
    77   38   40 1    
    78   40   41 1    
    79   40   42 1    
    80   40  117 1    
    81   41  118 1    
    82   41  119 1    
    83   41  120 1    
    84   42   43 am   BACKBONE|DICT|INTERRES
    85   42  121 1    
    86   43   44 2    
    87   43   45 1    
    88   45   46 1    
    89   45   47 1    
    90   45  122 1    
    91   46  123 1    
    92   46  124 1    
    93   46  125 1    
    94   47   48 am   BACKBONE|DICT|INTERRES
    95   47  126 1    
    96   48   49 2    
    97   48   50 1    
    98   50   51 1    
    99   50   52 1    
   100   50  127 1    
   101   51  128 1    
   102   51  129 1    
   103   51  130 1    
   104   52   53 am   BACKBONE|DICT|INTERRES
   105   52  131 1    
   106   53   54 2    
   107   53   55 1    
   108   55   56 1    
   109   55   59 1    
   110   55  132 1    
   111   56   57 1    
   112   56  133 1    
   113   56  134 1    
   114   57   58 1    
   115   58  135 1    
   116   58  136 1    
   117   59   60 am   BACKBONE|DICT|INTERRES
   118   59  137 1    
   119   60   61 2    
   120   60   62 1    
   121   62   63 1    
   122   62   64 1    
   123   62  138 1    
   124   63  139 1    
   125   63  140 1    
   126   63  141 1    
   127   64   65 am   BACKBONE|DICT|INTERRES
   128   64  142 1    
   129   65   66 2    
   130   65   67 1    
   131   67   68 1    
   132   67   69 1    
   133   67  143 1    
   134   68  144 1    
   135   68  145 1    
   136   68  146 1    
   137   69   70 am   BACKBONE|DICT|INTERRES
   138   69  147 1    
   139   70   71 2    
   140   70   72 1    
   141   72   73 1    
   142   72   74 1    
   143   72  148 1    
   144   73  149 1    
   145   73  150 1    
   146   73  151 1    
   147   74   75 am   BACKBONE|DICT|INTERRES
   148   74  152 1    
   149   75   76 2    
   150   75   77 1    
   151   77   78 1    
   152   77   79 1    
   153   77  153 1    
   154   78  154 1    
   155   78  155 1    
   156   78  156 1    
   157   79   80 am   BACKBONE|DICT|INTERRES
   158   79  157 1    
   159   80   81 2    
@<TRIPOS>SUBSTRUCTURE
     1 UNK         1 GROUP             0       ****    0 ROOT    
