@<TRIPOS>MOLECULE
3R207
157   159    1
SMALL
USER_CHARGES


@<TRIPOS>ATOM
      1 CA        -45.0134  -29.1207    4.8891 C.3       0 UNK        -0.1975 
      2 C         -46.3961  -28.5297    4.6582 C.2       0 UNK         0.4852 
      3 O         -46.5485  -27.6388    3.8205 O.2       0 UNK        -0.5216 
      4 N         -47.4058  -29.0170    5.3931 N.am      1 UNK        -0.4461 
      5 CA        -48.7790  -28.5025    5.3641 C.3       1 UNK         0.0864 
      6 C6        -49.7527  -29.4463    6.1134 C.3       14 UNK        -0.0898 
      7 S7        -51.4772  -29.2141    5.5673 S.3       14 UNK        -0.2598 
      8 C8        -52.3936  -30.1544    6.8298 C.3       14 UNK         0.0286 
      9 C9        -52.3375  -29.5077    8.2084 C.ar      14 UNK        -0.0844 
     10 C10       -52.8574  -28.2252    8.4114 C.ar      14 UNK        -0.0881 
     11 C11       -52.8337  -27.6393    9.6808 C.ar      14 UNK        -0.0643 
     12 C12       -52.2983  -28.3533   10.7563 C.ar      14 UNK        -0.0930 
     13 C13       -51.7831  -29.6393   10.5681 C.ar      14 UNK        -0.0827 
     14 C14       -51.7959  -30.2070    9.2909 C.ar      14 UNK        -0.1249 
     15 C15       -51.2158  -30.4191   11.7457 C.3       14 UNK         0.0141 
     16 S16       -52.3618  -31.7118   12.3273 S.3       14 UNK        -0.2313 
     17 C17       -53.8117  -30.7270   12.8332 C.3       14 UNK        -0.0915 
     18 CA        -54.8990  -30.6473   11.7149 C.3       13 UNK         0.0968 
     19 C         -55.9482  -31.8006   11.7711 C.2       13 UNK         0.5732 
     20 N         -57.1960  -31.5732   11.3775 N.am      13 UNK        -0.7310 
     21 O         -55.6288  -32.9266   12.1452 O.2       13 UNK        -0.5035 
     22 N         -55.4624  -29.2924   11.5878 N.am      13 UNK        -0.4233 
     23 C         -56.1513  -28.6460   12.5351 C.2       13 UNK         0.4989 
     24 O         -56.4738  -29.1400   13.6184 O.2       13 UNK        -0.4996 
     25 CA        -56.5720  -27.2031   12.2039 C.3       12 UNK         0.0216 
     26 CB        -57.9891  -27.1755   11.6086 C.3       12 UNK        -0.1964 
     27 N         -56.5312  -26.3570   13.3983 N.am      12 UNK        -0.4276 
     28 C         -55.4075  -26.0167   14.0419 C.2       12 UNK         0.5020 
     29 O         -54.2716  -26.2427   13.6115 O.2       12 UNK        -0.5489 
     30 CA        -55.5857  -25.3365   15.4068 C.3       11 UNK         0.0294 
     31 CB        -56.2492  -26.3049   16.4114 C.3       11 UNK        -0.2019 
     32 N         -54.2635  -24.9422   15.8799 N.am      11 UNK        -0.4493 
     33 C         -53.9627  -24.2306   16.9721 C.2       11 UNK         0.4932 
     34 O         -54.8071  -23.7104   17.7035 O.2       11 UNK        -0.5029 
     35 CA        -52.4622  -24.0783   17.2975 C.3       10 UNK         0.0280 
     36 CB        -52.1892  -23.8020   18.7912 C.3       10 UNK        -0.1976 
     37 N         -51.6596  -25.2067   16.8079 N.am      10 UNK        -0.4242 
     38 C         -51.7294  -26.4931   17.1857 C.2       10 UNK         0.5072 
     39 O         -52.4464  -26.9127   18.0949 O.2       10 UNK        -0.5224 
     40 CA        -50.8640  -27.4925   16.3972 C.3       9 UNK         0.0343 
     41 CB        -51.6521  -28.0633   15.2069 C.3       9 UNK        -0.2003 
     42 N         -49.6070  -26.9186   15.9110 N.am      9 UNK        -0.4272 
     43 C         -48.5810  -26.5584   16.6962 C.2       9 UNK         0.4988 
     44 O         -48.5584  -26.7188   17.9169 O.2       9 UNK        -0.5108 
     45 CA        -47.3838  -25.8914   16.0022 C.3       8 UNK         0.0248 
     46 CB        -46.4785  -26.9390   15.3327 C.3       8 UNK        -0.2001 
     47 N         -47.8183  -24.9024   15.0141 N.am      8 UNK        -0.4140 
     48 C         -48.2549  -23.6715   15.3190 C.2       8 UNK         0.5028 
     49 O         -48.2795  -23.2157   16.4623 O.2       8 UNK        -0.5428 
     50 CA        -48.7556  -22.7978   14.1548 C.3       7 UNK         0.0264 
     51 CB        -47.6044  -21.9578   13.5782 C.3       7 UNK        -0.1988 
     52 N         -49.3770  -23.5697   13.0760 N.am      7 UNK        -0.4454 
     53 C         -50.5437  -24.2235   13.1808 C.2       7 UNK         0.5027 
     54 O         -51.2374  -24.2238   14.1960 O.2       7 UNK        -0.5083 
     55 CA        -50.9840  -25.0507   11.9598 C.3       6 UNK         0.0844 
     56 C56       -51.7938  -24.1700   10.9739 C.3       14 UNK        -0.0967 
     57 S57       -52.1944  -24.9739    9.3829 S.3       14 UNK        -0.2604 
     58 C58       -53.3978  -26.2414    9.8833 C.3       14 UNK         0.0134 
     59 N         -49.8525  -25.7245   11.3206 N.am      6 UNK        -0.4116 
     60 C         -49.0536  -26.6399   11.8763 C.2       5 UNK         0.5034 
     61 O         -49.1506  -27.0070   13.0477 O.2       5 UNK        -0.5045 
     62 CA        -47.9485  -27.2364   10.9870 C.3       5 UNK         0.0224 
     63 CB        -48.5516  -28.1112    9.8712 C.3       5 UNK        -0.1978 
     64 N         -46.9878  -26.2732   10.4223 N.am      5 UNK        -0.4737 
     65 C         -47.2053  -25.2528    9.5785 C.2       4 UNK         0.5027 
     66 O         -48.3226  -24.8376    9.2671 O.2       4 UNK        -0.5211 
     67 CA        -45.9748  -24.5949    8.9341 C.3       4 UNK         0.0297 
     68 CB        -44.6437  -25.3437    9.1597 C.3       4 UNK        -0.1993 
     69 N         -46.2577  -24.5031    7.5069 N.am      4 UNK        -0.4486 
     70 C         -45.8566  -23.5315    6.6791 C.2       3 UNK         0.4961 
     71 O         -45.0734  -22.6373    7.0015 O.2       3 UNK        -0.5105 
     72 CA        -46.4353  -23.5448    5.2480 C.3       3 UNK         0.0299 
     73 CB        -45.4312  -24.1760    4.2704 C.3       3 UNK        -0.1972 
     74 N         -47.7114  -24.2607    5.1541 N.am      3 UNK        -0.4305 
     75 C         -48.8562  -23.8609    5.7290 C.2       2 UNK         0.5006 
     76 O         -49.0054  -22.7425    6.2238 O.2       2 UNK        -0.5106 
     77 CA        -50.0294  -24.8637    5.7906 C.3       2 UNK         0.0296 
     78 CB        -51.2333  -24.3478    4.9842 C.3       2 UNK        -0.2002 
     79 N         -49.7323  -26.2387    5.3661 N.am      2 UNK        -0.4032 
     80 C         -48.8376  -27.0658    5.9252 C.2       1 UNK         0.5000 
     81 O         -48.0677  -26.7345    6.8287 O.2       1 UNK        -0.5238 
     82 H82       -44.6287  -29.5479    3.9636 H         1 UNK         0.0889 
     83 H83       -45.0260  -29.9049    5.6458 H         1 UNK         0.0889 
     84 H84       -44.3251  -28.3426    5.2183 H         1 UNK         0.0889 
     85 H85       -47.2163  -29.7251    6.0873 H         1 UNK         0.3028 
     86 H86       -49.0705  -28.4693    4.3115 H         1 UNK         0.0864 
     87 H87       -49.6792  -29.3147    7.1950 H         1 UNK         0.0720 
     88 H88       -49.4955  -30.4883    5.9163 H         1 UNK         0.0720 
     89 H89       -52.0103  -31.1756    6.8598 H         1 UNK         0.0814 
     90 H90       -53.4371  -30.2298    6.5213 H         1 UNK         0.0814 
     91 H91       -53.2745  -27.6785    7.5767 H         1 UNK         0.1469 
     92 H92       -52.2941  -27.9150   11.7442 H         1 UNK         0.1381 
     93 H93       -51.3999  -31.2031    9.1478 H         1 UNK         0.1206 
     94 H94       -50.2777  -30.8906   11.4500 H         1 UNK         0.0813 
     95 H95       -50.9697  -29.7483   12.5691 H         1 UNK         0.0813 
     96 H96       -53.4576  -29.7320   13.1070 H         1 UNK         0.0638 
     97 H97       -54.2216  -31.1441   13.7547 H         1 UNK         0.0638 
     98 H98       -54.4039  -30.8005   10.7559 H         1 UNK         0.0568 
     99 H99       -57.8663  -32.3251   11.4071 H         1 UNK         0.3450 
    100 H100      -57.4749  -30.6593   11.0608 H         1 UNK         0.3450 
    101 H101      -55.2629  -28.8242   10.7161 H         1 UNK         0.2987 
    102 H102      -55.8794  -26.7888   11.4699 H         1 UNK         0.0766 
    103 H103      -58.2926  -26.1602   11.3521 H         1 UNK         0.0798 
    104 H104      -58.7271  -27.5821   12.3017 H         1 UNK         0.0798 
    105 H105      -58.0410  -27.7671   10.6937 H         1 UNK         0.0798 
    106 H106      -57.4183  -26.1587   13.8376 H         1 UNK         0.3198 
    107 H107      -56.1993  -24.4427   15.2791 H         1 UNK         0.0843 
    108 H108      -55.6419  -27.1988   16.5623 H         1 UNK         0.0831 
    109 H109      -57.2297  -26.6332   16.0657 H         1 UNK         0.0831 
    110 H110      -56.4010  -25.8389   17.3847 H         1 UNK         0.0831 
    111 H111      -53.5146  -25.2843   15.2859 H         1 UNK         0.3133 
    112 H112      -52.1210  -23.2072   16.7367 H         1 UNK         0.0566 
    113 H113      -51.1212  -23.7035   18.9863 H         1 UNK         0.0814 
    114 H114      -52.6632  -22.8728   19.1094 H         1 UNK         0.0814 
    115 H115      -52.5760  -24.5973   19.4288 H         1 UNK         0.0814 
    116 H116      -51.1064  -24.9915   15.9836 H         1 UNK         0.3091 
    117 H117      -50.6210  -28.3172   17.0706 H         1 UNK         0.0702 
    118 H118      -51.1046  -28.8761   14.7317 H         1 UNK         0.0785 
    119 H119      -51.8492  -27.3032   14.4499 H         1 UNK         0.0785 
    120 H120      -52.6157  -28.4642   15.5251 H         1 UNK         0.0785 
    121 H121      -49.5100  -26.8162   14.9038 H         1 UNK         0.2998 
    122 H122      -46.7945  -25.3815   16.7678 H         1 UNK         0.0697 
    123 H123      -47.0018  -27.4999   14.5581 H         1 UNK         0.0825 
    124 H124      -46.1154  -27.6612   16.0652 H         1 UNK         0.0825 
    125 H125      -45.6040  -26.4742   14.8773 H         1 UNK         0.0825 
    126 H126      -47.8668  -25.2095   14.0537 H         1 UNK         0.3029 
    127 H127      -49.5085  -22.1166   14.5582 H         1 UNK         0.0897 
    128 H128      -47.9597  -21.2722   12.8085 H         1 UNK         0.0792 
    129 H129      -47.1363  -21.3528   14.3563 H         1 UNK         0.0792 
    130 H130      -46.8257  -22.5829   13.1393 H         1 UNK         0.0792 
    131 H131      -48.8771  -23.6206   12.1997 H         1 UNK         0.3086 
    132 H132      -51.6470  -25.8301   12.3364 H         1 UNK         0.0583 
    133 H133      -52.7236  -23.8385   11.4410 H         1 UNK         0.1020 
    134 H134      -51.2397  -23.2605   10.7329 H         1 UNK         0.1020 
    135 H135      -53.6896  -26.0932   10.9233 H         1 UNK         0.0694 
    136 H136      -54.3056  -26.1206    9.2907 H         1 UNK         0.0694 
    137 H137      -49.6304  -25.4376   10.3686 H         1 UNK         0.2989 
    138 H138      -47.3607  -27.8949   11.6291 H         1 UNK         0.1055 
    139 H139      -47.7765  -28.5329    9.2314 H         1 UNK         0.0806 
    140 H140      -49.2370  -27.5504    9.2336 H         1 UNK         0.0806 
    141 H141      -49.1088  -28.9460   10.2925 H         1 UNK         0.0806 
    142 H142      -46.0203  -26.4860   10.6224 H         1 UNK         0.3061 
    143 H143      -45.8948  -23.5902    9.3543 H         1 UNK         0.0734 
    144 H144      -43.8222  -24.8410    8.6488 H         1 UNK         0.0832 
    145 H145      -44.3797  -25.3797   10.2172 H         1 UNK         0.0832 
    146 H146      -44.6849  -26.3671    8.7838 H         1 UNK         0.0832 
    147 H147      -46.9471  -25.1782    7.1777 H         1 UNK         0.3156 
    148 H148      -46.6039  -22.5086    4.9477 H         1 UNK         0.0589 
    149 H149      -45.2243  -25.2174    4.5213 H         1 UNK         0.0808 
    150 H150      -44.4804  -23.6415    4.2888 H         1 UNK         0.0808 
    151 H151      -45.8000  -24.1449    3.2450 H         1 UNK         0.0808 
    152 H152      -47.6751  -25.1947    4.7699 H         1 UNK         0.3098 
    153 H153      -50.3246  -24.9174    6.8408 H         1 UNK         0.0720 
    154 H154      -51.5210  -23.3456    5.3053 H         1 UNK         0.0791 
    155 H155      -52.1054  -24.9881    5.1199 H         1 UNK         0.0791 
    156 H156      -51.0120  -24.2979    3.9174 H         1 UNK         0.0791 
    157 H157      -50.3168  -26.6060    4.6287 H         1 UNK         0.3028 
@<TRIPOS>BOND
     1    1    2 1    
     2    1   82 1    
     3    1   83 1    
     4    1   84 1    
     5    2    3 2    
     6    2    4 am   BACKBONE|DICT|INTERRES
     7    4    5 1    
     8    4   85 1    
     9    5    6 1    
    10    5   80 1    
    11    5   86 1    
    12    6    7 1    
    13    6   87 1    
    14    6   88 1    
    15    7    8 1    
    16    8    9 1    
    17    8   89 1    
    18    8   90 1    
    19    9   10 ar   
    20    9   14 ar   
    21   10   11 ar   
    22   10   91 1    
    23   11   12 ar   
    24   11   58 1    
    25   12   13 ar   
    26   12   92 1    
    27   13   14 ar   
    28   13   15 1    
    29   14   93 1    
    30   15   16 1    
    31   15   94 1    
    32   15   95 1    
    33   16   17 1    
    34   17   18 1    
    35   17   96 1    
    36   17   97 1    
    37   18   19 1    
    38   18   22 1    
    39   18   98 1    
    40   19   20 am   BACKBONE|DICT|INTERRES
    41   19   21 2    
    42   20   99 1    
    43   20  100 1    
    44   22   23 am   BACKBONE|DICT|INTERRES
    45   22  101 1    
    46   23   24 2    
    47   23   25 1    
    48   25   26 1    
    49   25   27 1    
    50   25  102 1    
    51   26  103 1    
    52   26  104 1    
    53   26  105 1    
    54   27   28 am   BACKBONE|DICT|INTERRES
    55   27  106 1    
    56   28   29 2    
    57   28   30 1    
    58   30   31 1    
    59   30   32 1    
    60   30  107 1    
    61   31  108 1    
    62   31  109 1    
    63   31  110 1    
    64   32   33 am   BACKBONE|DICT|INTERRES
    65   32  111 1    
    66   33   34 2    
    67   33   35 1    
    68   35   36 1    
    69   35   37 1    
    70   35  112 1    
    71   36  113 1    
    72   36  114 1    
    73   36  115 1    
    74   37   38 am   BACKBONE|DICT|INTERRES
    75   37  116 1    
    76   38   39 2    
    77   38   40 1    
    78   40   41 1    
    79   40   42 1    
    80   40  117 1    
    81   41  118 1    
    82   41  119 1    
    83   41  120 1    
    84   42   43 am   BACKBONE|DICT|INTERRES
    85   42  121 1    
    86   43   44 2    
    87   43   45 1    
    88   45   46 1    
    89   45   47 1    
    90   45  122 1    
    91   46  123 1    
    92   46  124 1    
    93   46  125 1    
    94   47   48 am   BACKBONE|DICT|INTERRES
    95   47  126 1    
    96   48   49 2    
    97   48   50 1    
    98   50   51 1    
    99   50   52 1    
   100   50  127 1    
   101   51  128 1    
   102   51  129 1    
   103   51  130 1    
   104   52   53 am   BACKBONE|DICT|INTERRES
   105   52  131 1    
   106   53   54 2    
   107   53   55 1    
   108   55   56 1    
   109   55   59 1    
   110   55  132 1    
   111   56   57 1    
   112   56  133 1    
   113   56  134 1    
   114   57   58 1    
   115   58  135 1    
   116   58  136 1    
   117   59   60 am   BACKBONE|DICT|INTERRES
   118   59  137 1    
   119   60   61 2    
   120   60   62 1    
   121   62   63 1    
   122   62   64 1    
   123   62  138 1    
   124   63  139 1    
   125   63  140 1    
   126   63  141 1    
   127   64   65 am   BACKBONE|DICT|INTERRES
   128   64  142 1    
   129   65   66 2    
   130   65   67 1    
   131   67   68 1    
   132   67   69 1    
   133   67  143 1    
   134   68  144 1    
   135   68  145 1    
   136   68  146 1    
   137   69   70 am   BACKBONE|DICT|INTERRES
   138   69  147 1    
   139   70   71 2    
   140   70   72 1    
   141   72   73 1    
   142   72   74 1    
   143   72  148 1    
   144   73  149 1    
   145   73  150 1    
   146   73  151 1    
   147   74   75 am   BACKBONE|DICT|INTERRES
   148   74  152 1    
   149   75   76 2    
   150   75   77 1    
   151   77   78 1    
   152   77   79 1    
   153   77  153 1    
   154   78  154 1    
   155   78  155 1    
   156   78  156 1    
   157   79   80 am   BACKBONE|DICT|INTERRES
   158   79  157 1    
   159   80   81 2    
@<TRIPOS>SUBSTRUCTURE
     1 UNK         1 GROUP             0       ****    0 ROOT    
