@<TRIPOS>MOLECULE
3R207
157   159    1
SMALL
USER_CHARGES


@<TRIPOS>ATOM
      1 CA        -46.5324  -31.3476    2.1780 C.3       0 UNK        -0.1975 
      2 C         -46.9524  -30.2773    3.1754 C.2       0 UNK         0.4852 
      3 O         -46.1755  -29.9460    4.0724 O.2       0 UNK        -0.5216 
      4 N         -48.1731  -29.7437    3.0196 N.am      1 UNK        -0.4461 
      5 CA        -48.7803  -28.6865    3.8420 C.3       1 UNK         0.0864 
      6 C6        -49.0500  -29.1140    5.3145 C.3       14 UNK        -0.0898 
      7 S7        -50.0345  -30.6435    5.4611 S.3       14 UNK        -0.2598 
      8 C8        -51.7361  -30.0017    5.5828 C.3       14 UNK         0.0286 
      9 C9        -51.9633  -29.1669    6.8365 C.ar      14 UNK        -0.0844 
     10 C10       -52.2192  -27.7965    6.7320 C.ar      14 UNK        -0.0881 
     11 C11       -52.4470  -27.0236    7.8745 C.ar      14 UNK        -0.0643 
     12 C12       -52.4251  -27.6384    9.1323 C.ar      14 UNK        -0.0930 
     13 C13       -52.1504  -29.0039    9.2518 C.ar      14 UNK        -0.0827 
     14 C14       -51.9303  -29.7647    8.0996 C.ar      14 UNK        -0.1249 
     15 C15       -52.0708  -29.6561   10.6243 C.3       14 UNK         0.0141 
     16 S16       -53.7286  -30.0278   11.2831 S.3       14 UNK        -0.2313 
     17 C17       -53.8536  -28.9023   12.7175 C.3       14 UNK        -0.0915 
     18 CA        -54.1467  -29.6527   14.0515 C.3       13 UNK         0.0968 
     19 C         -52.8938  -30.2729   14.7326 C.2       13 UNK         0.5732 
     20 N         -52.0569  -30.9754   13.9824 N.am      13 UNK        -0.7310 
     21 O         -52.6820  -30.1560   15.9381 O.2       13 UNK        -0.5035 
     22 N         -54.8882  -28.7922   14.9813 N.am      13 UNK        -0.4233 
     23 C         -56.2131  -28.8108   15.1660 C.2       13 UNK         0.4989 
     24 O         -56.9706  -29.5631   14.5529 O.2       13 UNK        -0.4996 
     25 CA        -56.8165  -27.8012   16.1643 C.3       12 UNK         0.0216 
     26 CB        -58.0468  -28.3612   16.9113 C.3       12 UNK        -0.1964 
     27 N         -55.8457  -27.2085   17.0930 N.am      12 UNK        -0.4276 
     28 C         -55.1839  -27.8069   18.0972 C.2       12 UNK         0.5020 
     29 O         -55.3419  -28.9876   18.4097 O.2       12 UNK        -0.5489 
     30 CA        -54.1662  -26.9523   18.8818 C.3       11 UNK         0.0294 
     31 CB        -52.8645  -27.7325   19.1433 C.3       11 UNK        -0.2019 
     32 N         -53.8340  -25.7191   18.1651 N.am      11 UNK        -0.4493 
     33 C         -54.2885  -24.4926   18.4609 C.2       11 UNK         0.4932 
     34 O         -54.9817  -24.2394   19.4461 O.2       11 UNK        -0.5029 
     35 CA        -53.9403  -23.3540   17.4782 C.3       10 UNK         0.0280 
     36 CB        -52.7242  -22.5633   17.9862 C.3       10 UNK        -0.1976 
     37 N         -53.6740  -23.8134   16.1107 N.am      10 UNK        -0.4242 
     38 C         -54.5561  -24.4447   15.3204 C.2       10 UNK         0.5072 
     39 O         -55.7378  -24.6130   15.6202 O.2       10 UNK        -0.5224 
     40 CA        -54.0163  -25.0789   14.0236 C.3       9 UNK         0.0343 
     41 CB        -54.3325  -24.1887   12.8132 C.3       9 UNK        -0.2003 
     42 N         -52.5783  -25.3856   14.0720 N.am      9 UNK        -0.4272 
     43 C         -52.0251  -26.2489   14.9426 C.2       9 UNK         0.4988 
     44 O         -52.6974  -26.8875   15.7527 O.2       9 UNK        -0.5108 
     45 CA        -50.4949  -26.4229   14.9624 C.3       8 UNK         0.0248 
     46 CB        -50.1051  -27.8665   14.6077 C.3       8 UNK        -0.2001 
     47 N         -49.7859  -25.4945   14.0804 N.am      8 UNK        -0.4140 
     48 C         -49.5322  -24.2091   14.3743 C.2       8 UNK         0.5028 
     49 O         -49.8449  -23.6847   15.4440 O.2       8 UNK        -0.5428 
     50 CA        -48.8578  -23.3465   13.2855 C.3       7 UNK         0.0264 
     51 CB        -47.3362  -23.3099   13.4988 C.3       7 UNK        -0.1988 
     52 N         -49.1385  -23.7878   11.9151 N.am      7 UNK        -0.4454 
     53 C         -50.3640  -23.9272   11.3909 C.2       7 UNK         0.5027 
     54 O         -51.3855  -23.5668   11.9734 O.2       7 UNK        -0.5083 
     55 CA        -50.5034  -24.6771   10.0521 C.3       6 UNK         0.0844 
     56 C56       -50.8643  -23.7250    8.8917 C.3       14 UNK        -0.0967 
     57 S57       -51.2176  -24.5959    7.3260 S.3       14 UNK        -0.2604 
     58 C58       -52.7318  -25.5335    7.7273 C.3       14 UNK         0.0134 
     59 N         -49.3810  -25.5738    9.7485 N.am      6 UNK        -0.4116 
     60 C         -49.0621  -26.6545   10.4772 C.2       5 UNK         0.5034 
     61 O         -49.6457  -26.9765   11.5112 O.2       5 UNK        -0.5045 
     62 CA        -47.8703  -27.4910    9.9988 C.3       5 UNK         0.0224 
     63 CB        -48.2773  -28.3872    8.8188 C.3       5 UNK        -0.1978 
     64 N         -46.7567  -26.6227    9.6151 N.am      5 UNK        -0.4737 
     65 C         -45.8667  -26.1211   10.4837 C.2       4 UNK         0.5027 
     66 O         -45.8239  -26.4330   11.6735 O.2       4 UNK        -0.5211 
     67 CA        -44.8643  -25.0813    9.9478 C.3       4 UNK         0.0297 
     68 CB        -43.5727  -25.7725    9.4826 C.3       4 UNK        -0.1993 
     69 N         -45.3963  -24.2626    8.8550 N.am      4 UNK        -0.4486 
     70 C         -46.4331  -23.4195    8.9628 C.2       3 UNK         0.4961 
     71 O         -47.0250  -23.1945   10.0173 O.2       3 UNK        -0.5105 
     72 CA        -46.9296  -22.7515    7.6670 C.3       3 UNK         0.0299 
     73 CB        -46.2423  -21.3911    7.4719 C.3       3 UNK        -0.1972 
     74 N         -46.7617  -23.5629    6.4540 N.am      3 UNK        -0.4305 
     75 C         -47.2270  -24.8075    6.2765 C.2       2 UNK         0.5006 
     76 O         -47.8221  -25.4519    7.1462 O.2       2 UNK        -0.5106 
     77 CA        -46.9277  -25.4565    4.9207 C.3       2 UNK         0.0296 
     78 CB        -45.4231  -25.7628    4.7764 C.3       2 UNK        -0.2002 
     79 N         -47.6968  -26.6921    4.8251 N.am      2 UNK        -0.4032 
     80 C         -47.9844  -27.3652    3.7050 C.2       1 UNK         0.5000 
     81 O         -47.6541  -26.9792    2.5799 O.2       1 UNK        -0.5238 
     82 H82       -47.3131  -31.5529    1.4456 H         1 UNK         0.0889 
     83 H83       -46.3047  -32.2769    2.6996 H         1 UNK         0.0889 
     84 H84       -45.6389  -31.0298    1.6412 H         1 UNK         0.0889 
     85 H85       -48.7413  -30.0527    2.2434 H         1 UNK         0.3028 
     86 H86       -49.7503  -28.4798    3.3871 H         1 UNK         0.0864 
     87 H87       -48.1106  -29.2823    5.8439 H         1 UNK         0.0720 
     88 H88       -49.5656  -28.3194    5.8539 H         1 UNK         0.0720 
     89 H89       -52.4286  -30.8446    5.5892 H         1 UNK         0.0814 
     90 H90       -51.9654  -29.4278    4.6836 H         1 UNK         0.0814 
     91 H91       -52.2414  -27.3240    5.7594 H         1 UNK         0.1469 
     92 H92       -52.6228  -27.0651   10.0260 H         1 UNK         0.1381 
     93 H93       -51.7243  -30.8232    8.1826 H         1 UNK         0.1206 
     94 H94       -51.5067  -29.0153   11.3025 H         1 UNK         0.0813 
     95 H95       -51.5059  -30.5876   10.5626 H         1 UNK         0.0813 
     96 H96       -52.9696  -28.2705   12.8098 H         1 UNK         0.0638 
     97 H97       -54.6726  -28.2191   12.4867 H         1 UNK         0.0638 
     98 H98       -54.7774  -30.5149   13.8275 H         1 UNK         0.0568 
     99 H99       -51.2491  -31.3992   14.4100 H         1 UNK         0.3450 
    100 H100      -52.2392  -31.1021   12.9992 H         1 UNK         0.3450 
    101 H101      -54.3057  -28.1903   15.5530 H         1 UNK         0.2987 
    102 H102      -57.1699  -26.9715   15.5506 H         1 UNK         0.0766 
    103 H103      -57.8032  -29.2584   17.4808 H         1 UNK         0.0798 
    104 H104      -58.4611  -27.6264   17.6016 H         1 UNK         0.0798 
    105 H105      -58.8407  -28.6290   16.2131 H         1 UNK         0.0798 
    106 H106      -55.6485  -26.2292   16.9155 H         1 UNK         0.3198 
    107 H107      -54.6220  -26.7180   19.8460 H         1 UNK         0.0843 
    108 H108      -53.0533  -28.6201   19.7484 H         1 UNK         0.0831 
    109 H109      -52.1378  -27.1245   19.6819 H         1 UNK         0.0831 
    110 H110      -52.4014  -28.0667   18.2136 H         1 UNK         0.0831 
    111 H111      -53.2929  -25.8551   17.3158 H         1 UNK         0.3133 
    112 H112      -54.7982  -22.6794   17.4405 H         1 UNK         0.0566 
    113 H113      -52.5191  -21.6997   17.3533 H         1 UNK         0.0814 
    114 H114      -52.8950  -22.1889   18.9969 H         1 UNK         0.0814 
    115 H115      -51.8242  -23.1797   18.0140 H         1 UNK         0.0814 
    116 H116      -52.7234  -23.7202   15.7799 H         1 UNK         0.3091 
    117 H117      -54.5441  -26.0246   13.8865 H         1 UNK         0.0702 
    118 H118      -53.9973  -24.6481   11.8827 H         1 UNK         0.0785 
    119 H119      -53.8580  -23.2102   12.8978 H         1 UNK         0.0785 
    120 H120      -55.4069  -24.0215   12.7227 H         1 UNK         0.0785 
    121 H121      -51.9847  -24.8669   13.4328 H         1 UNK         0.2998 
    122 H122      -50.1666  -26.2363   15.9872 H         1 UNK         0.0697 
    123 H123      -50.5296  -28.1814   13.6542 H         1 UNK         0.0825 
    124 H124      -50.4664  -28.5594   15.3680 H         1 UNK         0.0825 
    125 H125      -49.0233  -27.9882   14.5511 H         1 UNK         0.0825 
    126 H126      -49.5366  -25.8550   13.1638 H         1 UNK         0.3029 
    127 H127      -49.2463  -22.3313   13.3889 H         1 UNK         0.0897 
    128 H128      -46.8540  -22.6264   12.7995 H         1 UNK         0.0792 
    129 H129      -47.0896  -22.9697   14.5056 H         1 UNK         0.0792 
    130 H130      -46.8875  -24.2954   13.3662 H         1 UNK         0.0792 
    131 H131      -48.3367  -23.9985   11.3287 H         1 UNK         0.3086 
    132 H132      -51.3665  -25.3189   10.2077 H         1 UNK         0.0583 
    133 H133      -51.7384  -23.1221    9.1472 H         1 UNK         0.1020 
    134 H134      -50.0542  -23.0167    8.7175 H         1 UNK         0.1020 
    135 H135      -53.2029  -25.1351    8.6271 H         1 UNK         0.0694 
    136 H136      -53.4535  -25.3868    6.9224 H         1 UNK         0.0694 
    137 H137      -48.8761  -25.3971    8.8863 H         1 UNK         0.2989 
    138 H138      -47.5585  -28.1376   10.8224 H         1 UNK         0.1055 
    139 H139      -47.4320  -28.9632    8.4426 H         1 UNK         0.0806 
    140 H140      -48.6869  -27.8066    7.9933 H         1 UNK         0.0806 
    141 H141      -49.0474  -29.0985    9.1203 H         1 UNK         0.0806 
    142 H142      -46.7700  -26.2656    8.6660 H         1 UNK         0.3061 
    143 H143      -44.6167  -24.4108   10.7738 H         1 UNK         0.0734 
    144 H144      -43.1403  -26.3705   10.2863 H         1 UNK         0.0832 
    145 H145      -43.7525  -26.4418    8.6402 H         1 UNK         0.0832 
    146 H146      -42.8182  -25.0456    9.1813 H         1 UNK         0.0832 
    147 H147      -44.9720  -24.3800    7.9468 H         1 UNK         0.3156 
    148 H148      -47.9989  -22.5732    7.7840 H         1 UNK         0.0589 
    149 H149      -45.1698  -21.4996    7.3047 H         1 UNK         0.0808 
    150 H150      -46.6627  -20.8503    6.6238 H         1 UNK         0.0808 
    151 H151      -46.3721  -20.7586    8.3516 H         1 UNK         0.0808 
    152 H152      -46.2757  -23.1207    5.6867 H         1 UNK         0.3098 
    153 H153      -47.2486  -24.7720    4.1328 H         1 UNK         0.0720 
    154 H154      -45.2016  -26.2263    3.8148 H         1 UNK         0.0791 
    155 H155      -45.0751  -26.4405    5.5574 H         1 UNK         0.0791 
    156 H156      -44.8219  -24.8551    4.8367 H         1 UNK         0.0791 
    157 H157      -48.0471  -27.0163    5.7177 H         1 UNK         0.3028 
@<TRIPOS>BOND
     1    1    2 1    
     2    1   82 1    
     3    1   83 1    
     4    1   84 1    
     5    2    3 2    
     6    2    4 am   BACKBONE|DICT|INTERRES
     7    4    5 1    
     8    4   85 1    
     9    5    6 1    
    10    5   80 1    
    11    5   86 1    
    12    6    7 1    
    13    6   87 1    
    14    6   88 1    
    15    7    8 1    
    16    8    9 1    
    17    8   89 1    
    18    8   90 1    
    19    9   10 ar   
    20    9   14 ar   
    21   10   11 ar   
    22   10   91 1    
    23   11   12 ar   
    24   11   58 1    
    25   12   13 ar   
    26   12   92 1    
    27   13   14 ar   
    28   13   15 1    
    29   14   93 1    
    30   15   16 1    
    31   15   94 1    
    32   15   95 1    
    33   16   17 1    
    34   17   18 1    
    35   17   96 1    
    36   17   97 1    
    37   18   19 1    
    38   18   22 1    
    39   18   98 1    
    40   19   20 am   BACKBONE|DICT|INTERRES
    41   19   21 2    
    42   20   99 1    
    43   20  100 1    
    44   22   23 am   BACKBONE|DICT|INTERRES
    45   22  101 1    
    46   23   24 2    
    47   23   25 1    
    48   25   26 1    
    49   25   27 1    
    50   25  102 1    
    51   26  103 1    
    52   26  104 1    
    53   26  105 1    
    54   27   28 am   BACKBONE|DICT|INTERRES
    55   27  106 1    
    56   28   29 2    
    57   28   30 1    
    58   30   31 1    
    59   30   32 1    
    60   30  107 1    
    61   31  108 1    
    62   31  109 1    
    63   31  110 1    
    64   32   33 am   BACKBONE|DICT|INTERRES
    65   32  111 1    
    66   33   34 2    
    67   33   35 1    
    68   35   36 1    
    69   35   37 1    
    70   35  112 1    
    71   36  113 1    
    72   36  114 1    
    73   36  115 1    
    74   37   38 am   BACKBONE|DICT|INTERRES
    75   37  116 1    
    76   38   39 2    
    77   38   40 1    
    78   40   41 1    
    79   40   42 1    
    80   40  117 1    
    81   41  118 1    
    82   41  119 1    
    83   41  120 1    
    84   42   43 am   BACKBONE|DICT|INTERRES
    85   42  121 1    
    86   43   44 2    
    87   43   45 1    
    88   45   46 1    
    89   45   47 1    
    90   45  122 1    
    91   46  123 1    
    92   46  124 1    
    93   46  125 1    
    94   47   48 am   BACKBONE|DICT|INTERRES
    95   47  126 1    
    96   48   49 2    
    97   48   50 1    
    98   50   51 1    
    99   50   52 1    
   100   50  127 1    
   101   51  128 1    
   102   51  129 1    
   103   51  130 1    
   104   52   53 am   BACKBONE|DICT|INTERRES
   105   52  131 1    
   106   53   54 2    
   107   53   55 1    
   108   55   56 1    
   109   55   59 1    
   110   55  132 1    
   111   56   57 1    
   112   56  133 1    
   113   56  134 1    
   114   57   58 1    
   115   58  135 1    
   116   58  136 1    
   117   59   60 am   BACKBONE|DICT|INTERRES
   118   59  137 1    
   119   60   61 2    
   120   60   62 1    
   121   62   63 1    
   122   62   64 1    
   123   62  138 1    
   124   63  139 1    
   125   63  140 1    
   126   63  141 1    
   127   64   65 am   BACKBONE|DICT|INTERRES
   128   64  142 1    
   129   65   66 2    
   130   65   67 1    
   131   67   68 1    
   132   67   69 1    
   133   67  143 1    
   134   68  144 1    
   135   68  145 1    
   136   68  146 1    
   137   69   70 am   BACKBONE|DICT|INTERRES
   138   69  147 1    
   139   70   71 2    
   140   70   72 1    
   141   72   73 1    
   142   72   74 1    
   143   72  148 1    
   144   73  149 1    
   145   73  150 1    
   146   73  151 1    
   147   74   75 am   BACKBONE|DICT|INTERRES
   148   74  152 1    
   149   75   76 2    
   150   75   77 1    
   151   77   78 1    
   152   77   79 1    
   153   77  153 1    
   154   78  154 1    
   155   78  155 1    
   156   78  156 1    
   157   79   80 am   BACKBONE|DICT|INTERRES
   158   79  157 1    
   159   80   81 2    
@<TRIPOS>SUBSTRUCTURE
     1 UNK         1 GROUP             0       ****    0 ROOT    
