@<TRIPOS>MOLECULE
3R207
157   159    1
SMALL
USER_CHARGES


@<TRIPOS>ATOM
      1 CA        -46.1149  -29.4803    5.7341 C.3       0 UNK        -0.1975 
      2 C         -46.9843  -28.5315    4.9254 C.2       0 UNK         0.4852 
      3 O         -46.4598  -27.6657    4.2252 O.2       0 UNK        -0.5216 
      4 N         -48.3127  -28.6713    5.0233 N.am      1 UNK        -0.4461 
      5 CA        -49.3199  -27.9487    4.2266 C.3       1 UNK         0.0864 
      6 C6        -50.6642  -28.7289    4.1435 C.3       14 UNK        -0.0898 
      7 S7        -50.4697  -30.5193    3.8179 S.3       14 UNK        -0.2598 
      8 C8        -51.7914  -31.2624    4.8384 C.3       14 UNK         0.0286 
      9 C9        -51.7165  -30.8622    6.3082 C.ar      14 UNK        -0.0844 
     10 C10       -50.6195  -31.2305    7.0924 C.ar      14 UNK        -0.0881 
     11 C11       -50.5365  -30.8283    8.4295 C.ar      14 UNK        -0.0643 
     12 C12       -51.5719  -30.0737    8.9905 C.ar      14 UNK        -0.0930 
     13 C13       -52.6807  -29.7140    8.2203 C.ar      14 UNK        -0.0827 
     14 C14       -52.7470  -30.1105    6.8817 C.ar      14 UNK        -0.1249 
     15 C15       -53.7891  -28.8593    8.8127 C.3       14 UNK         0.0141 
     16 S16       -55.1548  -29.8595    9.4794 S.3       14 UNK        -0.2313 
     17 C17       -54.6955  -30.0412   11.2368 C.3       14 UNK        -0.0915 
     18 CA        -55.4487  -29.0253   12.1383 C.3       13 UNK         0.0968 
     19 C         -55.3364  -29.4125   13.6385 C.2       13 UNK         0.5732 
     20 N         -56.1964  -30.3072   14.1093 N.am      13 UNK        -0.7310 
     21 O         -54.4611  -28.9482   14.3661 O.2       13 UNK        -0.5035 
     22 N         -55.0127  -27.6517   11.8506 N.am      13 UNK        -0.4233 
     23 C         -55.5933  -26.5325   12.2954 C.2       13 UNK         0.4989 
     24 O         -56.5883  -26.4994   13.0233 O.2       13 UNK        -0.4996 
     25 CA        -55.0021  -25.2225   11.7478 C.3       12 UNK         0.0216 
     26 CB        -55.8013  -24.7468   10.5228 C.3       12 UNK        -0.1964 
     27 N         -54.9715  -24.1497   12.7420 N.am      12 UNK        -0.4276 
     28 C         -54.1619  -24.1359   13.8052 C.2       12 UNK         0.5020 
     29 O         -53.3862  -25.0508   14.0980 O.2       12 UNK        -0.5489 
     30 CA        -54.1808  -22.8719   14.6702 C.3       11 UNK         0.0294 
     31 CB        -55.2009  -22.9881   15.8154 C.3       11 UNK        -0.2019 
     32 N         -52.8360  -22.7391   15.2075 N.am      11 UNK        -0.4493 
     33 C         -52.2126  -21.6228   15.5954 C.2       11 UNK         0.4932 
     34 O         -52.7412  -20.5104   15.6005 O.2       11 UNK        -0.5029 
     35 CA        -50.7356  -21.7858   16.0175 C.3       10 UNK         0.0280 
     36 CB        -50.2715  -20.7097   17.0222 C.3       10 UNK        -0.1976 
     37 N         -50.4268  -23.1443   16.4901 N.am      10 UNK        -0.4242 
     38 C         -50.9152  -23.7519   17.5855 C.2       10 UNK         0.5072 
     39 O         -51.6052  -23.1877   18.4353 O.2       10 UNK        -0.5224 
     40 CA        -50.6392  -25.2581   17.7430 C.3       9 UNK         0.0343 
     41 CB        -51.9549  -26.0526   17.6592 C.3       9 UNK        -0.2003 
     42 N         -49.7259  -25.7802   16.7265 N.am      9 UNK        -0.4272 
     43 C         -48.3910  -25.8163   16.8231 C.2       9 UNK         0.4988 
     44 O         -47.7699  -25.3917   17.7985 O.2       9 UNK        -0.5108 
     45 CA        -47.6146  -26.3896   15.6204 C.3       8 UNK         0.0248 
     46 CB        -46.4545  -27.3105   16.0525 C.3       8 UNK        -0.2001 
     47 N         -48.4618  -27.0370   14.6087 N.am      8 UNK        -0.4140 
     48 C         -49.1736  -28.1703   14.7156 C.2       8 UNK         0.5028 
     49 O         -49.2260  -28.8649   15.7304 O.2       8 UNK        -0.5428 
     50 CA        -49.9876  -28.5856   13.4772 C.3       7 UNK         0.0264 
     51 CB        -51.3873  -27.9548   13.5306 C.3       7 UNK        -0.1988 
     52 N         -49.3405  -28.2156   12.2160 N.am      7 UNK        -0.4454 
     53 C         -48.1901  -28.7465   11.7723 C.2       7 UNK         0.5027 
     54 O         -47.6045  -29.6738   12.3336 O.2       7 UNK        -0.5083 
     55 CA        -47.5671  -28.1026   10.5166 C.3       6 UNK         0.0844 
     56 C56       -48.2646  -28.5648    9.2147 C.3       14 UNK        -0.0967 
     57 S57       -47.8372  -30.2782    8.7550 S.3       14 UNK        -0.2604 
     58 C58       -49.3217  -31.2024    9.2642 C.3       14 UNK         0.0134 
     59 N         -47.5510  -26.6433   10.6219 N.am      6 UNK        -0.4116 
     60 C         -46.8688  -25.9282   11.5272 C.2       5 UNK         0.5034 
     61 O         -46.0969  -26.4122   12.3537 O.2       5 UNK        -0.5045 
     62 CA        -47.1207  -24.4137   11.5317 C.3       5 UNK         0.0224 
     63 CB        -46.2246  -23.7081   10.5009 C.3       5 UNK        -0.1978 
     64 N         -48.5253  -24.1026   11.2575 N.am      5 UNK        -0.4737 
     65 C         -49.5062  -24.1684   12.1671 C.2       4 UNK         0.5027 
     66 O         -49.3255  -24.4485   13.3532 O.2       4 UNK        -0.5211 
     67 CA        -50.9339  -23.8894   11.6705 C.3       4 UNK         0.0297 
     68 CB        -51.2774  -22.3991   11.8143 C.3       4 UNK        -0.1993 
     69 N         -51.1772  -24.3137   10.2891 N.am      4 UNK        -0.4486 
     70 C         -51.2432  -25.5924    9.8977 C.2       3 UNK         0.4961 
     71 O         -51.0605  -26.5534   10.6443 O.2       3 UNK        -0.5105 
     72 CA        -51.5572  -25.8466    8.4156 C.3       3 UNK         0.0299 
     73 CB        -53.0170  -25.4796    8.1032 C.3       3 UNK        -0.1972 
     74 N         -50.6833  -25.1913    7.4368 N.am      3 UNK        -0.4305 
     75 C         -49.3541  -25.0317    7.4897 C.2       2 UNK         0.5006 
     76 O         -48.6645  -25.2409    8.4872 O.2       2 UNK        -0.5106 
     77 CA        -48.6737  -24.6647    6.1597 C.3       2 UNK         0.0296 
     78 CB        -47.2759  -24.0532    6.3685 C.3       2 UNK        -0.2002 
     79 N         -48.5492  -25.8753    5.3465 N.am      2 UNK        -0.4032 
     80 C         -49.5560  -26.4956    4.7151 C.2       1 UNK         0.5000 
     81 O         -50.6637  -25.9721    4.5670 O.2       1 UNK        -0.5238 
     82 H82       -45.7859  -28.9994    6.6550 H         1 UNK         0.0889 
     83 H83       -45.2318  -29.7645    5.1622 H         1 UNK         0.0889 
     84 H84       -46.6523  -30.3927    5.9918 H         1 UNK         0.0889 
     85 H85       -48.6890  -29.3865    5.6301 H         1 UNK         0.3028 
     86 H86       -48.9320  -27.8657    3.2091 H         1 UNK         0.0864 
     87 H87       -51.2271  -28.5914    5.0669 H         1 UNK         0.0720 
     88 H88       -51.2911  -28.3141    3.3519 H         1 UNK         0.0720 
     89 H89       -51.7265  -32.3486    4.7623 H         1 UNK         0.0814 
     90 H90       -52.7568  -30.9855    4.4119 H         1 UNK         0.0814 
     91 H91       -49.8179  -31.8109    6.6557 H         1 UNK         0.1469 
     92 H92       -51.5082  -29.7544   10.0219 H         1 UNK         0.1381 
     93 H93       -53.5995  -29.8208    6.2823 H         1 UNK         0.1206 
     94 H94       -54.1935  -28.2063    8.0382 H         1 UNK         0.0813 
     95 H95       -53.3858  -28.2035    9.5838 H         1 UNK         0.0813 
     96 H96       -54.9457  -31.0649   11.5216 H         1 UNK         0.0638 
     97 H97       -53.6148  -29.9511   11.3578 H         1 UNK         0.0638 
     98 H98       -56.5097  -29.0709   11.8838 H         1 UNK         0.0568 
     99 H99       -56.9119  -30.7078   13.5212 H         1 UNK         0.3450 
    100 H100      -56.1305  -30.5833   15.0764 H         1 UNK         0.3450 
    101 H101      -54.1807  -27.5718   11.2896 H         1 UNK         0.2987 
    102 H102      -53.9726  -25.4106   11.4348 H         1 UNK         0.0766 
    103 H103      -55.3266  -23.8881   10.0473 H         1 UNK         0.0798 
    104 H104      -56.8194  -24.4626   10.7923 H         1 UNK         0.0798 
    105 H105      -55.8779  -25.5327    9.7702 H         1 UNK         0.0798 
    106 H106      -55.6086  -23.3796   12.5985 H         1 UNK         0.3198 
    107 H107      -54.4106  -22.0058   14.0456 H         1 UNK         0.0843 
    108 H108      -55.1942  -22.0976   16.4443 H         1 UNK         0.0831 
    109 H109      -54.9920  -23.8487   16.4525 H         1 UNK         0.0831 
    110 H110      -56.2134  -23.1052   15.4274 H         1 UNK         0.0831 
    111 H111      -52.3229  -23.6127   15.1853 H         1 UNK         0.3133 
    112 H112      -50.1488  -21.6515   15.1079 H         1 UNK         0.0566 
    113 H113      -49.2313  -20.8583   17.3117 H         1 UNK         0.0814 
    114 H114      -50.3461  -19.7126   16.5864 H         1 UNK         0.0814 
    115 H115      -50.8767  -20.7096   17.9290 H         1 UNK         0.0814 
    116 H116      -49.8696  -23.7049   15.8584 H         1 UNK         0.3091 
    117 H117      -50.2071  -25.4121   18.7341 H         1 UNK         0.0702 
    118 H118      -51.7834  -27.1194   17.8049 H         1 UNK         0.0785 
    119 H119      -52.4474  -25.9218   16.6941 H         1 UNK         0.0785 
    120 H120      -52.6578  -25.7315   18.4292 H         1 UNK         0.0785 
    121 H121      -50.1460  -26.1493   15.8858 H         1 UNK         0.2998 
    122 H122      -47.1740  -25.5274   15.1177 H         1 UNK         0.0697 
    123 H123      -46.8074  -28.1680   16.6257 H         1 UNK         0.0825 
    124 H124      -45.7408  -26.7741   16.6790 H         1 UNK         0.0825 
    125 H125      -45.9065  -27.6855   15.1877 H         1 UNK         0.0825 
    126 H126      -48.5547  -26.5123   13.7479 H         1 UNK         0.3029 
    127 H127      -50.0959  -29.6721   13.4998 H         1 UNK         0.0897 
    128 H128      -52.0219  -28.3265   12.7265 H         1 UNK         0.0792 
    129 H129      -51.8871  -28.1890   14.4714 H         1 UNK         0.0792 
    130 H130      -51.3478  -26.8678   13.4473 H         1 UNK         0.0792 
    131 H131      -49.8066  -27.4994   11.6614 H         1 UNK         0.3086 
    132 H132      -46.5223  -28.4176   10.4713 H         1 UNK         0.0583 
    133 H133      -49.3449  -28.4266    9.2705 H         1 UNK         0.1020 
    134 H134      -47.9384  -27.9368    8.3840 H         1 UNK         0.1020 
    135 H135      -49.1261  -32.2698    9.1533 H         1 UNK         0.0694 
    136 H136      -49.5094  -31.0362   10.3260 H         1 UNK         0.0694 
    137 H137      -48.1081  -26.1339    9.9382 H         1 UNK         0.2989 
    138 H138      -46.8622  -24.0358   12.5239 H         1 UNK         0.1055 
    139 H139      -45.1707  -23.9040   10.7031 H         1 UNK         0.0806 
    140 H140      -46.3638  -22.6273   10.5293 H         1 UNK         0.0806 
    141 H141      -46.4287  -24.0453    9.4842 H         1 UNK         0.0806 
    142 H142      -48.7742  -23.9447   10.2891 H         1 UNK         0.3061 
    143 H143      -51.6048  -24.4588   12.3138 H         1 UNK         0.0734 
    144 H144      -52.3301  -22.2127   11.6012 H         1 UNK         0.0832 
    145 H145      -51.0877  -22.0500   12.8288 H         1 UNK         0.0832 
    146 H146      -50.6811  -21.7796   11.1433 H         1 UNK         0.0832 
    147 H147      -51.3179  -23.5897    9.5994 H         1 UNK         0.3156 
    148 H148      -51.4404  -26.9195    8.2518 H         1 UNK         0.0589 
    149 H149      -53.1754  -24.4006    8.1113 H         1 UNK         0.0808 
    150 H150      -53.3178  -25.8530    7.1240 H         1 UNK         0.0808 
    151 H151      -53.6985  -25.9103    8.8351 H         1 UNK         0.0808 
    152 H152      -51.1016  -25.0445    6.5256 H         1 UNK         0.3098 
    153 H153      -49.2945  -23.9338    5.6371 H         1 UNK         0.0720 
    154 H154      -46.8282  -23.7578    5.4195 H         1 UNK         0.0791 
    155 H155      -46.5940  -24.7516    6.8559 H         1 UNK         0.0791 
    156 H156      -47.3306  -23.1609    6.9935 H         1 UNK         0.0791 
    157 H157      -47.6596  -26.3581    5.3757 H         1 UNK         0.3028 
@<TRIPOS>BOND
     1    1    2 1    
     2    1   82 1    
     3    1   83 1    
     4    1   84 1    
     5    2    3 2    
     6    2    4 am   BACKBONE|DICT|INTERRES
     7    4    5 1    
     8    4   85 1    
     9    5    6 1    
    10    5   80 1    
    11    5   86 1    
    12    6    7 1    
    13    6   87 1    
    14    6   88 1    
    15    7    8 1    
    16    8    9 1    
    17    8   89 1    
    18    8   90 1    
    19    9   10 ar   
    20    9   14 ar   
    21   10   11 ar   
    22   10   91 1    
    23   11   12 ar   
    24   11   58 1    
    25   12   13 ar   
    26   12   92 1    
    27   13   14 ar   
    28   13   15 1    
    29   14   93 1    
    30   15   16 1    
    31   15   94 1    
    32   15   95 1    
    33   16   17 1    
    34   17   18 1    
    35   17   96 1    
    36   17   97 1    
    37   18   19 1    
    38   18   22 1    
    39   18   98 1    
    40   19   20 am   BACKBONE|DICT|INTERRES
    41   19   21 2    
    42   20   99 1    
    43   20  100 1    
    44   22   23 am   BACKBONE|DICT|INTERRES
    45   22  101 1    
    46   23   24 2    
    47   23   25 1    
    48   25   26 1    
    49   25   27 1    
    50   25  102 1    
    51   26  103 1    
    52   26  104 1    
    53   26  105 1    
    54   27   28 am   BACKBONE|DICT|INTERRES
    55   27  106 1    
    56   28   29 2    
    57   28   30 1    
    58   30   31 1    
    59   30   32 1    
    60   30  107 1    
    61   31  108 1    
    62   31  109 1    
    63   31  110 1    
    64   32   33 am   BACKBONE|DICT|INTERRES
    65   32  111 1    
    66   33   34 2    
    67   33   35 1    
    68   35   36 1    
    69   35   37 1    
    70   35  112 1    
    71   36  113 1    
    72   36  114 1    
    73   36  115 1    
    74   37   38 am   BACKBONE|DICT|INTERRES
    75   37  116 1    
    76   38   39 2    
    77   38   40 1    
    78   40   41 1    
    79   40   42 1    
    80   40  117 1    
    81   41  118 1    
    82   41  119 1    
    83   41  120 1    
    84   42   43 am   BACKBONE|DICT|INTERRES
    85   42  121 1    
    86   43   44 2    
    87   43   45 1    
    88   45   46 1    
    89   45   47 1    
    90   45  122 1    
    91   46  123 1    
    92   46  124 1    
    93   46  125 1    
    94   47   48 am   BACKBONE|DICT|INTERRES
    95   47  126 1    
    96   48   49 2    
    97   48   50 1    
    98   50   51 1    
    99   50   52 1    
   100   50  127 1    
   101   51  128 1    
   102   51  129 1    
   103   51  130 1    
   104   52   53 am   BACKBONE|DICT|INTERRES
   105   52  131 1    
   106   53   54 2    
   107   53   55 1    
   108   55   56 1    
   109   55   59 1    
   110   55  132 1    
   111   56   57 1    
   112   56  133 1    
   113   56  134 1    
   114   57   58 1    
   115   58  135 1    
   116   58  136 1    
   117   59   60 am   BACKBONE|DICT|INTERRES
   118   59  137 1    
   119   60   61 2    
   120   60   62 1    
   121   62   63 1    
   122   62   64 1    
   123   62  138 1    
   124   63  139 1    
   125   63  140 1    
   126   63  141 1    
   127   64   65 am   BACKBONE|DICT|INTERRES
   128   64  142 1    
   129   65   66 2    
   130   65   67 1    
   131   67   68 1    
   132   67   69 1    
   133   67  143 1    
   134   68  144 1    
   135   68  145 1    
   136   68  146 1    
   137   69   70 am   BACKBONE|DICT|INTERRES
   138   69  147 1    
   139   70   71 2    
   140   70   72 1    
   141   72   73 1    
   142   72   74 1    
   143   72  148 1    
   144   73  149 1    
   145   73  150 1    
   146   73  151 1    
   147   74   75 am   BACKBONE|DICT|INTERRES
   148   74  152 1    
   149   75   76 2    
   150   75   77 1    
   151   77   78 1    
   152   77   79 1    
   153   77  153 1    
   154   78  154 1    
   155   78  155 1    
   156   78  156 1    
   157   79   80 am   BACKBONE|DICT|INTERRES
   158   79  157 1    
   159   80   81 2    
@<TRIPOS>SUBSTRUCTURE
     1 UNK         1 GROUP             0       ****    0 ROOT    
