@<TRIPOS>MOLECULE
3R207
157   159    1
SMALL
USER_CHARGES


@<TRIPOS>ATOM
      1 CA        -47.6987  -29.9251    4.6027 C.3       0 UNK        -0.1975 
      2 C         -48.2335  -28.5290    4.8802 C.2       0 UNK         0.4852 
      3 O         -47.7101  -27.8376    5.7524 O.2       0 UNK        -0.5216 
      4 N         -49.2567  -28.0983    4.1276 N.am      1 UNK        -0.4461 
      5 CA        -49.9714  -26.8159    4.2667 C.3       1 UNK         0.0864 
      6 C6        -50.9028  -26.7685    5.5086 C.3       14 UNK        -0.0898 
      7 S7        -52.0985  -28.1499    5.5211 S.3       14 UNK        -0.2598 
      8 C8        -52.7334  -28.0753    7.2304 C.3       14 UNK         0.0286 
      9 C9        -51.9356  -28.8691    8.2685 C.ar      14 UNK        -0.0844 
     10 C10       -50.5660  -29.1339    8.1356 C.ar      14 UNK        -0.0881 
     11 C11       -49.8704  -29.8372    9.1230 C.ar      14 UNK        -0.0643 
     12 C12       -50.5527  -30.2862   10.2582 C.ar      14 UNK        -0.0930 
     13 C13       -51.9202  -30.0337   10.4055 C.ar      14 UNK        -0.0827 
     14 C14       -52.6004  -29.3253    9.4108 C.ar      14 UNK        -0.1249 
     15 C15       -52.6759  -30.5271   11.6300 C.3       14 UNK         0.0141 
     16 S16       -52.6902  -29.2724   12.9454 S.3       14 UNK        -0.2313 
     17 C17       -54.0718  -29.8553   13.9804 C.3       14 UNK        -0.0915 
     18 CA        -55.3611  -29.0245   13.7361 C.3       13 UNK         0.0968 
     19 C         -56.6165  -29.6936   14.3739 C.2       13 UNK         0.5732 
     20 N         -57.4904  -28.9786   15.0735 N.am      13 UNK        -0.7310 
     21 O         -56.8162  -30.8963   14.2198 O.2       13 UNK        -0.5035 
     22 N         -55.1675  -27.6179   14.1205 N.am      13 UNK        -0.4233 
     23 C         -55.8102  -26.5723   13.5921 C.2       13 UNK         0.4989 
     24 O         -56.5956  -26.6555   12.6449 O.2       13 UNK        -0.4996 
     25 CA        -55.5750  -25.2202   14.2976 C.3       12 UNK         0.0216 
     26 CB        -56.3196  -24.0501   13.6212 C.3       12 UNK        -0.1964 
     27 N         -55.8993  -25.2749   15.7313 N.am      12 UNK        -0.4276 
     28 C         -57.0524  -25.6694   16.2936 C.2       12 UNK         0.5020 
     29 O         -58.0383  -26.0387   15.6539 O.2       12 UNK        -0.5489 
     30 CA        -57.0779  -25.7288   17.8324 C.3       11 UNK         0.0294 
     31 CB        -58.4475  -26.1609   18.3904 C.3       11 UNK        -0.2019 
     32 N         -56.0571  -26.6652   18.3038 N.am      11 UNK        -0.4493 
     33 C         -54.7817  -26.3425   18.5459 C.2       11 UNK         0.4932 
     34 O         -54.3665  -25.1820   18.5244 O.2       11 UNK        -0.5029 
     35 CA        -53.7950  -27.4973   18.8212 C.3       10 UNK         0.0280 
     36 CB        -54.3419  -28.8952   18.4446 C.3       10 UNK        -0.1976 
     37 N         -52.4984  -27.2678   18.1698 N.am      10 UNK        -0.4242 
     38 C         -52.2846  -27.0650   16.8609 C.2       10 UNK         0.5072 
     39 O         -53.1699  -27.0939   16.0025 O.2       10 UNK        -0.5224 
     40 CA        -50.8220  -26.8308   16.4478 C.3       9 UNK         0.0343 
     41 CB        -50.1312  -28.1748   16.1696 C.3       9 UNK        -0.2003 
     42 N         -50.7055  -25.9673   15.2684 N.am      9 UNK        -0.4272 
     43 C         -50.9996  -24.6567   15.2628 C.2       9 UNK         0.4988 
     44 O         -51.3719  -24.0465   16.2665 O.2       9 UNK        -0.5108 
     45 CA        -50.8261  -23.8607   13.9527 C.3       8 UNK         0.0248 
     46 CB        -49.6901  -22.8322   14.0892 C.3       8 UNK        -0.2001 
     47 N         -50.5584  -24.6918   12.7813 N.am      8 UNK        -0.4140 
     48 C         -51.4715  -25.4126   12.1192 C.2       8 UNK         0.5028 
     49 O         -52.6742  -25.3976   12.3775 O.2       8 UNK        -0.5428 
     50 CA        -50.9544  -26.2998   10.9734 C.3       7 UNK         0.0264 
     51 CB        -51.1721  -25.6055    9.6193 C.3       7 UNK        -0.1988 
     52 N         -49.5421  -26.6764   11.1016 N.am      7 UNK        -0.4454 
     53 C         -49.0292  -27.4300   12.0864 C.2       7 UNK         0.5027 
     54 O         -49.6849  -27.8530   13.0347 O.2       7 UNK        -0.5083 
     55 CA        -47.5144  -27.7078   12.0460 C.3       6 UNK         0.0844 
     56 C56       -47.1610  -28.9532   11.1975 C.3       14 UNK        -0.0967 
     57 S57       -47.3366  -28.7186    9.3933 S.3       14 UNK        -0.2604 
     58 C58       -48.3892  -30.1318    8.9324 C.3       14 UNK         0.0134 
     59 N         -46.7555  -26.5182   11.6563 N.am      6 UNK        -0.4116 
     60 C         -46.6011  -25.4362   12.4318 C.2       5 UNK         0.5034 
     61 O         -47.0124  -25.3537   13.5890 O.2       5 UNK        -0.5045 
     62 CA        -45.8974  -24.2271   11.7969 C.3       5 UNK         0.0224 
     63 CB        -44.3714  -24.3575   11.9244 C.3       5 UNK        -0.1978 
     64 N         -46.2526  -24.0192   10.3902 N.am      5 UNK        -0.4737 
     65 C         -47.4780  -23.7446    9.9292 C.2       4 UNK         0.5027 
     66 O         -48.4667  -23.6690   10.6571 O.2       4 UNK        -0.5211 
     67 CA        -47.6474  -23.5215    8.4131 C.3       4 UNK         0.0297 
     68 CB        -47.4261  -22.0396    8.0579 C.3       4 UNK        -0.1993 
     69 N         -46.8529  -24.3947    7.5334 N.am      4 UNK        -0.4486 
     70 C         -45.5200  -24.4948    7.4043 C.2       3 UNK         0.4961 
     71 O         -44.7071  -23.8833    8.0982 O.2       3 UNK        -0.5105 
     72 CA        -44.9995  -25.4411    6.3106 C.3       3 UNK         0.0299 
     73 CB        -44.7761  -26.8507    6.8799 C.3       3 UNK        -0.1972 
     74 N         -45.8914  -25.5004    5.1472 N.am      3 UNK        -0.4305 
     75 C         -45.9971  -24.5091    4.2456 C.2       2 UNK         0.5006 
     76 O         -45.3291  -23.4752    4.2968 O.2       2 UNK        -0.5106 
     77 CA        -46.9886  -24.6767    3.0773 C.3       2 UNK         0.0296 
     78 CB        -46.2337  -25.0120    1.7799 C.3       2 UNK        -0.2002 
     79 N         -48.0248  -25.6866    3.2960 N.am      2 UNK        -0.4032 
     80 C         -49.0265  -25.5928    4.1824 C.2       1 UNK         0.5000 
     81 O         -49.1912  -24.6194    4.9212 O.2       1 UNK        -0.5238 
     82 H82       -48.1872  -30.3861    3.7445 H         1 UNK         0.0889 
     83 H83       -47.8580  -30.5661    5.4687 H         1 UNK         0.0889 
     84 H84       -46.6285  -29.8830    4.4023 H         1 UNK         0.0889 
     85 H85       -49.6345  -28.7177    3.4237 H         1 UNK         0.3028 
     86 H86       -50.6108  -26.7371    3.3859 H         1 UNK         0.0864 
     87 H87       -51.4767  -25.8399    5.5199 H         1 UNK         0.0720 
     88 H88       -50.3152  -26.7709    6.4270 H         1 UNK         0.0720 
     89 H89       -53.7568  -28.4531    7.2065 H         1 UNK         0.0814 
     90 H90       -52.8050  -27.0347    7.5471 H         1 UNK         0.0814 
     91 H91       -50.0228  -28.7984    7.2657 H         1 UNK         0.1469 
     92 H92       -50.0230  -30.8322   11.0264 H         1 UNK         0.1381 
     93 H93       -53.6557  -29.1218    9.5336 H         1 UNK         0.1206 
     94 H94       -52.2282  -31.4458   12.0117 H         1 UNK         0.0813 
     95 H95       -53.7011  -30.7754   11.3507 H         1 UNK         0.0813 
     96 H96       -53.7697  -29.7901   15.0270 H         1 UNK         0.0638 
     97 H97       -54.2341  -30.9153   13.7774 H         1 UNK         0.0638 
     98 H98       -55.5549  -29.0483   12.6622 H         1 UNK         0.0568 
     99 H99       -58.2944  -29.4443   15.4620 H         1 UNK         0.3450 
    100 H100      -57.4127  -27.9720   15.1457 H         1 UNK         0.3450 
    101 H101      -54.4948  -27.4504   14.8687 H         1 UNK         0.2987 
    102 H102      -54.5053  -25.0167   14.2332 H         1 UNK         0.0766 
    103 H103      -56.0930  -23.1018   14.1080 H         1 UNK         0.0798 
    104 H104      -57.4009  -24.1902   13.6445 H         1 UNK         0.0798 
    105 H105      -56.0244  -23.9563   12.5753 H         1 UNK         0.0798 
    106 H106      -55.1318  -25.0639   16.3591 H         1 UNK         0.3198 
    107 H107      -56.8690  -24.7235   18.2052 H         1 UNK         0.0843 
    108 H108      -58.7280  -27.1592   18.0519 H         1 UNK         0.0831 
    109 H109      -59.2326  -25.4753   18.0690 H         1 UNK         0.0831 
    110 H110      -58.4481  -26.1638   19.4804 H         1 UNK         0.0831 
    111 H111      -56.3121  -27.6425   18.3097 H         1 UNK         0.3133 
    112 H112      -53.6062  -27.4898   19.8955 H         1 UNK         0.0566 
    113 H113      -53.5913  -29.6670   18.6156 H         1 UNK         0.0814 
    114 H114      -55.2083  -29.1624   19.0506 H         1 UNK         0.0814 
    115 H115      -54.6356  -28.9527   17.3954 H         1 UNK         0.0814 
    116 H116      -51.7072  -27.2005   18.7947 H         1 UNK         0.3091 
    117 H117      -50.3001  -26.3388   17.2714 H         1 UNK         0.0702 
    118 H118      -49.0943  -28.0347   15.8634 H         1 UNK         0.0785 
    119 H119      -50.6419  -28.7301   15.3813 H         1 UNK         0.0785 
    120 H120      -50.1258  -28.8059   17.0591 H         1 UNK         0.0785 
    121 H121      -50.4448  -26.4239   14.4011 H         1 UNK         0.2998 
    122 H122      -51.7574  -23.3172   13.7805 H         1 UNK         0.0697 
    123 H123      -48.7325  -23.3148   14.2880 H         1 UNK         0.0825 
    124 H124      -49.8834  -22.1407   14.9104 H         1 UNK         0.0825 
    125 H125      -49.5824  -22.2360   13.1826 H         1 UNK         0.0825 
    126 H126      -49.6032  -24.7194   12.4480 H         1 UNK         0.3029 
    127 H127      -51.5388  -27.2206   10.9890 H         1 UNK         0.0897 
    128 H128      -52.2351  -25.4437    9.4371 H         1 UNK         0.0792 
    129 H129      -50.7864  -26.2054    8.7961 H         1 UNK         0.0792 
    130 H130      -50.6863  -24.6308    9.5799 H         1 UNK         0.0792 
    131 H131      -48.9215  -26.3559   10.3739 H         1 UNK         0.3086 
    132 H132      -47.2234  -27.9452   13.0722 H         1 UNK         0.0583 
    133 H133      -46.1242  -29.2333   11.3895 H         1 UNK         0.1020 
    134 H134      -47.7525  -29.8091   11.5270 H         1 UNK         0.1020 
    135 H135      -48.2040  -30.3666    7.8838 H         1 UNK         0.0694 
    136 H136      -48.0929  -31.0199    9.4925 H         1 UNK         0.0694 
    137 H137      -46.3886  -26.5032   10.7159 H         1 UNK         0.2989 
    138 H138      -46.2149  -23.3406   12.3506 H         1 UNK         0.1055 
    139 H139      -44.0764  -24.4975   12.9655 H         1 UNK         0.0806 
    140 H140      -43.8661  -23.4614   11.5636 H         1 UNK         0.0806 
    141 H141      -43.9888  -25.2079   11.3584 H         1 UNK         0.0806 
    142 H142      -45.4967  -24.0208    9.7068 H         1 UNK         0.3061 
    143 H143      -48.6882  -23.7569    8.1846 H         1 UNK         0.0734 
    144 H144      -47.6420  -21.8489    7.0065 H         1 UNK         0.0832 
    145 H145      -48.0820  -21.3960    8.6458 H         1 UNK         0.0832 
    146 H146      -46.4011  -21.7226    8.2528 H         1 UNK         0.0832 
    147 H147      -47.4040  -24.9678    6.9076 H         1 UNK         0.3156 
    148 H148      -44.0308  -25.0618    5.9777 H         1 UNK         0.0589 
    149 H149      -45.6928  -27.2716    7.2923 H         1 UNK         0.0808 
    150 H150      -44.4061  -27.5358    6.1171 H         1 UNK         0.0808 
    151 H151      -44.0404  -26.8322    7.6849 H         1 UNK         0.0808 
    152 H152      -46.4949  -26.3137    5.0784 H         1 UNK         0.3098 
    153 H153      -47.4872  -23.7146    2.9413 H         1 UNK         0.0720 
    154 H154      -46.9082  -25.0447    0.9240 H         1 UNK         0.0791 
    155 H155      -45.7251  -25.9747    1.8459 H         1 UNK         0.0791 
    156 H156      -45.4757  -24.2580    1.5622 H         1 UNK         0.0791 
    157 H157      -47.9579  -26.5308    2.7456 H         1 UNK         0.3028 
@<TRIPOS>BOND
     1    1    2 1    
     2    1   82 1    
     3    1   83 1    
     4    1   84 1    
     5    2    3 2    
     6    2    4 am   BACKBONE|DICT|INTERRES
     7    4    5 1    
     8    4   85 1    
     9    5    6 1    
    10    5   80 1    
    11    5   86 1    
    12    6    7 1    
    13    6   87 1    
    14    6   88 1    
    15    7    8 1    
    16    8    9 1    
    17    8   89 1    
    18    8   90 1    
    19    9   10 ar   
    20    9   14 ar   
    21   10   11 ar   
    22   10   91 1    
    23   11   12 ar   
    24   11   58 1    
    25   12   13 ar   
    26   12   92 1    
    27   13   14 ar   
    28   13   15 1    
    29   14   93 1    
    30   15   16 1    
    31   15   94 1    
    32   15   95 1    
    33   16   17 1    
    34   17   18 1    
    35   17   96 1    
    36   17   97 1    
    37   18   19 1    
    38   18   22 1    
    39   18   98 1    
    40   19   20 am   BACKBONE|DICT|INTERRES
    41   19   21 2    
    42   20   99 1    
    43   20  100 1    
    44   22   23 am   BACKBONE|DICT|INTERRES
    45   22  101 1    
    46   23   24 2    
    47   23   25 1    
    48   25   26 1    
    49   25   27 1    
    50   25  102 1    
    51   26  103 1    
    52   26  104 1    
    53   26  105 1    
    54   27   28 am   BACKBONE|DICT|INTERRES
    55   27  106 1    
    56   28   29 2    
    57   28   30 1    
    58   30   31 1    
    59   30   32 1    
    60   30  107 1    
    61   31  108 1    
    62   31  109 1    
    63   31  110 1    
    64   32   33 am   BACKBONE|DICT|INTERRES
    65   32  111 1    
    66   33   34 2    
    67   33   35 1    
    68   35   36 1    
    69   35   37 1    
    70   35  112 1    
    71   36  113 1    
    72   36  114 1    
    73   36  115 1    
    74   37   38 am   BACKBONE|DICT|INTERRES
    75   37  116 1    
    76   38   39 2    
    77   38   40 1    
    78   40   41 1    
    79   40   42 1    
    80   40  117 1    
    81   41  118 1    
    82   41  119 1    
    83   41  120 1    
    84   42   43 am   BACKBONE|DICT|INTERRES
    85   42  121 1    
    86   43   44 2    
    87   43   45 1    
    88   45   46 1    
    89   45   47 1    
    90   45  122 1    
    91   46  123 1    
    92   46  124 1    
    93   46  125 1    
    94   47   48 am   BACKBONE|DICT|INTERRES
    95   47  126 1    
    96   48   49 2    
    97   48   50 1    
    98   50   51 1    
    99   50   52 1    
   100   50  127 1    
   101   51  128 1    
   102   51  129 1    
   103   51  130 1    
   104   52   53 am   BACKBONE|DICT|INTERRES
   105   52  131 1    
   106   53   54 2    
   107   53   55 1    
   108   55   56 1    
   109   55   59 1    
   110   55  132 1    
   111   56   57 1    
   112   56  133 1    
   113   56  134 1    
   114   57   58 1    
   115   58  135 1    
   116   58  136 1    
   117   59   60 am   BACKBONE|DICT|INTERRES
   118   59  137 1    
   119   60   61 2    
   120   60   62 1    
   121   62   63 1    
   122   62   64 1    
   123   62  138 1    
   124   63  139 1    
   125   63  140 1    
   126   63  141 1    
   127   64   65 am   BACKBONE|DICT|INTERRES
   128   64  142 1    
   129   65   66 2    
   130   65   67 1    
   131   67   68 1    
   132   67   69 1    
   133   67  143 1    
   134   68  144 1    
   135   68  145 1    
   136   68  146 1    
   137   69   70 am   BACKBONE|DICT|INTERRES
   138   69  147 1    
   139   70   71 2    
   140   70   72 1    
   141   72   73 1    
   142   72   74 1    
   143   72  148 1    
   144   73  149 1    
   145   73  150 1    
   146   73  151 1    
   147   74   75 am   BACKBONE|DICT|INTERRES
   148   74  152 1    
   149   75   76 2    
   150   75   77 1    
   151   77   78 1    
   152   77   79 1    
   153   77  153 1    
   154   78  154 1    
   155   78  155 1    
   156   78  156 1    
   157   79   80 am   BACKBONE|DICT|INTERRES
   158   79  157 1    
   159   80   81 2    
@<TRIPOS>SUBSTRUCTURE
     1 UNK         1 GROUP             0       ****    0 ROOT    
