@<TRIPOS>MOLECULE
3R207
157   159    1
SMALL
USER_CHARGES


@<TRIPOS>ATOM
      1 CA        -53.4413  -27.8332    3.9957 C.3       0 UNK        -0.1975 
      2 C         -52.9110  -26.8248    5.0040 C.2       0 UNK         0.4852 
      3 O         -53.4518  -25.7237    5.1111 O.2       0 UNK        -0.5216 
      4 N         -51.8547  -27.1916    5.7417 N.am      1 UNK        -0.4461 
      5 CA        -51.1971  -26.3488    6.7495 C.3       1 UNK         0.0864 
      6 C6        -50.3751  -27.1939    7.7533 C.3       14 UNK        -0.0898 
      7 S7        -49.0871  -28.2343    6.9799 S.3       14 UNK        -0.2598 
      8 C8        -49.5638  -29.9079    7.5194 C.3       14 UNK         0.0286 
      9 C9        -49.5284  -30.0867    9.0338 C.ar      14 UNK        -0.0844 
     10 C10       -48.3574  -29.8387    9.7584 C.ar      14 UNK        -0.0881 
     11 C11       -48.3174  -30.0445   11.1416 C.ar      14 UNK        -0.0643 
     12 C12       -49.4640  -30.5056   11.7995 C.ar      14 UNK        -0.0930 
     13 C13       -50.6414  -30.7605   11.0878 C.ar      14 UNK        -0.0827 
     14 C14       -50.6641  -30.5471    9.7062 C.ar      14 UNK        -0.1249 
     15 C15       -51.8786  -31.3122   11.7888 C.3       14 UNK         0.0141 
     16 S16       -53.2518  -30.1207   11.7499 S.3       14 UNK        -0.2313 
     17 C17       -54.6705  -31.1211   12.3219 C.3       14 UNK        -0.0915 
     18 CA        -55.3074  -30.6351   13.6576 C.3       13 UNK         0.0968 
     19 C         -54.5356  -31.0845   14.9303 C.2       13 UNK         0.5732 
     20 N         -54.4655  -30.2765   15.9810 N.am      13 UNK        -0.7310 
     21 O         -54.0191  -32.1980   14.9854 O.2       13 UNK        -0.5035 
     22 N         -55.6267  -29.1986   13.6286 N.am      13 UNK        -0.4233 
     23 C         -56.7615  -28.6610   13.1702 C.2       13 UNK         0.4989 
     24 O         -57.7350  -29.3294   12.8160 O.2       13 UNK        -0.4996 
     25 CA        -56.8047  -27.1232   13.0412 C.3       12 UNK         0.0216 
     26 CB        -58.2380  -26.5657   12.8986 C.3       12 UNK        -0.1964 
     27 N         -56.0606  -26.4057   14.0843 N.am      12 UNK        -0.4276 
     28 C         -56.3211  -26.3640   15.4001 C.2       12 UNK         0.5020 
     29 O         -57.2610  -26.9631   15.9250 O.2       12 UNK        -0.5489 
     30 CA        -55.3863  -25.5249   16.3006 C.3       11 UNK         0.0294 
     31 CB        -54.8035  -26.3827   17.4373 C.3       11 UNK        -0.2019 
     32 N         -54.2806  -24.8818   15.5828 N.am      11 UNK        -0.4493 
     33 C         -54.3657  -23.7438   14.8798 C.2       11 UNK         0.4932 
     34 O         -55.3837  -23.0551   14.8146 O.2       11 UNK        -0.5029 
     35 CA        -53.1203  -23.3319   14.0685 C.3       10 UNK         0.0280 
     36 CB        -52.1573  -22.4936   14.9235 C.3       10 UNK        -0.1976 
     37 N         -52.4046  -24.4783   13.4975 N.am      10 UNK        -0.4242 
     38 C         -52.9303  -25.3341   12.6084 C.2       10 UNK         0.5072 
     39 O         -54.0485  -25.2026   12.1104 O.2       10 UNK        -0.5224 
     40 CA        -52.1130  -26.5931   12.2837 C.3       9 UNK         0.0343 
     41 CB        -51.0625  -26.3257   11.1946 C.3       9 UNK        -0.2003 
     42 N         -51.4872  -27.1730   13.4763 N.am      9 UNK        -0.4272 
     43 C         -52.1728  -27.7259   14.4878 C.2       9 UNK         0.4988 
     44 O         -53.3971  -27.8181   14.5043 O.2       9 UNK        -0.5108 
     45 CA        -51.3754  -28.2162   15.7080 C.3       8 UNK         0.0248 
     46 CB        -50.7903  -29.6127   15.4535 C.3       8 UNK        -0.2001 
     47 N         -50.3036  -27.2987   16.0921 N.am      8 UNK        -0.4140 
     48 C         -50.4887  -26.0379   16.5094 C.2       8 UNK         0.5028 
     49 O         -51.5939  -25.5372   16.7124 O.2       8 UNK        -0.5428 
     50 CA        -49.2214  -25.1729   16.6412 C.3       7 UNK         0.0264 
     51 CB        -48.5733  -25.3608   18.0219 C.3       7 UNK        -0.1988 
     52 N         -48.2387  -25.4553   15.5850 N.am      7 UNK        -0.4454 
     53 C         -48.4799  -25.2794   14.2775 C.2       7 UNK         0.5027 
     54 O         -49.5296  -24.7979   13.8431 O.2       7 UNK        -0.5083 
     55 CA        -47.4266  -25.8305   13.2953 C.3       6 UNK         0.0844 
     56 C56       -47.6956  -27.3365   13.0313 C.3       14 UNK        -0.0967 
     57 S57       -46.4628  -28.0961   11.9262 S.3       14 UNK        -0.2604 
     58 C58       -47.0164  -29.8332   11.9100 C.3       14 UNK         0.0134 
     59 N         -47.4170  -25.0675   12.0467 N.am      6 UNK        -0.4116 
     60 C         -47.0987  -23.7766   11.9022 C.2       5 UNK         0.5034 
     61 O         -46.7030  -23.0597   12.8241 O.2       5 UNK        -0.5045 
     62 CA        -47.2132  -23.2108   10.4712 C.3       5 UNK         0.0224 
     63 CB        -46.9474  -21.6951   10.4075 C.3       5 UNK        -0.1978 
     64 N         -46.3104  -23.8872    9.5348 N.am      5 UNK        -0.4737 
     65 C         -46.4745  -25.1226    9.0475 C.2       4 UNK         0.5027 
     66 O         -47.4469  -25.8297    9.3120 O.2       4 UNK        -0.5211 
     67 CA        -45.3756  -25.6301    8.1007 C.3       4 UNK         0.0297 
     68 CB        -45.3841  -27.1622    7.9558 C.3       4 UNK        -0.1993 
     69 N         -45.5328  -25.0224    6.7820 N.am      4 UNK        -0.4486 
     70 C         -45.1490  -23.7881    6.4403 C.2       3 UNK         0.4961 
     71 O         -44.5401  -23.0319    7.1987 O.2       3 UNK        -0.5105 
     72 CA        -45.5140  -23.3024    5.0248 C.3       3 UNK         0.0299 
     73 CB        -44.6058  -23.9496    3.9604 C.3       3 UNK        -0.1972 
     74 N         -46.9386  -23.4375    4.6791 N.am      3 UNK        -0.4305 
     75 C         -47.6651  -24.5545    4.5310 C.2       2 UNK         0.5006 
     76 O         -47.2171  -25.6971    4.6555 O.2       2 UNK        -0.5106 
     77 CA        -49.1396  -24.3609    4.1478 C.3       2 UNK         0.0296 
     78 CB        -49.3321  -24.5472    2.6340 C.3       2 UNK        -0.2002 
     79 N         -49.9863  -25.3161    4.8599 N.am      2 UNK        -0.4032 
     80 C         -50.3582  -25.1991    6.1429 C.2       1 UNK         0.5000 
     81 O         -50.0806  -24.2224    6.8424 O.2       1 UNK        -0.5238 
     82 H82       -52.8720  -28.7624    4.0092 H         1 UNK         0.0889 
     83 H83       -53.3910  -27.4191    2.9890 H         1 UNK         0.0889 
     84 H84       -54.4820  -28.0705    4.2151 H         1 UNK         0.0889 
     85 H85       -51.4453  -28.1062    5.6127 H         1 UNK         0.3028 
     86 H86       -51.9878  -25.8613    7.3244 H         1 UNK         0.0864 
     87 H87       -49.8901  -26.5501    8.4886 H         1 UNK         0.0720 
     88 H88       -51.0543  -27.8260    8.3269 H         1 UNK         0.0720 
     89 H89       -48.8811  -30.6281    7.0668 H         1 UNK         0.0814 
     90 H90       -50.5545  -30.1354    7.1231 H         1 UNK         0.0814 
     91 H91       -47.4723  -29.4899    9.2437 H         1 UNK         0.1469 
     92 H92       -49.4295  -30.6985   12.8611 H         1 UNK         0.1381 
     93 H93       -51.5708  -30.7539    9.1540 H         1 UNK         0.1206 
     94 H94       -52.1836  -32.2341   11.2919 H         1 UNK         0.0813 
     95 H95       -51.6613  -31.5730   12.8256 H         1 UNK         0.0813 
     96 H96       -55.4252  -31.0725   11.5359 H         1 UNK         0.0638 
     97 H97       -54.3881  -32.1735   12.3794 H         1 UNK         0.0638 
     98 H98       -56.2510  -31.1738   13.7584 H         1 UNK         0.0568 
     99 H99       -54.8827  -29.3607   15.9472 H         1 UNK         0.3450 
    100 H100      -53.9840  -30.5872   16.8087 H         1 UNK         0.3450 
    101 H101      -54.8581  -28.5882   13.9076 H         1 UNK         0.2987 
    102 H102      -56.2822  -26.9006   12.1098 H         1 UNK         0.0766 
    103 H103      -58.8546  -26.8056   13.7652 H         1 UNK         0.0798 
    104 H104      -58.2317  -25.4822   12.7798 H         1 UNK         0.0798 
    105 H105      -58.7352  -26.9826   12.0219 H         1 UNK         0.0798 
    106 H106      -55.2433  -25.9060   13.7525 H         1 UNK         0.3198 
    107 H107      -56.0024  -24.7451   16.7530 H         1 UNK         0.0843 
    108 H108      -55.5949  -26.8208   18.0468 H         1 UNK         0.0831 
    109 H109      -54.1767  -25.7877   18.1018 H         1 UNK         0.0831 
    110 H110      -54.1969  -27.2018   17.0527 H         1 UNK         0.0831 
    111 H111      -53.3779  -25.3427   15.6441 H         1 UNK         0.3133 
    112 H112      -53.4592  -22.7118   13.2361 H         1 UNK         0.0566 
    113 H113      -51.2956  -22.1632   14.3430 H         1 UNK         0.0814 
    114 H114      -52.6537  -21.6009   15.3061 H         1 UNK         0.0814 
    115 H115      -51.7865  -23.0522   15.7827 H         1 UNK         0.0814 
    116 H116      -51.4513  -24.6377   13.8147 H         1 UNK         0.3091 
    117 H117      -52.8140  -27.3270   11.8856 H         1 UNK         0.0702 
    118 H118      -50.5435  -27.2427   10.9126 H         1 UNK         0.0785 
    119 H119      -50.3168  -25.5960   11.5068 H         1 UNK         0.0785 
    120 H120      -51.5370  -25.9337   10.2944 H         1 UNK         0.0785 
    121 H121      -50.4901  -27.0682   13.5630 H         1 UNK         0.2998 
    122 H122      -52.0707  -28.2885   16.5465 H         1 UNK         0.0697 
    123 H123      -49.9912  -29.5824   14.7150 H         1 UNK         0.0825 
    124 H124      -51.5538  -30.2997   15.0861 H         1 UNK         0.0825 
    125 H125      -50.3836  -30.0430   16.3688 H         1 UNK         0.0825 
    126 H126      -49.3571  -27.6319   15.9901 H         1 UNK         0.3029 
    127 H127      -49.5260  -24.1284   16.5443 H         1 UNK         0.0897 
    128 H128      -47.7237  -24.6907   18.1556 H         1 UNK         0.0792 
    129 H129      -49.2855  -25.1399   18.8184 H         1 UNK         0.0792 
    130 H130      -48.2230  -26.3827   18.1724 H         1 UNK         0.0792 
    131 H131      -47.3528  -25.8450   15.8761 H         1 UNK         0.3086 
    132 H132      -46.4416  -25.7216   13.7537 H         1 UNK         0.0583 
    133 H133      -47.6944  -27.8993   13.9666 H         1 UNK         0.1020 
    134 H134      -48.6781  -27.4822   12.5803 H         1 UNK         0.1020 
    135 H135      -47.1061  -30.1904   12.9371 H         1 UNK         0.0694 
    136 H136      -46.2366  -30.4392   11.4467 H         1 UNK         0.0694 
    137 H137      -47.6551  -25.5818   11.2026 H         1 UNK         0.2989 
    138 H138      -48.2414  -23.3814   10.1426 H         1 UNK         0.1055 
    139 H139      -47.1017  -21.3077    9.4002 H         1 UNK         0.0806 
    140 H140      -45.9282  -21.4499   10.7090 H         1 UNK         0.0806 
    141 H141      -47.6238  -21.1517   11.0688 H         1 UNK         0.0806 
    142 H142      -45.4992  -23.3654    9.2253 H         1 UNK         0.3061 
    143 H143      -44.4090  -25.3417    8.5194 H         1 UNK         0.0734 
    144 H144      -45.3075  -27.6467    8.9302 H         1 UNK         0.0832 
    145 H145      -46.3013  -27.5176    7.4874 H         1 UNK         0.0832 
    146 H146      -44.5450  -27.5083    7.3525 H         1 UNK         0.0832 
    147 H147      -46.0892  -25.5354    6.1001 H         1 UNK         0.3156 
    148 H148      -45.3136  -22.2298    5.0059 H         1 UNK         0.0589 
    149 H149      -44.7353  -25.0311    3.9102 H         1 UNK         0.0808 
    150 H150      -44.8057  -23.5428    2.9691 H         1 UNK         0.0808 
    151 H151      -43.5544  -23.7612    4.1815 H         1 UNK         0.0808 
    152 H152      -47.4240  -22.5573    4.5696 H         1 UNK         0.3098 
    153 H153      -49.4528  -23.3491    4.4149 H         1 UNK         0.0720 
    154 H154      -50.3724  -24.3959    2.3447 H         1 UNK         0.0791 
    155 H155      -49.0343  -25.5449    2.3083 H         1 UNK         0.0791 
    156 H156      -48.7325  -23.8292    2.0728 H         1 UNK         0.0791 
    157 H157      -50.2146  -26.1715    4.3762 H         1 UNK         0.3028 
@<TRIPOS>BOND
     1    1    2 1    
     2    1   82 1    
     3    1   83 1    
     4    1   84 1    
     5    2    3 2    
     6    2    4 am   BACKBONE|DICT|INTERRES
     7    4    5 1    
     8    4   85 1    
     9    5    6 1    
    10    5   80 1    
    11    5   86 1    
    12    6    7 1    
    13    6   87 1    
    14    6   88 1    
    15    7    8 1    
    16    8    9 1    
    17    8   89 1    
    18    8   90 1    
    19    9   10 ar   
    20    9   14 ar   
    21   10   11 ar   
    22   10   91 1    
    23   11   12 ar   
    24   11   58 1    
    25   12   13 ar   
    26   12   92 1    
    27   13   14 ar   
    28   13   15 1    
    29   14   93 1    
    30   15   16 1    
    31   15   94 1    
    32   15   95 1    
    33   16   17 1    
    34   17   18 1    
    35   17   96 1    
    36   17   97 1    
    37   18   19 1    
    38   18   22 1    
    39   18   98 1    
    40   19   20 am   BACKBONE|DICT|INTERRES
    41   19   21 2    
    42   20   99 1    
    43   20  100 1    
    44   22   23 am   BACKBONE|DICT|INTERRES
    45   22  101 1    
    46   23   24 2    
    47   23   25 1    
    48   25   26 1    
    49   25   27 1    
    50   25  102 1    
    51   26  103 1    
    52   26  104 1    
    53   26  105 1    
    54   27   28 am   BACKBONE|DICT|INTERRES
    55   27  106 1    
    56   28   29 2    
    57   28   30 1    
    58   30   31 1    
    59   30   32 1    
    60   30  107 1    
    61   31  108 1    
    62   31  109 1    
    63   31  110 1    
    64   32   33 am   BACKBONE|DICT|INTERRES
    65   32  111 1    
    66   33   34 2    
    67   33   35 1    
    68   35   36 1    
    69   35   37 1    
    70   35  112 1    
    71   36  113 1    
    72   36  114 1    
    73   36  115 1    
    74   37   38 am   BACKBONE|DICT|INTERRES
    75   37  116 1    
    76   38   39 2    
    77   38   40 1    
    78   40   41 1    
    79   40   42 1    
    80   40  117 1    
    81   41  118 1    
    82   41  119 1    
    83   41  120 1    
    84   42   43 am   BACKBONE|DICT|INTERRES
    85   42  121 1    
    86   43   44 2    
    87   43   45 1    
    88   45   46 1    
    89   45   47 1    
    90   45  122 1    
    91   46  123 1    
    92   46  124 1    
    93   46  125 1    
    94   47   48 am   BACKBONE|DICT|INTERRES
    95   47  126 1    
    96   48   49 2    
    97   48   50 1    
    98   50   51 1    
    99   50   52 1    
   100   50  127 1    
   101   51  128 1    
   102   51  129 1    
   103   51  130 1    
   104   52   53 am   BACKBONE|DICT|INTERRES
   105   52  131 1    
   106   53   54 2    
   107   53   55 1    
   108   55   56 1    
   109   55   59 1    
   110   55  132 1    
   111   56   57 1    
   112   56  133 1    
   113   56  134 1    
   114   57   58 1    
   115   58  135 1    
   116   58  136 1    
   117   59   60 am   BACKBONE|DICT|INTERRES
   118   59  137 1    
   119   60   61 2    
   120   60   62 1    
   121   62   63 1    
   122   62   64 1    
   123   62  138 1    
   124   63  139 1    
   125   63  140 1    
   126   63  141 1    
   127   64   65 am   BACKBONE|DICT|INTERRES
   128   64  142 1    
   129   65   66 2    
   130   65   67 1    
   131   67   68 1    
   132   67   69 1    
   133   67  143 1    
   134   68  144 1    
   135   68  145 1    
   136   68  146 1    
   137   69   70 am   BACKBONE|DICT|INTERRES
   138   69  147 1    
   139   70   71 2    
   140   70   72 1    
   141   72   73 1    
   142   72   74 1    
   143   72  148 1    
   144   73  149 1    
   145   73  150 1    
   146   73  151 1    
   147   74   75 am   BACKBONE|DICT|INTERRES
   148   74  152 1    
   149   75   76 2    
   150   75   77 1    
   151   77   78 1    
   152   77   79 1    
   153   77  153 1    
   154   78  154 1    
   155   78  155 1    
   156   78  156 1    
   157   79   80 am   BACKBONE|DICT|INTERRES
   158   79  157 1    
   159   80   81 2    
@<TRIPOS>SUBSTRUCTURE
     1 UNK         1 GROUP             0       ****    0 ROOT    
