@<TRIPOS>MOLECULE
3R207
157   159    1
SMALL
USER_CHARGES


@<TRIPOS>ATOM
      1 CA        -51.1108  -20.8322    8.3473 C.3       0 UNK        -0.1975 
      2 C         -52.5007  -21.2583    7.8807 C.2       0 UNK         0.4852 
      3 O         -53.2767  -20.4084    7.4467 O.2       0 UNK        -0.5216 
      4 N         -52.8720  -22.5432    7.9653 N.am      1 UNK        -0.4461 
      5 CA        -52.0481  -23.6908    8.3593 C.3       1 UNK         0.0864 
      6 C6        -52.9127  -24.9000    8.8043 C.3       14 UNK        -0.0898 
      7 S7        -54.3374  -25.2833    7.7190 S.3       14 UNK        -0.2598 
      8 C8        -53.7151  -26.6403    6.6727 C.3       14 UNK         0.0286 
      9 C9        -53.3574  -27.8774    7.4830 C.ar      14 UNK        -0.0844 
     10 C10       -52.0230  -28.2646    7.6169 C.ar      14 UNK        -0.0881 
     11 C11       -51.6823  -29.3752    8.3914 C.ar      14 UNK        -0.0643 
     12 C12       -52.6893  -30.1082    9.0257 C.ar      14 UNK        -0.0930 
     13 C13       -54.0364  -29.7449    8.8870 C.ar      14 UNK        -0.0827 
     14 C14       -54.3571  -28.6288    8.1071 C.ar      14 UNK        -0.1249 
     15 C15       -55.1727  -30.4809    9.5997 C.3       14 UNK         0.0141 
     16 S16       -54.7667  -32.1410   10.2378 S.3       14 UNK        -0.2313 
     17 C17       -56.2325  -32.4633   11.2777 C.3       14 UNK        -0.0915 
     18 CA        -55.9429  -32.4771   12.8033 C.3       13 UNK         0.0968 
     19 C         -55.1120  -33.7205   13.2394 C.2       13 UNK         0.5732 
     20 N         -53.9223  -33.5620   13.8084 N.am      13 UNK        -0.7310 
     21 O         -55.5659  -34.8507   13.0751 O.2       13 UNK        -0.5035 
     22 N         -55.4213  -31.1877   13.2922 N.am      13 UNK        -0.4233 
     23 C         -55.5686  -30.7416   14.5458 C.2       13 UNK         0.4989 
     24 O         -56.2473  -31.3245   15.3928 O.2       13 UNK        -0.4996 
     25 CA        -54.8528  -29.4393   14.9588 C.3       12 UNK         0.0216 
     26 CB        -53.4845  -29.7499   15.5964 C.3       12 UNK        -0.1964 
     27 N         -54.7237  -28.3989   13.9279 N.am      12 UNK        -0.4276 
     28 C         -54.0406  -28.4201   12.7772 C.2       12 UNK         0.5020 
     29 O         -53.4504  -29.4122   12.3535 O.2       12 UNK        -0.5489 
     30 CA        -53.9928  -27.1100   11.9711 C.3       11 UNK         0.0294 
     31 CB        -55.3328  -26.8161   11.2659 C.3       11 UNK        -0.2019 
     32 N         -53.5355  -25.9604   12.7644 N.am      11 UNK        -0.4493 
     33 C         -54.1633  -25.3181   13.7601 C.2       11 UNK         0.4932 
     34 O         -55.2861  -25.6152   14.1743 O.2       11 UNK        -0.5029 
     35 CA        -53.3669  -24.1746   14.4129 C.3       10 UNK         0.0280 
     36 CB        -54.1492  -23.4324   15.5174 C.3       10 UNK        -0.1976 
     37 N         -52.0633  -24.6405   14.8975 N.am      10 UNK        -0.4242 
     38 C         -51.8148  -25.5390   15.8635 C.2       10 UNK         0.5072 
     39 O         -52.6845  -26.0705   16.5544 O.2       10 UNK        -0.5224 
     40 CA        -50.3426  -25.9341   16.0982 C.3       9 UNK         0.0343 
     41 CB        -50.0844  -27.3566   15.5752 C.3       9 UNK        -0.2003 
     42 N         -49.3736  -25.0187   15.4866 N.am      9 UNK        -0.4272 
     43 C         -49.1026  -23.7810   15.9271 C.2       9 UNK         0.4988 
     44 O         -49.6223  -23.2771   16.9229 O.2       9 UNK        -0.5108 
     45 CA        -48.0994  -22.9601   15.1022 C.3       8 UNK         0.0248 
     46 CB        -46.6539  -23.2957   15.5059 C.3       8 UNK        -0.2001 
     47 N         -48.2785  -23.1804   13.6649 N.am      8 UNK        -0.4140 
     48 C         -49.2106  -22.5694   12.9202 C.2       8 UNK         0.5028 
     49 O         -49.9799  -21.7126   13.3553 O.2       8 UNK        -0.5428 
     50 CA        -49.3264  -22.9942   11.4452 C.3       7 UNK         0.0264 
     51 CB        -48.3997  -22.1433   10.5619 C.3       7 UNK        -0.1988 
     52 N         -49.0468  -24.4160   11.2206 N.am      7 UNK        -0.4454 
     53 C         -49.8123  -25.4189   11.6724 C.2       7 UNK         0.5027 
     54 O         -50.8918  -25.2376   12.2334 O.2       7 UNK        -0.5083 
     55 CA        -49.2927  -26.8618   11.5031 C.3       6 UNK         0.0844 
     56 C56       -49.8991  -27.5212   10.2470 C.3       14 UNK        -0.0967 
     57 S57       -49.5879  -29.3172   10.2098 S.3       14 UNK        -0.2604 
     58 C58       -50.2221  -29.7663    8.5640 C.3       14 UNK         0.0134 
     59 N         -47.8309  -26.9795   11.5390 N.am      6 UNK        -0.4116 
     60 C         -47.0382  -26.6001   12.5477 C.2       5 UNK         0.5034 
     61 O         -47.4598  -26.0267   13.5527 O.2       5 UNK        -0.5045 
     62 CA        -45.5252  -26.8688   12.4362 C.3       5 UNK         0.0224 
     63 CB        -45.1236  -28.0690   13.3148 C.3       5 UNK        -0.1978 
     64 N         -44.9905  -27.0070   11.0708 N.am      5 UNK        -0.4737 
     65 C         -45.2210  -27.9572   10.1549 C.2       4 UNK         0.5027 
     66 O         -46.0104  -28.8858   10.3219 O.2       4 UNK        -0.5211 
     67 CA        -44.4755  -27.8089    8.8129 C.3       4 UNK         0.0297 
     68 CB        -44.7244  -28.9981    7.8660 C.3       4 UNK        -0.1993 
     69 N         -44.8465  -26.5719    8.1221 N.am      4 UNK        -0.4486 
     70 C         -44.4369  -25.3389    8.4486 C.2       3 UNK         0.4961 
     71 O         -43.6355  -25.1077    9.3554 O.2       3 UNK        -0.5105 
     72 CA        -45.0313  -24.1609    7.6543 C.3       3 UNK         0.0299 
     73 CB        -44.0361  -23.6837    6.5843 C.3       3 UNK        -0.1972 
     74 N         -46.3277  -24.4342    7.0202 N.am      3 UNK        -0.4305 
     75 C         -47.4582  -24.7263    7.6760 C.2       2 UNK         0.5006 
     76 O         -47.5282  -24.8911    8.8971 O.2       2 UNK        -0.5106 
     77 CA        -48.7228  -24.8785    6.8257 C.3       2 UNK         0.0296 
     78 CB        -48.8351  -26.3020    6.2520 C.3       2 UNK        -0.2002 
     79 N         -49.8726  -24.5762    7.6737 N.am      2 UNK        -0.4032 
     80 C         -51.0389  -24.0716    7.2552 C.2       1 UNK         0.5000 
     81 O         -51.3227  -23.8934    6.0682 O.2       1 UNK        -0.5238 
     82 H82       -50.9704  -21.0617    9.4024 H         1 UNK         0.0889 
     83 H83       -50.3294  -21.3197    7.7663 H         1 UNK         0.0889 
     84 H84       -50.9838  -19.7563    8.2277 H         1 UNK         0.0889 
     85 H85       -53.7906  -22.7987    7.6306 H         1 UNK         0.3028 
     86 H86       -51.4677  -23.3896    9.2308 H         1 UNK         0.0864 
     87 H87       -53.3282  -24.6796    9.7887 H         1 UNK         0.0720 
     88 H88       -52.3019  -25.7896    8.9562 H         1 UNK         0.0720 
     89 H89       -52.8593  -26.2873    6.0956 H         1 UNK         0.0814 
     90 H90       -54.4837  -26.9023    5.9444 H         1 UNK         0.0814 
     91 H91       -51.2469  -27.6885    7.1348 H         1 UNK         0.1469 
     92 H92       -52.4062  -30.9449    9.6477 H         1 UNK         0.1381 
     93 H93       -55.3897  -28.3227    8.0056 H         1 UNK         0.1206 
     94 H94       -55.5057  -29.8674   10.4355 H         1 UNK         0.0813 
     95 H95       -56.0238  -30.5754    8.9236 H         1 UNK         0.0813 
     96 H96       -56.6652  -33.4150   10.9643 H         1 UNK         0.0638 
     97 H97       -57.0000  -31.7182   11.0635 H         1 UNK         0.0638 
     98 H98       -56.9141  -32.6219   13.2802 H         1 UNK         0.0568 
     99 H99       -53.3988  -34.3747   14.0921 H         1 UNK         0.3450 
    100 H100      -53.5362  -32.6407   13.9336 H         1 UNK         0.3450 
    101 H101      -54.7775  -30.6879   12.6829 H         1 UNK         0.2987 
    102 H102      -55.4741  -28.9899   15.7352 H         1 UNK         0.0766 
    103 H103      -53.0365  -28.8502   16.0177 H         1 UNK         0.0798 
    104 H104      -52.7817  -30.1681   14.8753 H         1 UNK         0.0798 
    105 H105      -53.5849  -30.4708   16.4090 H         1 UNK         0.0798 
    106 H106      -55.1573  -27.5062   14.1571 H         1 UNK         0.3198 
    107 H107      -53.2421  -27.2484   11.1913 H         1 UNK         0.0843 
    108 H108      -56.1679  -26.7664   11.9647 H         1 UNK         0.0831 
    109 H109      -55.5695  -27.5888   10.5373 H         1 UNK         0.0831 
    110 H110      -55.2970  -25.8718   10.7237 H         1 UNK         0.0831 
    111 H111      -52.5819  -25.6588   12.5603 H         1 UNK         0.3133 
    112 H112      -53.1564  -23.4536   13.6214 H         1 UNK         0.0566 
    113 H113      -53.5602  -22.6189   15.9410 H         1 UNK         0.0814 
    114 H114      -55.0651  -22.9964   15.1167 H         1 UNK         0.0814 
    115 H115      -54.4387  -24.0966   16.3321 H         1 UNK         0.0814 
    116 H116      -51.2692  -24.3269   14.3557 H         1 UNK         0.3091 
    117 H117      -50.1709  -25.9317   17.1766 H         1 UNK         0.0702 
    118 H118      -49.0369  -27.6403   15.6804 H         1 UNK         0.0785 
    119 H119      -50.3581  -27.4533   14.5254 H         1 UNK         0.0785 
    120 H120      -50.6746  -28.0863   16.1305 H         1 UNK         0.0785 
    121 H121      -48.8357  -25.3773   14.7020 H         1 UNK         0.2998 
    122 H122      -48.2703  -21.9037   15.3215 H         1 UNK         0.0697 
    123 H123      -46.4125  -24.3450   15.3335 H         1 UNK         0.0825 
    124 H124      -46.4916  -23.0964   16.5660 H         1 UNK         0.0825 
    125 H125      -45.9369  -22.6912   14.9503 H         1 UNK         0.0825 
    126 H126      -47.7313  -23.9240   13.2503 H         1 UNK         0.3029 
    127 H127      -50.3580  -22.8000   11.1486 H         1 UNK         0.0897 
    128 H128      -47.3480  -22.3365   10.7771 H         1 UNK         0.0792 
    129 H129      -48.5751  -21.0782   10.7210 H         1 UNK         0.0792 
    130 H130      -48.5639  -22.3411    9.5032 H         1 UNK         0.0792 
    131 H131      -48.2086  -24.6439   10.6905 H         1 UNK         0.3086 
    132 H132      -49.6615  -27.4148   12.3673 H         1 UNK         0.0583 
    133 H133      -50.9807  -27.3774   10.2274 H         1 UNK         0.1020 
    134 H134      -49.5010  -27.0668    9.3393 H         1 UNK         0.1020 
    135 H135      -49.5999  -29.2992    7.7995 H         1 UNK         0.0694 
    136 H136      -50.1164  -30.8433    8.4269 H         1 UNK         0.0694 
    137 H137      -47.4026  -27.5211   10.7963 H         1 UNK         0.2989 
    138 H138      -45.0383  -25.9844   12.8508 H         1 UNK         0.1055 
    139 H139      -45.4296  -27.9131   14.3504 H         1 UNK         0.0806 
    140 H140      -44.0437  -28.2166   13.3159 H         1 UNK         0.0806 
    141 H141      -45.5893  -28.9955   12.9774 H         1 UNK         0.0806 
    142 H142      -44.3778  -26.2527   10.7694 H         1 UNK         0.3061 
    143 H143      -43.4068  -27.7794    9.0367 H         1 UNK         0.0734 
    144 H144      -44.1444  -28.9037    6.9478 H         1 UNK         0.0832 
    145 H145      -44.4320  -29.9381    8.3360 H         1 UNK         0.0832 
    146 H146      -45.7768  -29.0851    7.5924 H         1 UNK         0.0832 
    147 H147      -45.5269  -26.6572    7.3819 H         1 UNK         0.3156 
    148 H148      -45.1833  -23.3446    8.3639 H         1 UNK         0.0589 
    149 H149      -43.8633  -24.4466    5.8241 H         1 UNK         0.0808 
    150 H150      -44.3912  -22.7827    6.0836 H         1 UNK         0.0808 
    151 H151      -43.0693  -23.4429    7.0291 H         1 UNK         0.0808 
    152 H152      -46.3636  -24.3350    6.0153 H         1 UNK         0.3098 
    153 H153      -48.6787  -24.1558    6.0078 H         1 UNK         0.0720 
    154 H154      -49.7466  -26.4223    5.6663 H         1 UNK         0.0791 
    155 H155      -47.9983  -26.5237    5.5887 H         1 UNK         0.0791 
    156 H156      -48.8343  -27.0574    7.0374 H         1 UNK         0.0791 
    157 H157      -49.6678  -24.6424    8.6619 H         1 UNK         0.3028 
@<TRIPOS>BOND
     1    1    2 1    
     2    1   82 1    
     3    1   83 1    
     4    1   84 1    
     5    2    3 2    
     6    2    4 am   BACKBONE|DICT|INTERRES
     7    4    5 1    
     8    4   85 1    
     9    5    6 1    
    10    5   80 1    
    11    5   86 1    
    12    6    7 1    
    13    6   87 1    
    14    6   88 1    
    15    7    8 1    
    16    8    9 1    
    17    8   89 1    
    18    8   90 1    
    19    9   10 ar   
    20    9   14 ar   
    21   10   11 ar   
    22   10   91 1    
    23   11   12 ar   
    24   11   58 1    
    25   12   13 ar   
    26   12   92 1    
    27   13   14 ar   
    28   13   15 1    
    29   14   93 1    
    30   15   16 1    
    31   15   94 1    
    32   15   95 1    
    33   16   17 1    
    34   17   18 1    
    35   17   96 1    
    36   17   97 1    
    37   18   19 1    
    38   18   22 1    
    39   18   98 1    
    40   19   20 am   BACKBONE|DICT|INTERRES
    41   19   21 2    
    42   20   99 1    
    43   20  100 1    
    44   22   23 am   BACKBONE|DICT|INTERRES
    45   22  101 1    
    46   23   24 2    
    47   23   25 1    
    48   25   26 1    
    49   25   27 1    
    50   25  102 1    
    51   26  103 1    
    52   26  104 1    
    53   26  105 1    
    54   27   28 am   BACKBONE|DICT|INTERRES
    55   27  106 1    
    56   28   29 2    
    57   28   30 1    
    58   30   31 1    
    59   30   32 1    
    60   30  107 1    
    61   31  108 1    
    62   31  109 1    
    63   31  110 1    
    64   32   33 am   BACKBONE|DICT|INTERRES
    65   32  111 1    
    66   33   34 2    
    67   33   35 1    
    68   35   36 1    
    69   35   37 1    
    70   35  112 1    
    71   36  113 1    
    72   36  114 1    
    73   36  115 1    
    74   37   38 am   BACKBONE|DICT|INTERRES
    75   37  116 1    
    76   38   39 2    
    77   38   40 1    
    78   40   41 1    
    79   40   42 1    
    80   40  117 1    
    81   41  118 1    
    82   41  119 1    
    83   41  120 1    
    84   42   43 am   BACKBONE|DICT|INTERRES
    85   42  121 1    
    86   43   44 2    
    87   43   45 1    
    88   45   46 1    
    89   45   47 1    
    90   45  122 1    
    91   46  123 1    
    92   46  124 1    
    93   46  125 1    
    94   47   48 am   BACKBONE|DICT|INTERRES
    95   47  126 1    
    96   48   49 2    
    97   48   50 1    
    98   50   51 1    
    99   50   52 1    
   100   50  127 1    
   101   51  128 1    
   102   51  129 1    
   103   51  130 1    
   104   52   53 am   BACKBONE|DICT|INTERRES
   105   52  131 1    
   106   53   54 2    
   107   53   55 1    
   108   55   56 1    
   109   55   59 1    
   110   55  132 1    
   111   56   57 1    
   112   56  133 1    
   113   56  134 1    
   114   57   58 1    
   115   58  135 1    
   116   58  136 1    
   117   59   60 am   BACKBONE|DICT|INTERRES
   118   59  137 1    
   119   60   61 2    
   120   60   62 1    
   121   62   63 1    
   122   62   64 1    
   123   62  138 1    
   124   63  139 1    
   125   63  140 1    
   126   63  141 1    
   127   64   65 am   BACKBONE|DICT|INTERRES
   128   64  142 1    
   129   65   66 2    
   130   65   67 1    
   131   67   68 1    
   132   67   69 1    
   133   67  143 1    
   134   68  144 1    
   135   68  145 1    
   136   68  146 1    
   137   69   70 am   BACKBONE|DICT|INTERRES
   138   69  147 1    
   139   70   71 2    
   140   70   72 1    
   141   72   73 1    
   142   72   74 1    
   143   72  148 1    
   144   73  149 1    
   145   73  150 1    
   146   73  151 1    
   147   74   75 am   BACKBONE|DICT|INTERRES
   148   74  152 1    
   149   75   76 2    
   150   75   77 1    
   151   77   78 1    
   152   77   79 1    
   153   77  153 1    
   154   78  154 1    
   155   78  155 1    
   156   78  156 1    
   157   79   80 am   BACKBONE|DICT|INTERRES
   158   79  157 1    
   159   80   81 2    
@<TRIPOS>SUBSTRUCTURE
     1 UNK         1 GROUP             0       ****    0 ROOT    
