@<TRIPOS>MOLECULE
3R207
157   159    1
SMALL
USER_CHARGES


@<TRIPOS>ATOM
      1 CA        -48.6480  -29.6573    2.7524 C.3       0 UNK        -0.1975 
      2 C         -48.6048  -28.5996    3.8448 C.2       0 UNK         0.4852 
      3 O         -48.4089  -27.4192    3.5502 O.2       0 UNK        -0.5216 
      4 N         -48.7681  -29.0100    5.1089 N.am      1 UNK        -0.4461 
      5 CA        -48.8017  -28.1497    6.3018 C.3       1 UNK         0.0864 
      6 C6        -49.5947  -28.8140    7.4597 C.3       14 UNK        -0.0898 
      7 S7        -51.2569  -29.3809    6.9521 S.3       14 UNK        -0.2598 
      8 C8        -52.2004  -29.2339    8.5087 C.3       14 UNK         0.0286 
      9 C9        -53.3037  -28.1730    8.5224 C.ar      14 UNK        -0.0844 
     10 C10       -53.4162  -27.1619    7.5566 C.ar      14 UNK        -0.0881 
     11 C11       -54.4491  -26.2198    7.6245 C.ar      14 UNK        -0.0643 
     12 C12       -55.3622  -26.2735    8.6822 C.ar      14 UNK        -0.0930 
     13 C13       -55.2610  -27.2722    9.6531 C.ar      14 UNK        -0.0827 
     14 C14       -54.2409  -28.2212    9.5580 C.ar      14 UNK        -0.1249 
     15 C15       -56.2631  -27.3553   10.7934 C.3       14 UNK         0.0141 
     16 S16       -55.4864  -26.9552   12.3905 S.3       14 UNK        -0.2313 
     17 C17       -56.7070  -27.6554   13.5549 C.3       14 UNK        -0.0915 
     18 CA        -56.3006  -29.0358   14.1407 C.3       13 UNK         0.0968 
     19 C         -56.3759  -30.1750   13.0791 C.2       13 UNK         0.5732 
     20 N         -55.2743  -30.8081   12.6887 N.am      13 UNK        -0.7310 
     21 O         -57.4639  -30.4948   12.6065 O.2       13 UNK        -0.5035 
     22 N         -55.0291  -28.9616   14.8726 N.am      13 UNK        -0.4233 
     23 C         -54.5989  -29.8768   15.7508 C.2       13 UNK         0.4989 
     24 O         -55.2985  -30.8041   16.1629 O.2       13 UNK        -0.4996 
     25 CA        -53.1438  -29.7407   16.2454 C.3       12 UNK         0.0216 
     26 CB        -52.5193  -31.1016   16.6211 C.3       12 UNK        -0.1964 
     27 N         -52.2631  -29.0092   15.3215 N.am      12 UNK        -0.4276 
     28 C         -51.9583  -29.3329   14.0547 C.2       12 UNK         0.5020 
     29 O         -52.4414  -30.3005   13.4646 O.2       12 UNK        -0.5489 
     30 CA        -50.9836  -28.4134   13.2968 C.3       11 UNK         0.0294 
     31 CB        -51.7218  -27.6271   12.2020 C.3       11 UNK        -0.2019 
     32 N         -50.2711  -27.4622   14.1513 N.am      11 UNK        -0.4493 
     33 C         -49.2267  -27.7577   14.9365 C.2       11 UNK         0.4932 
     34 O         -48.7685  -28.8921   15.0701 O.2       11 UNK        -0.5029 
     35 CA        -48.5874  -26.5896   15.7005 C.3       10 UNK         0.0280 
     36 CB        -47.6884  -25.7672   14.7623 C.3       10 UNK        -0.1976 
     37 N         -49.6105  -25.7152   16.2763 N.am      10 UNK        -0.4242 
     38 C         -49.9452  -25.6725   17.5739 C.2       10 UNK         0.5072 
     39 O         -49.3965  -26.3468   18.4467 O.2       10 UNK        -0.5224 
     40 CA        -51.0827  -24.7140   17.9836 C.3       9 UNK         0.0343 
     41 CB        -50.5045  -23.3771   18.4751 C.3       9 UNK        -0.2003 
     42 N         -52.0510  -24.4531   16.9154 N.am      9 UNK        -0.4272 
     43 C         -52.8720  -25.3734   16.3913 C.2       9 UNK         0.4988 
     44 O         -52.9591  -26.5257   16.8112 O.2       9 UNK        -0.5108 
     45 CA        -53.6998  -24.9692   15.1582 C.3       8 UNK         0.0248 
     46 CB        -55.1273  -24.5781   15.5697 C.3       8 UNK        -0.2001 
     47 N         -53.1159  -23.9045   14.3309 N.am      8 UNK        -0.4140 
     48 C         -51.8989  -23.9420   13.7722 C.2       8 UNK         0.5028 
     49 O         -51.0872  -24.8494   13.9607 O.2       8 UNK        -0.5428 
     50 CA        -51.5121  -22.7762   12.8598 C.3       7 UNK         0.0264 
     51 CB        -50.1359  -22.2047   13.2434 C.3       7 UNK        -0.1988 
     52 N         -51.4734  -23.2507   11.4789 N.am      7 UNK        -0.4454 
     53 C         -52.5480  -23.3122   10.6749 C.2       7 UNK         0.5027 
     54 O         -53.6707  -22.9546   11.0367 O.2       7 UNK        -0.5083 
     55 CA        -52.3347  -23.8069    9.2266 C.3       6 UNK         0.0844 
     56 C56       -53.3993  -23.2397    8.2473 C.3       14 UNK        -0.0967 
     57 S57       -53.2501  -23.9308    6.5648 S.3       14 UNK        -0.2604 
     58 C58       -54.5959  -25.1572    6.5421 C.3       14 UNK         0.0134 
     59 N         -50.9680  -23.4850    8.8149 N.am      6 UNK        -0.4116 
     60 C         -50.0937  -24.3378    8.2725 C.2       5 UNK         0.5034 
     61 O         -50.3712  -25.4732    7.8869 O.2       5 UNK        -0.5045 
     62 CA        -48.6275  -23.8700    8.2028 C.3       5 UNK         0.0224 
     63 CB        -48.4083  -22.3790    8.5487 C.3       5 UNK        -0.1978 
     64 N         -47.7738  -24.7101    9.0487 N.am      5 UNK        -0.4737 
     65 C         -47.9570  -25.0128   10.3454 C.2       4 UNK         0.5027 
     66 O         -48.8662  -24.5492   11.0353 O.2       4 UNK        -0.5211 
     67 CA        -46.9745  -26.0088   10.9858 C.3       4 UNK         0.0297 
     68 CB        -47.6675  -27.3568   11.2411 C.3       4 UNK        -0.1993 
     69 N         -45.7761  -26.2233   10.1701 N.am      4 UNK        -0.4486 
     70 C         -44.7061  -25.4146   10.1934 C.2       3 UNK         0.4961 
     71 O         -44.5875  -24.4628   10.9657 O.2       3 UNK        -0.5105 
     72 CA        -43.5752  -25.6933    9.1854 C.3       3 UNK         0.0299 
     73 CB        -42.4451  -26.4910    9.8563 C.3       3 UNK        -0.1972 
     74 N         -44.0018  -26.3939    7.9709 N.am      3 UNK        -0.4305 
     75 C         -44.8690  -25.9242    7.0632 C.2       2 UNK         0.5006 
     76 O         -45.4334  -24.8337    7.1560 O.2       2 UNK        -0.5106 
     77 CA        -45.1880  -26.8249    5.8555 C.3       2 UNK         0.0296 
     78 CB        -44.3355  -28.1128    5.7789 C.3       2 UNK        -0.2002 
     79 N         -46.6122  -27.1656    5.7820 N.am      2 UNK        -0.4032 
     80 C         -47.3708  -27.7387    6.7289 C.2       1 UNK         0.5000 
     81 O         -46.9644  -27.9834    7.8685 O.2       1 UNK        -0.5238 
     82 H82       -47.7020  -29.6772    2.2119 H         1 UNK         0.0889 
     83 H83       -49.4423  -29.4296    2.0421 H         1 UNK         0.0889 
     84 H84       -48.8297  -30.6531    3.1562 H         1 UNK         0.0889 
     85 H85       -48.9132  -29.9929    5.2911 H         1 UNK         0.3028 
     86 H86       -49.3251  -27.2271    6.0409 H         1 UNK         0.0864 
     87 H87       -49.0550  -29.6756    7.8574 H         1 UNK         0.0720 
     88 H88       -49.6958  -28.1053    8.2839 H         1 UNK         0.0720 
     89 H89       -52.6512  -30.2077    8.7062 H         1 UNK         0.0814 
     90 H90       -51.5209  -29.0455    9.3401 H         1 UNK         0.0814 
     91 H91       -52.7025  -27.0908    6.7483 H         1 UNK         0.1469 
     92 H92       -56.1587  -25.5446    8.7435 H         1 UNK         0.1381 
     93 H93       -54.1742  -28.9986   10.3077 H         1 UNK         0.1206 
     94 H94       -56.6772  -28.3635   10.8193 H         1 UNK         0.0813 
     95 H95       -57.1043  -26.6808   10.6273 H         1 UNK         0.0813 
     96 H96       -57.6856  -27.7110   13.0745 H         1 UNK         0.0638 
     97 H97       -56.8272  -26.9408   14.3701 H         1 UNK         0.0638 
     98 H98       -57.0641  -29.2897   14.8784 H         1 UNK         0.0568 
     99 H99       -55.3516  -31.5460   12.0083 H         1 UNK         0.3450 
    100 H100      -54.3618  -30.5629   13.0603 H         1 UNK         0.3450 
    101 H101      -54.3903  -28.2411   14.5745 H         1 UNK         0.2987 
    102 H102      -53.1943  -29.1439   17.1568 H         1 UNK         0.0766 
    103 H103      -53.0846  -31.5881   17.4169 H         1 UNK         0.0798 
    104 H104      -51.4967  -30.9828   16.9794 H         1 UNK         0.0798 
    105 H105      -52.4997  -31.7852   15.7716 H         1 UNK         0.0798 
    106 H106      -51.8736  -28.1527   15.6960 H         1 UNK         0.3198 
    107 H107      -50.2476  -29.0592   12.8131 H         1 UNK         0.0843 
    108 H108      -52.4523  -26.9357   12.6217 H         1 UNK         0.0831 
    109 H109      -52.2584  -28.3025   11.5383 H         1 UNK         0.0831 
    110 H110      -51.0321  -27.0478   11.5874 H         1 UNK         0.0831 
    111 H111      -50.5627  -26.4858   14.0727 H         1 UNK         0.3133 
    112 H112      -47.9567  -27.0083   16.4874 H         1 UNK         0.0566 
    113 H113      -47.1872  -24.9625   15.3003 H         1 UNK         0.0814 
    114 H114      -48.2558  -25.3187   13.9450 H         1 UNK         0.0814 
    115 H115      -46.9129  -26.3933   14.3194 H         1 UNK         0.0814 
    116 H116      -50.1474  -25.1632   15.6132 H         1 UNK         0.3091 
    117 H117      -51.6188  -25.1803   18.8131 H         1 UNK         0.0702 
    118 H118      -51.2885  -22.7182   18.8487 H         1 UNK         0.0785 
    119 H119      -49.9713  -22.8514   17.6818 H         1 UNK         0.0785 
    120 H120      -49.7994  -23.5342   19.2927 H         1 UNK         0.0785 
    121 H121      -52.0477  -23.5286   16.5104 H         1 UNK         0.2998 
    122 H122      -53.7624  -25.8567   14.5273 H         1 UNK         0.0697 
    123 H123      -55.1406  -23.6649   16.1659 H         1 UNK         0.0825 
    124 H124      -55.5913  -25.3649   16.1666 H         1 UNK         0.0825 
    125 H125      -55.7624  -24.4220   14.6973 H         1 UNK         0.0825 
    126 H126      -53.7230  -23.1289   14.1056 H         1 UNK         0.3029 
    127 H127      -52.2482  -21.9750   12.9573 H         1 UNK         0.0897 
    128 H128      -49.3475  -22.9553   13.1712 H         1 UNK         0.0792 
    129 H129      -50.1390  -21.8351   14.2695 H         1 UNK         0.0792 
    130 H130      -49.8600  -21.3708   12.5980 H         1 UNK         0.0792 
    131 H131      -50.5932  -23.6670   11.1790 H         1 UNK         0.3086 
    132 H132      -52.4544  -24.8912    9.2751 H         1 UNK         0.0583 
    133 H133      -54.4087  -23.4333    8.6147 H         1 UNK         0.1020 
    134 H134      -53.3109  -22.1541    8.1794 H         1 UNK         0.1020 
    135 H135      -55.5507  -24.6371    6.6344 H         1 UNK         0.0694 
    136 H136      -54.6089  -25.6441    5.5660 H         1 UNK         0.0694 
    137 H137      -50.6289  -22.5802    9.1076 H         1 UNK         0.2989 
    138 H138      -48.3035  -24.0276    7.1725 H         1 UNK         0.1055 
    139 H139      -48.6639  -22.1496    9.5841 H         1 UNK         0.0806 
    140 H140      -48.9989  -21.7294    7.9011 H         1 UNK         0.0806 
    141 H141      -47.3639  -22.1012    8.4047 H         1 UNK         0.0806 
    142 H142      -46.9761  -25.1185    8.5758 H         1 UNK         0.3061 
    143 H143      -46.6794  -25.5945   11.9515 H         1 UNK         0.0734 
    144 H144      -48.0130  -27.8186   10.3161 H         1 UNK         0.0832 
    145 H145      -47.0026  -28.0593   11.7434 H         1 UNK         0.0832 
    146 H146      -48.5399  -27.2245   11.8806 H         1 UNK         0.0832 
    147 H147      -45.8242  -26.9655    9.4803 H         1 UNK         0.3156 
    148 H148      -43.1720  -24.7260    8.8783 H         1 UNK         0.0589 
    149 H149      -42.7783  -27.4832   10.1634 H         1 UNK         0.0808 
    150 H150      -42.0827  -25.9790   10.7490 H         1 UNK         0.0808 
    151 H151      -41.5924  -26.6130    9.1882 H         1 UNK         0.0808 
    152 H152      -43.6088  -27.3113    7.8171 H         1 UNK         0.3098 
    153 H153      -44.9671  -26.2292    4.9686 H         1 UNK         0.0720 
    154 H154      -43.2690  -27.8845    5.7541 H         1 UNK         0.0791 
    155 H155      -44.5580  -28.6702    4.8687 H         1 UNK         0.0791 
    156 H156      -44.5193  -28.7814    6.6211 H         1 UNK         0.0791 
    157 H157      -47.0619  -27.0061    4.8840 H         1 UNK         0.3028 
@<TRIPOS>BOND
     1    1    2 1    
     2    1   82 1    
     3    1   83 1    
     4    1   84 1    
     5    2    3 2    
     6    2    4 am   BACKBONE|DICT|INTERRES
     7    4    5 1    
     8    4   85 1    
     9    5    6 1    
    10    5   80 1    
    11    5   86 1    
    12    6    7 1    
    13    6   87 1    
    14    6   88 1    
    15    7    8 1    
    16    8    9 1    
    17    8   89 1    
    18    8   90 1    
    19    9   10 ar   
    20    9   14 ar   
    21   10   11 ar   
    22   10   91 1    
    23   11   12 ar   
    24   11   58 1    
    25   12   13 ar   
    26   12   92 1    
    27   13   14 ar   
    28   13   15 1    
    29   14   93 1    
    30   15   16 1    
    31   15   94 1    
    32   15   95 1    
    33   16   17 1    
    34   17   18 1    
    35   17   96 1    
    36   17   97 1    
    37   18   19 1    
    38   18   22 1    
    39   18   98 1    
    40   19   20 am   BACKBONE|DICT|INTERRES
    41   19   21 2    
    42   20   99 1    
    43   20  100 1    
    44   22   23 am   BACKBONE|DICT|INTERRES
    45   22  101 1    
    46   23   24 2    
    47   23   25 1    
    48   25   26 1    
    49   25   27 1    
    50   25  102 1    
    51   26  103 1    
    52   26  104 1    
    53   26  105 1    
    54   27   28 am   BACKBONE|DICT|INTERRES
    55   27  106 1    
    56   28   29 2    
    57   28   30 1    
    58   30   31 1    
    59   30   32 1    
    60   30  107 1    
    61   31  108 1    
    62   31  109 1    
    63   31  110 1    
    64   32   33 am   BACKBONE|DICT|INTERRES
    65   32  111 1    
    66   33   34 2    
    67   33   35 1    
    68   35   36 1    
    69   35   37 1    
    70   35  112 1    
    71   36  113 1    
    72   36  114 1    
    73   36  115 1    
    74   37   38 am   BACKBONE|DICT|INTERRES
    75   37  116 1    
    76   38   39 2    
    77   38   40 1    
    78   40   41 1    
    79   40   42 1    
    80   40  117 1    
    81   41  118 1    
    82   41  119 1    
    83   41  120 1    
    84   42   43 am   BACKBONE|DICT|INTERRES
    85   42  121 1    
    86   43   44 2    
    87   43   45 1    
    88   45   46 1    
    89   45   47 1    
    90   45  122 1    
    91   46  123 1    
    92   46  124 1    
    93   46  125 1    
    94   47   48 am   BACKBONE|DICT|INTERRES
    95   47  126 1    
    96   48   49 2    
    97   48   50 1    
    98   50   51 1    
    99   50   52 1    
   100   50  127 1    
   101   51  128 1    
   102   51  129 1    
   103   51  130 1    
   104   52   53 am   BACKBONE|DICT|INTERRES
   105   52  131 1    
   106   53   54 2    
   107   53   55 1    
   108   55   56 1    
   109   55   59 1    
   110   55  132 1    
   111   56   57 1    
   112   56  133 1    
   113   56  134 1    
   114   57   58 1    
   115   58  135 1    
   116   58  136 1    
   117   59   60 am   BACKBONE|DICT|INTERRES
   118   59  137 1    
   119   60   61 2    
   120   60   62 1    
   121   62   63 1    
   122   62   64 1    
   123   62  138 1    
   124   63  139 1    
   125   63  140 1    
   126   63  141 1    
   127   64   65 am   BACKBONE|DICT|INTERRES
   128   64  142 1    
   129   65   66 2    
   130   65   67 1    
   131   67   68 1    
   132   67   69 1    
   133   67  143 1    
   134   68  144 1    
   135   68  145 1    
   136   68  146 1    
   137   69   70 am   BACKBONE|DICT|INTERRES
   138   69  147 1    
   139   70   71 2    
   140   70   72 1    
   141   72   73 1    
   142   72   74 1    
   143   72  148 1    
   144   73  149 1    
   145   73  150 1    
   146   73  151 1    
   147   74   75 am   BACKBONE|DICT|INTERRES
   148   74  152 1    
   149   75   76 2    
   150   75   77 1    
   151   77   78 1    
   152   77   79 1    
   153   77  153 1    
   154   78  154 1    
   155   78  155 1    
   156   78  156 1    
   157   79   80 am   BACKBONE|DICT|INTERRES
   158   79  157 1    
   159   80   81 2    
@<TRIPOS>SUBSTRUCTURE
     1 UNK         1 GROUP             0       ****    0 ROOT    
