@<TRIPOS>MOLECULE
3R207
157   159    1
SMALL
USER_CHARGES


@<TRIPOS>ATOM
      1 CA        -46.8953  -29.7028    6.5679 C.3       0 UNK        -0.1975 
      2 C         -47.5252  -29.1466    5.3004 C.2       0 UNK         0.4852 
      3 O         -47.7402  -29.8897    4.3429 O.2       0 UNK        -0.5216 
      4 N         -47.8004  -27.8383    5.2853 N.am      1 UNK        -0.4461 
      5 CA        -48.4346  -27.1018    4.1857 C.3       1 UNK         0.0864 
      6 C6        -49.6344  -26.2577    4.6961 C.3       14 UNK        -0.0898 
      7 S7        -50.8995  -27.2564    5.5505 S.3       14 UNK        -0.2598 
      8 C8        -50.5200  -26.8692    7.2889 C.3       14 UNK         0.0286 
      9 C9        -51.4316  -27.6400    8.2289 C.ar      14 UNK        -0.0844 
     10 C10       -51.0112  -28.8503    8.7913 C.ar      14 UNK        -0.0881 
     11 C11       -51.8594  -29.5655    9.6423 C.ar      14 UNK        -0.0643 
     12 C12       -53.1411  -29.0728    9.9080 C.ar      14 UNK        -0.0930 
     13 C13       -53.5640  -27.8574    9.3659 C.ar      14 UNK        -0.0827 
     14 C14       -52.7024  -27.1414    8.5311 C.ar      14 UNK        -0.1249 
     15 C15       -54.9688  -27.3500    9.6480 C.3       14 UNK         0.0141 
     16 S16       -55.1973  -26.8711   11.3912 S.3       14 UNK        -0.2313 
     17 C17       -57.0143  -26.6634   11.4140 C.3       14 UNK        -0.0915 
     18 CA        -57.8008  -27.7936   12.1354 C.3       13 UNK         0.0968 
     19 C         -57.5508  -29.2031   11.5230 C.2       13 UNK         0.5732 
     20 N         -58.1344  -29.4827   10.3650 N.am      13 UNK        -0.7310 
     21 O         -56.8150  -30.0278   12.0630 O.2       13 UNK        -0.5035 
     22 N         -57.6161  -27.7300   13.5909 N.am      13 UNK        -0.4233 
     23 C         -58.3470  -28.3926   14.4949 C.2       13 UNK         0.4989 
     24 O         -59.2849  -29.1360   14.1982 O.2       13 UNK        -0.4996 
     25 CA        -57.9884  -28.1660   15.9801 C.3       12 UNK         0.0216 
     26 CB        -58.8454  -29.0209   16.9343 C.3       12 UNK        -0.1964 
     27 N         -56.5721  -28.4001   16.2828 N.am      12 UNK        -0.4276 
     28 C         -55.5665  -27.5711   15.9797 C.2       12 UNK         0.5020 
     29 O         -55.7144  -26.5307   15.3314 O.2       12 UNK        -0.5489 
     30 CA        -54.1639  -27.9960   16.4494 C.3       11 UNK         0.0294 
     31 CB        -53.5406  -28.9723   15.4389 C.3       11 UNK        -0.2019 
     32 N         -53.2850  -26.8345   16.6066 N.am      11 UNK        -0.4493 
     33 C         -53.4330  -25.8994   17.5560 C.2       11 UNK         0.4932 
     34 O         -54.2113  -26.0131   18.5058 O.2       11 UNK        -0.5029 
     35 CA        -52.5977  -24.6151   17.3971 C.3       10 UNK         0.0280 
     36 CB        -52.6354  -23.7005   18.6408 C.3       10 UNK        -0.1976 
     37 N         -51.2211  -24.8680   16.9651 N.am      10 UNK        -0.4242 
     38 C         -50.2452  -25.4976   17.6376 C.2       10 UNK         0.5072 
     39 O         -50.3859  -25.9753   18.7643 O.2       10 UNK        -0.5224 
     40 CA        -48.8687  -25.6225   16.9471 C.3       9 UNK         0.0343 
     41 CB        -48.5193  -27.0996   16.7017 C.3       9 UNK        -0.2003 
     42 N         -48.7704  -24.8919   15.6787 N.am      9 UNK        -0.4272 
     43 C         -48.6895  -23.5587   15.5593 C.2       9 UNK         0.4988 
     44 O         -48.5903  -22.7899   16.5155 O.2       9 UNK        -0.5108 
     45 CA        -48.7897  -22.9837   14.1362 C.3       8 UNK         0.0248 
     46 CB        -47.4019  -22.8894   13.4832 C.3       8 UNK        -0.2001 
     47 N         -49.7037  -23.7560   13.2855 N.am      8 UNK        -0.4140 
     48 C         -51.0387  -23.7634   13.4295 C.2       8 UNK         0.5028 
     49 O         -51.6393  -23.0626   14.2437 O.2       8 UNK        -0.5428 
     50 CA        -51.8360  -24.7587   12.5695 C.3       7 UNK         0.0264 
     51 CB        -52.1921  -24.1521   11.2033 C.3       7 UNK        -0.1988 
     52 N         -51.1239  -26.0250   12.3866 N.am      7 UNK        -0.4454 
     53 C         -50.9351  -26.9187   13.3706 C.2       7 UNK         0.5027 
     54 O         -51.3763  -26.7708   14.5096 O.2       7 UNK        -0.5083 
     55 CA        -50.0810  -28.1650   13.0541 C.3       6 UNK         0.0844 
     56 C56       -50.9822  -29.3807   12.6895 C.3       14 UNK        -0.0967 
     57 S57       -50.1857  -30.6365   11.6169 S.3       14 UNK        -0.2604 
     58 C58       -51.4047  -30.8735   10.2778 C.3       14 UNK         0.0134 
     59 N         -49.0273  -27.8836   12.0765 N.am      6 UNK        -0.4116 
     60 C         -48.0138  -27.0262   12.2538 C.2       5 UNK         0.5034 
     61 O         -47.8788  -26.3286   13.2597 O.2       5 UNK        -0.5045 
     62 CA        -46.9904  -26.8996   11.1099 C.3       5 UNK         0.0224 
     63 CB        -47.0121  -28.0875   10.1219 C.3       5 UNK        -0.1978 
     64 N         -47.1129  -25.6423   10.3615 N.am      5 UNK        -0.4737 
     65 C         -48.2273  -25.1157    9.8305 C.2       4 UNK         0.5027 
     66 O         -49.3612  -25.5452   10.0377 O.2       4 UNK        -0.5211 
     67 CA        -48.0507  -23.9183    8.8787 C.3       4 UNK         0.0297 
     68 CB        -48.2674  -22.5921    9.6230 C.3       4 UNK        -0.1993 
     69 N         -46.7605  -23.8779    8.1767 N.am      4 UNK        -0.4486 
     70 C         -46.3212  -24.8149    7.3267 C.2       3 UNK         0.4961 
     71 O         -46.9314  -25.8593    7.0744 O.2       3 UNK        -0.5105 
     72 CA        -44.9657  -24.5529    6.6554 C.3       3 UNK         0.0299 
     73 CB        -43.8074  -24.9600    7.5809 C.3       3 UNK        -0.1972 
     74 N         -44.9286  -25.3654    5.4474 N.am      3 UNK        -0.4305 
     75 C         -44.5656  -24.9763    4.2203 C.2       2 UNK         0.5006 
     76 O         -43.9981  -23.9124    3.9704 O.2       2 UNK        -0.5106 
     77 CA        -44.9391  -25.9346    3.0696 C.3       2 UNK         0.0296 
     78 CB        -43.7690  -26.8789    2.7500 C.3       2 UNK        -0.2002 
     79 N         -46.1361  -26.7276    3.3811 N.am      2 UNK        -0.4032 
     80 C         -47.3758  -26.2203    3.4857 C.2       1 UNK         0.5000 
     81 O         -47.6680  -25.0823    3.1111 O.2       1 UNK        -0.5238 
     82 H82       -46.0311  -30.3193    6.3221 H         1 UNK         0.0889 
     83 H83       -47.6149  -30.3199    7.1052 H         1 UNK         0.0889 
     84 H84       -46.5626  -28.9067    7.2327 H         1 UNK         0.0889 
     85 H85       -47.5637  -27.2596    6.0904 H         1 UNK         0.3028 
     86 H86       -48.8099  -27.7965    3.4315 H         1 UNK         0.0864 
     87 H87       -49.2923  -25.4632    5.3628 H         1 UNK         0.0720 
     88 H88       -50.1279  -25.7586    3.8601 H         1 UNK         0.0720 
     89 H89       -50.6362  -25.7978    7.4593 H         1 UNK         0.0814 
     90 H90       -49.4758  -27.1016    7.5019 H         1 UNK         0.0814 
     91 H91       -50.0272  -29.2376    8.5663 H         1 UNK         0.1469 
     92 H92       -53.8107  -29.6265   10.5527 H         1 UNK         0.1381 
     93 H93       -53.0259  -26.2056    8.0962 H         1 UNK         0.1206 
     94 H94       -55.6792  -28.1350    9.3863 H         1 UNK         0.0813 
     95 H95       -55.2062  -26.4957    9.0121 H         1 UNK         0.0813 
     96 H96       -57.3778  -26.5576   10.3905 H         1 UNK         0.0638 
     97 H97       -57.2312  -25.7061   11.8903 H         1 UNK         0.0638 
     98 H98       -58.8600  -27.5830   11.9742 H         1 UNK         0.0568 
     99 H99       -57.9790  -30.3863    9.9466 H         1 UNK         0.3450 
    100 H100      -58.7379  -28.8171    9.9083 H         1 UNK         0.3450 
    101 H101      -56.8425  -27.1647   13.9307 H         1 UNK         0.2987 
    102 H102      -58.2113  -27.1184   16.1948 H         1 UNK         0.0766 
    103 H103      -58.6215  -28.7980   17.9777 H         1 UNK         0.0798 
    104 H104      -58.6843  -30.0880   16.7757 H         1 UNK         0.0798 
    105 H105      -59.9088  -28.8260   16.7879 H         1 UNK         0.0798 
    106 H106      -56.3583  -29.2576   16.7723 H         1 UNK         0.3198 
    107 H107      -54.2487  -28.4934   17.4180 H         1 UNK         0.0843 
    108 H108      -53.4959  -28.5381   14.4390 H         1 UNK         0.0831 
    109 H109      -54.1246  -29.8906   15.3665 H         1 UNK         0.0831 
    110 H110      -52.5287  -29.2531   15.7315 H         1 UNK         0.0831 
    111 H111      -52.6148  -26.6742   15.8562 H         1 UNK         0.3133 
    112 H112      -53.0628  -24.0630   16.5791 H         1 UNK         0.0566 
    113 H113      -52.0533  -22.7926   18.4830 H         1 UNK         0.0814 
    114 H114      -53.6571  -23.3936   18.8680 H         1 UNK         0.0814 
    115 H115      -52.2440  -24.2015   19.5266 H         1 UNK         0.0814 
    116 H116      -51.0030  -24.5449   16.0320 H         1 UNK         0.3091 
    117 H117      -48.1253  -25.2082   17.6312 H         1 UNK         0.0702 
    118 H118      -47.5697  -27.2066   16.1768 H         1 UNK         0.0785 
    119 H119      -49.2891  -27.6001   16.1159 H         1 UNK         0.0785 
    120 H120      -48.4316  -27.6397   17.6453 H         1 UNK         0.0785 
    121 H121      -48.7589  -25.4502   14.8308 H         1 UNK         0.2998 
    122 H122      -49.1853  -21.9694   14.2238 H         1 UNK         0.0697 
    123 H123      -46.9786  -23.8702   13.2674 H         1 UNK         0.0825 
    124 H124      -46.6990  -22.3694   14.1357 H         1 UNK         0.0825 
    125 H125      -47.4453  -22.3261   12.5535 H         1 UNK         0.0825 
    126 H126      -49.2864  -24.4019   12.6293 H         1 UNK         0.3029 
    127 H127      -52.7712  -24.9737   13.0924 H         1 UNK         0.0897 
    128 H128      -52.7769  -24.8492   10.6028 H         1 UNK         0.0792 
    129 H129      -52.7901  -23.2481   11.3249 H         1 UNK         0.0792 
    130 H130      -51.3051  -23.8808   10.6317 H         1 UNK         0.0792 
    131 H131      -50.6839  -26.1755   11.4825 H         1 UNK         0.3086 
    132 H132      -49.5570  -28.4291   13.9739 H         1 UNK         0.0583 
    133 H133      -51.2912  -29.8835   13.6070 H         1 UNK         0.1020 
    134 H134      -51.9152  -29.0515   12.2355 H         1 UNK         0.1020 
    135 H135      -50.9659  -31.5138    9.5112 H         1 UNK         0.0694 
    136 H136      -52.2593  -31.4220   10.6773 H         1 UNK         0.0694 
    137 H137      -49.0816  -28.4061   11.2147 H         1 UNK         0.2989 
    138 H138      -46.0105  -26.8872   11.5900 H         1 UNK         0.1055 
    139 H139      -46.9321  -29.0436   10.6417 H         1 UNK         0.0806 
    140 H140      -46.1669  -28.0281    9.4365 H         1 UNK         0.0806 
    141 H141      -47.9201  -28.1060    9.5182 H         1 UNK         0.0806 
    142 H142      -46.2428  -25.1739   10.1539 H         1 UNK         0.3061 
    143 H143      -48.8311  -24.0094    8.1202 H         1 UNK         0.0734 
    144 H144      -48.3792  -21.7628    8.9243 H         1 UNK         0.0832 
    145 H145      -49.1705  -22.6202   10.2344 H         1 UNK         0.0832 
    146 H146      -47.4303  -22.3609   10.2804 H         1 UNK         0.0832 
    147 H147      -46.1903  -23.0575    8.3270 H         1 UNK         0.3156 
    148 H148      -44.8916  -23.4926    6.4045 H         1 UNK         0.0589 
    149 H149      -43.8792  -26.0062    7.8820 H         1 UNK         0.0808 
    150 H150      -42.8438  -24.8197    7.0906 H         1 UNK         0.0808 
    151 H151      -43.7986  -24.3571    8.4896 H         1 UNK         0.0808 
    152 H152      -45.4401  -26.2320    5.5377 H         1 UNK         0.3098 
    153 H153      -45.1463  -25.3293    2.1845 H         1 UNK         0.0720 
    154 H154      -43.9997  -27.5233    1.9014 H         1 UNK         0.0791 
    155 H155      -43.5180  -27.5165    3.5987 H         1 UNK         0.0791 
    156 H156      -42.8726  -26.3134    2.4912 H         1 UNK         0.0791 
    157 H157      -45.9900  -27.6842    3.6707 H         1 UNK         0.3028 
@<TRIPOS>BOND
     1    1    2 1    
     2    1   82 1    
     3    1   83 1    
     4    1   84 1    
     5    2    3 2    
     6    2    4 am   BACKBONE|DICT|INTERRES
     7    4    5 1    
     8    4   85 1    
     9    5    6 1    
    10    5   80 1    
    11    5   86 1    
    12    6    7 1    
    13    6   87 1    
    14    6   88 1    
    15    7    8 1    
    16    8    9 1    
    17    8   89 1    
    18    8   90 1    
    19    9   10 ar   
    20    9   14 ar   
    21   10   11 ar   
    22   10   91 1    
    23   11   12 ar   
    24   11   58 1    
    25   12   13 ar   
    26   12   92 1    
    27   13   14 ar   
    28   13   15 1    
    29   14   93 1    
    30   15   16 1    
    31   15   94 1    
    32   15   95 1    
    33   16   17 1    
    34   17   18 1    
    35   17   96 1    
    36   17   97 1    
    37   18   19 1    
    38   18   22 1    
    39   18   98 1    
    40   19   20 am   BACKBONE|DICT|INTERRES
    41   19   21 2    
    42   20   99 1    
    43   20  100 1    
    44   22   23 am   BACKBONE|DICT|INTERRES
    45   22  101 1    
    46   23   24 2    
    47   23   25 1    
    48   25   26 1    
    49   25   27 1    
    50   25  102 1    
    51   26  103 1    
    52   26  104 1    
    53   26  105 1    
    54   27   28 am   BACKBONE|DICT|INTERRES
    55   27  106 1    
    56   28   29 2    
    57   28   30 1    
    58   30   31 1    
    59   30   32 1    
    60   30  107 1    
    61   31  108 1    
    62   31  109 1    
    63   31  110 1    
    64   32   33 am   BACKBONE|DICT|INTERRES
    65   32  111 1    
    66   33   34 2    
    67   33   35 1    
    68   35   36 1    
    69   35   37 1    
    70   35  112 1    
    71   36  113 1    
    72   36  114 1    
    73   36  115 1    
    74   37   38 am   BACKBONE|DICT|INTERRES
    75   37  116 1    
    76   38   39 2    
    77   38   40 1    
    78   40   41 1    
    79   40   42 1    
    80   40  117 1    
    81   41  118 1    
    82   41  119 1    
    83   41  120 1    
    84   42   43 am   BACKBONE|DICT|INTERRES
    85   42  121 1    
    86   43   44 2    
    87   43   45 1    
    88   45   46 1    
    89   45   47 1    
    90   45  122 1    
    91   46  123 1    
    92   46  124 1    
    93   46  125 1    
    94   47   48 am   BACKBONE|DICT|INTERRES
    95   47  126 1    
    96   48   49 2    
    97   48   50 1    
    98   50   51 1    
    99   50   52 1    
   100   50  127 1    
   101   51  128 1    
   102   51  129 1    
   103   51  130 1    
   104   52   53 am   BACKBONE|DICT|INTERRES
   105   52  131 1    
   106   53   54 2    
   107   53   55 1    
   108   55   56 1    
   109   55   59 1    
   110   55  132 1    
   111   56   57 1    
   112   56  133 1    
   113   56  134 1    
   114   57   58 1    
   115   58  135 1    
   116   58  136 1    
   117   59   60 am   BACKBONE|DICT|INTERRES
   118   59  137 1    
   119   60   61 2    
   120   60   62 1    
   121   62   63 1    
   122   62   64 1    
   123   62  138 1    
   124   63  139 1    
   125   63  140 1    
   126   63  141 1    
   127   64   65 am   BACKBONE|DICT|INTERRES
   128   64  142 1    
   129   65   66 2    
   130   65   67 1    
   131   67   68 1    
   132   67   69 1    
   133   67  143 1    
   134   68  144 1    
   135   68  145 1    
   136   68  146 1    
   137   69   70 am   BACKBONE|DICT|INTERRES
   138   69  147 1    
   139   70   71 2    
   140   70   72 1    
   141   72   73 1    
   142   72   74 1    
   143   72  148 1    
   144   73  149 1    
   145   73  150 1    
   146   73  151 1    
   147   74   75 am   BACKBONE|DICT|INTERRES
   148   74  152 1    
   149   75   76 2    
   150   75   77 1    
   151   77   78 1    
   152   77   79 1    
   153   77  153 1    
   154   78  154 1    
   155   78  155 1    
   156   78  156 1    
   157   79   80 am   BACKBONE|DICT|INTERRES
   158   79  157 1    
   159   80   81 2    
@<TRIPOS>SUBSTRUCTURE
     1 UNK         1 GROUP             0       ****    0 ROOT    
