@<TRIPOS>MOLECULE
3R207
157   159    1
SMALL
USER_CHARGES


@<TRIPOS>ATOM
      1 CA        -51.8714  -28.1912    7.6442 C.3       0 UNK        -0.1975 
      2 C         -50.9585  -27.1416    7.0301 C.2       0 UNK         0.4852 
      3 O         -50.1125  -27.4739    6.1977 O.2       0 UNK        -0.5216 
      4 N         -51.1290  -25.8792    7.4488 N.am      1 UNK        -0.4461 
      5 CA        -50.4133  -24.6893    6.9708 C.3       1 UNK         0.0864 
      6 C6        -50.8148  -23.4140    7.7582 C.3       14 UNK        -0.0898 
      7 S7        -52.4320  -22.6590    7.3443 S.3       14 UNK        -0.2598 
      8 C8        -53.6690  -24.0088    7.3368 C.3       14 UNK         0.0286 
      9 C9        -53.8055  -24.8228    8.6261 C.ar      14 UNK        -0.0844 
     10 C10       -53.2641  -24.4088    9.8504 C.ar      14 UNK        -0.0881 
     11 C11       -53.3423  -25.2282   10.9787 C.ar      14 UNK        -0.0643 
     12 C12       -54.0164  -26.4477   10.8975 C.ar      14 UNK        -0.0930 
     13 C13       -54.5881  -26.8640    9.6929 C.ar      14 UNK        -0.0827 
     14 C14       -54.4806  -26.0467    8.5645 C.ar      14 UNK        -0.1249 
     15 C15       -55.2656  -28.2227    9.6032 C.3       14 UNK         0.0141 
     16 S16       -56.6803  -28.3477   10.7407 S.3       14 UNK        -0.2313 
     17 C17       -56.7942  -30.1538   10.9690 C.3       14 UNK        -0.0915 
     18 CA        -56.2288  -30.6089   12.3478 C.3       13 UNK         0.0968 
     19 C         -56.6033  -32.0785   12.7176 C.2       13 UNK         0.5732 
     20 N         -55.7913  -32.7986   13.4855 N.am      13 UNK        -0.7310 
     21 O         -57.6629  -32.5697   12.3347 O.2       13 UNK        -0.5035 
     22 N         -54.8030  -30.2889   12.5336 N.am      13 UNK        -0.4233 
     23 C         -53.7731  -30.8342   11.8671 C.2       13 UNK         0.4989 
     24 O         -53.9004  -31.5833   10.8982 O.2       13 UNK        -0.4996 
     25 CA        -52.3505  -30.5215   12.3749 C.3       12 UNK         0.0216 
     26 CB        -51.6598  -29.4946   11.4642 C.3       12 UNK        -0.1964 
     27 N         -52.3009  -30.0572   13.7660 N.am      12 UNK        -0.4276 
     28 C         -52.6821  -30.7831   14.8280 C.2       12 UNK         0.5020 
     29 O         -53.0676  -31.9512   14.7527 O.2       12 UNK        -0.5489 
     30 CA        -52.6885  -30.0800   16.1971 C.3       11 UNK         0.0294 
     31 CB        -51.3670  -30.3430   16.9365 C.3       11 UNK        -0.2019 
     32 N         -52.9338  -28.6330   16.1585 N.am      11 UNK        -0.4493 
     33 C         -53.9687  -28.0021   15.5873 C.2       11 UNK         0.4932 
     34 O         -54.8349  -28.5763   14.9270 O.2       11 UNK        -0.5029 
     35 CA        -54.0549  -26.4718   15.7514 C.3       10 UNK         0.0280 
     36 CB        -54.9859  -26.1003   16.9211 C.3       10 UNK        -0.1976 
     37 N         -52.7655  -25.7674   15.8530 N.am      10 UNK        -0.4242 
     38 C         -51.8334  -25.8210   16.8165 C.2       10 UNK         0.5072 
     39 O         -51.9121  -26.5495   17.8058 O.2       10 UNK        -0.5224 
     40 CA        -50.5746  -24.9552   16.6273 C.3       9 UNK         0.0343 
     41 CB        -49.3908  -25.8246   16.1699 C.3       9 UNK        -0.2003 
     42 N         -50.7488  -23.8523   15.6772 N.am      9 UNK        -0.4272 
     43 C         -51.4154  -22.7159   15.9305 C.2       9 UNK         0.4988 
     44 O         -52.0019  -22.4967   16.9914 O.2       9 UNK        -0.5108 
     45 CA        -51.4361  -21.6559   14.8064 C.3       8 UNK         0.0248 
     46 CB        -51.6753  -20.2266   15.3381 C.3       8 UNK        -0.2001 
     47 N         -50.2530  -21.7004   13.9342 N.am      8 UNK        -0.4140 
     48 C         -48.9691  -21.5131   14.2779 C.2       8 UNK         0.5028 
     49 O         -48.5947  -21.2115   15.4125 O.2       8 UNK        -0.5428 
     50 CA        -47.9316  -21.7737   13.1663 C.3       7 UNK         0.0264 
     51 CB        -46.4955  -21.4206   13.5964 C.3       7 UNK        -0.1988 
     52 N         -47.9653  -23.1757   12.7385 N.am      7 UNK        -0.4454 
     53 C         -48.8993  -23.7188   11.9483 C.2       7 UNK         0.5027 
     54 O         -49.7912  -23.0607   11.4086 O.2       7 UNK        -0.5083 
     55 CA        -48.8300  -25.2447   11.7565 C.3       6 UNK         0.0844 
     56 C56       -50.1890  -25.8747   11.3639 C.3       14 UNK        -0.0967 
     57 S57       -51.3515  -25.9649   12.7726 S.3       14 UNK        -0.2604 
     58 C58       -52.6723  -24.8075   12.2773 C.3       14 UNK         0.0134 
     59 N         -47.7926  -25.5733   10.7841 N.am      6 UNK        -0.4116 
     60 C         -46.4823  -25.6652   11.0454 C.2       5 UNK         0.5034 
     61 O         -45.9891  -25.4444   12.1539 O.2       5 UNK        -0.5045 
     62 CA        -45.5918  -26.0932    9.8624 C.3       5 UNK         0.0224 
     63 CB        -44.1498  -26.4545   10.2772 C.3       5 UNK        -0.1978 
     64 N         -46.2136  -27.1712    9.0816 N.am      5 UNK        -0.4737 
     65 C         -46.5235  -28.4108    9.4914 C.2       4 UNK         0.5027 
     66 O         -46.1965  -28.8802   10.5812 O.2       4 UNK        -0.5211 
     67 CA        -47.3835  -29.2663    8.5425 C.3       4 UNK         0.0297 
     68 CB        -48.8101  -29.3923    9.0978 C.3       4 UNK        -0.1993 
     69 N         -47.4411  -28.7276    7.1789 N.am      4 UNK        -0.4486 
     70 C         -46.5025  -28.9511    6.2483 C.2       3 UNK         0.4961 
     71 O         -45.5399  -29.7022    6.4076 O.2       3 UNK        -0.5105 
     72 CA        -46.6420  -28.1758    4.9285 C.3       3 UNK         0.0299 
     73 CB        -47.6688  -28.8437    3.9996 C.3       3 UNK        -0.1972 
     74 N         -47.0007  -26.7719    5.1487 N.am      3 UNK        -0.4305 
     75 C         -46.1738  -25.8569    5.6794 C.2       2 UNK         0.5006 
     76 O         -45.0110  -26.0959    6.0045 O.2       2 UNK        -0.5106 
     77 CA        -46.7215  -24.4352    5.9013 C.3       2 UNK         0.0296 
     78 CB        -46.2656  -23.5024    4.7674 C.3       2 UNK        -0.2002 
     79 N         -48.1795  -24.3681    6.0231 N.am      2 UNK        -0.4032 
     80 C         -48.8834  -24.8708    7.0457 C.2       1 UNK         0.5000 
     81 O         -48.3773  -25.4408    8.0170 O.2       1 UNK        -0.5238 
     82 H82       -52.8448  -28.1748    7.1553 H         1 UNK         0.0889 
     83 H83       -52.0143  -28.0102    8.7091 H         1 UNK         0.0889 
     84 H84       -51.4515  -29.1886    7.5220 H         1 UNK         0.0889 
     85 H85       -51.8466  -25.6922    8.1364 H         1 UNK         0.3028 
     86 H86       -50.6864  -24.5556    5.9223 H         1 UNK         0.0864 
     87 H87       -50.7614  -23.5970    8.8316 H         1 UNK         0.0720 
     88 H88       -50.0898  -22.6168    7.5791 H         1 UNK         0.0720 
     89 H89       -53.4460  -24.6738    6.5012 H         1 UNK         0.0814 
     90 H90       -54.6414  -23.5674    7.1146 H         1 UNK         0.0814 
     91 H91       -52.7557  -23.4590    9.9329 H         1 UNK         0.1469 
     92 H92       -54.0825  -27.0824   11.7708 H         1 UNK         0.1381 
     93 H93       -54.9057  -26.3751    7.6255 H         1 UNK         0.1206 
     94 H94       -55.6108  -28.4255    8.5884 H         1 UNK         0.0813 
     95 H95       -54.5264  -28.9885    9.8336 H         1 UNK         0.0813 
     96 H96       -57.8523  -30.4078   10.8882 H         1 UNK         0.0638 
     97 H97       -56.2997  -30.6729   10.1469 H         1 UNK         0.0638 
     98 H98       -56.7434  -30.0182   13.1063 H         1 UNK         0.0568 
     99 H99       -54.9165  -32.4181   13.8267 H         1 UNK         0.3450 
    100 H100      -56.0536  -33.7412   13.7250 H         1 UNK         0.3450 
    101 H101      -54.6099  -29.6902   13.3306 H         1 UNK         0.2987 
    102 H102      -51.7827  -31.4529   12.3238 H         1 UNK         0.0766 
    103 H103      -51.6158  -29.8558   10.4360 H         1 UNK         0.0798 
    104 H104      -50.6357  -29.3039   11.7848 H         1 UNK         0.0798 
    105 H105      -52.1907  -28.5442   11.4520 H         1 UNK         0.0798 
    106 H106      -52.0097  -29.1030   13.9227 H         1 UNK         0.3198 
    107 H107      -53.4996  -30.5236   16.7780 H         1 UNK         0.0843 
    108 H108      -50.5202  -29.8842   16.4244 H         1 UNK         0.0831 
    109 H109      -51.1648  -31.4128   17.0086 H         1 UNK         0.0831 
    110 H110      -51.3959  -29.9517   17.9537 H         1 UNK         0.0831 
    111 H111      -52.3291  -28.0555   16.7369 H         1 UNK         0.3133 
    112 H112      -54.5186  -26.0972   14.8377 H         1 UNK         0.0566 
    113 H113      -55.1170  -25.0208   16.9959 H         1 UNK         0.0814 
    114 H114      -55.9756  -26.5383   16.7845 H         1 UNK         0.0814 
    115 H115      -54.6036  -26.4588   17.8773 H         1 UNK         0.0814 
    116 H116      -52.5417  -25.1823   15.0617 H         1 UNK         0.3091 
    117 H117      -50.3257  -24.5292   17.6017 H         1 UNK         0.0702 
    118 H118      -49.1968  -26.6258   16.8846 H         1 UNK         0.0785 
    119 H119      -48.4753  -25.2380   16.0889 H         1 UNK         0.0785 
    120 H120      -49.5775  -26.2922   15.2028 H         1 UNK         0.0785 
    121 H121      -50.2944  -23.9499   14.7821 H         1 UNK         0.2998 
    122 H122      -52.2855  -21.9137   14.1723 H         1 UNK         0.0697 
    123 H123      -50.8973  -19.9195   16.0378 H         1 UNK         0.0825 
    124 H124      -52.6288  -20.1574   15.8632 H         1 UNK         0.0825 
    125 H125      -51.7021  -19.5001   14.5260 H         1 UNK         0.0825 
    126 H126      -50.4222  -21.9815   12.9720 H         1 UNK         0.3029 
    127 H127      -48.1922  -21.1356   12.3186 H         1 UNK         0.0897 
    128 H128      -45.7901  -21.5635   12.7775 H         1 UNK         0.0792 
    129 H129      -46.1619  -22.0315   14.4363 H         1 UNK         0.0792 
    130 H130      -46.4258  -20.3763   13.9040 H         1 UNK         0.0792 
    131 H131      -47.2419  -23.7829   13.1054 H         1 UNK         0.3086 
    132 H132      -48.5373  -25.6836   12.7134 H         1 UNK         0.0583 
    133 H133      -50.6347  -25.3613   10.5118 H         1 UNK         0.1020 
    134 H134      -50.0310  -26.9006   11.0299 H         1 UNK         0.1020 
    135 H135      -53.4269  -24.7626   13.0624 H         1 UNK         0.0694 
    136 H136      -52.2560  -23.8029   12.1956 H         1 UNK         0.0694 
    137 H137      -48.0917  -25.6769    9.8160 H         1 UNK         0.2989 
    138 H138      -45.5356  -25.2284    9.1993 H         1 UNK         0.1055 
    139 H139      -44.1247  -27.2714   10.9988 H         1 UNK         0.0806 
    140 H140      -43.6528  -25.6007   10.7392 H         1 UNK         0.0806 
    141 H141      -43.5525  -26.7492    9.4143 H         1 UNK         0.0806 
    142 H142      -46.5869  -26.8873    8.1854 H         1 UNK         0.3061 
    143 H143      -46.9445  -30.2660    8.5149 H         1 UNK         0.0734 
    144 H144      -49.4236  -30.0359    8.4683 H         1 UNK         0.0832 
    145 H145      -48.8006  -29.8339   10.0951 H         1 UNK         0.0832 
    146 H146      -49.2974  -28.4207    9.1774 H         1 UNK         0.0832 
    147 H147      -48.2263  -28.1276    6.9453 H         1 UNK         0.3156 
    148 H148      -45.6729  -28.2000    4.4250 H         1 UNK         0.0589 
    149 H149      -48.6694  -28.8493    4.4323 H         1 UNK         0.0808 
    150 H150      -47.7226  -28.3351    3.0369 H         1 UNK         0.0808 
    151 H151      -47.3956  -29.8811    3.8018 H         1 UNK         0.0808 
    152 H152      -47.9517  -26.5058    4.9350 H         1 UNK         0.3098 
    153 H153      -46.2929  -24.0670    6.8361 H         1 UNK         0.0720 
    154 H154      -45.1786  -23.5054    4.6725 H         1 UNK         0.0791 
    155 H155      -46.5682  -22.4718    4.9543 H         1 UNK         0.0791 
    156 H156      -46.6771  -23.8054    3.8037 H         1 UNK         0.0791 
    157 H157      -48.6713  -23.9054    5.2716 H         1 UNK         0.3028 
@<TRIPOS>BOND
     1    1    2 1    
     2    1   82 1    
     3    1   83 1    
     4    1   84 1    
     5    2    3 2    
     6    2    4 am   BACKBONE|DICT|INTERRES
     7    4    5 1    
     8    4   85 1    
     9    5    6 1    
    10    5   80 1    
    11    5   86 1    
    12    6    7 1    
    13    6   87 1    
    14    6   88 1    
    15    7    8 1    
    16    8    9 1    
    17    8   89 1    
    18    8   90 1    
    19    9   10 ar   
    20    9   14 ar   
    21   10   11 ar   
    22   10   91 1    
    23   11   12 ar   
    24   11   58 1    
    25   12   13 ar   
    26   12   92 1    
    27   13   14 ar   
    28   13   15 1    
    29   14   93 1    
    30   15   16 1    
    31   15   94 1    
    32   15   95 1    
    33   16   17 1    
    34   17   18 1    
    35   17   96 1    
    36   17   97 1    
    37   18   19 1    
    38   18   22 1    
    39   18   98 1    
    40   19   20 am   BACKBONE|DICT|INTERRES
    41   19   21 2    
    42   20   99 1    
    43   20  100 1    
    44   22   23 am   BACKBONE|DICT|INTERRES
    45   22  101 1    
    46   23   24 2    
    47   23   25 1    
    48   25   26 1    
    49   25   27 1    
    50   25  102 1    
    51   26  103 1    
    52   26  104 1    
    53   26  105 1    
    54   27   28 am   BACKBONE|DICT|INTERRES
    55   27  106 1    
    56   28   29 2    
    57   28   30 1    
    58   30   31 1    
    59   30   32 1    
    60   30  107 1    
    61   31  108 1    
    62   31  109 1    
    63   31  110 1    
    64   32   33 am   BACKBONE|DICT|INTERRES
    65   32  111 1    
    66   33   34 2    
    67   33   35 1    
    68   35   36 1    
    69   35   37 1    
    70   35  112 1    
    71   36  113 1    
    72   36  114 1    
    73   36  115 1    
    74   37   38 am   BACKBONE|DICT|INTERRES
    75   37  116 1    
    76   38   39 2    
    77   38   40 1    
    78   40   41 1    
    79   40   42 1    
    80   40  117 1    
    81   41  118 1    
    82   41  119 1    
    83   41  120 1    
    84   42   43 am   BACKBONE|DICT|INTERRES
    85   42  121 1    
    86   43   44 2    
    87   43   45 1    
    88   45   46 1    
    89   45   47 1    
    90   45  122 1    
    91   46  123 1    
    92   46  124 1    
    93   46  125 1    
    94   47   48 am   BACKBONE|DICT|INTERRES
    95   47  126 1    
    96   48   49 2    
    97   48   50 1    
    98   50   51 1    
    99   50   52 1    
   100   50  127 1    
   101   51  128 1    
   102   51  129 1    
   103   51  130 1    
   104   52   53 am   BACKBONE|DICT|INTERRES
   105   52  131 1    
   106   53   54 2    
   107   53   55 1    
   108   55   56 1    
   109   55   59 1    
   110   55  132 1    
   111   56   57 1    
   112   56  133 1    
   113   56  134 1    
   114   57   58 1    
   115   58  135 1    
   116   58  136 1    
   117   59   60 am   BACKBONE|DICT|INTERRES
   118   59  137 1    
   119   60   61 2    
   120   60   62 1    
   121   62   63 1    
   122   62   64 1    
   123   62  138 1    
   124   63  139 1    
   125   63  140 1    
   126   63  141 1    
   127   64   65 am   BACKBONE|DICT|INTERRES
   128   64  142 1    
   129   65   66 2    
   130   65   67 1    
   131   67   68 1    
   132   67   69 1    
   133   67  143 1    
   134   68  144 1    
   135   68  145 1    
   136   68  146 1    
   137   69   70 am   BACKBONE|DICT|INTERRES
   138   69  147 1    
   139   70   71 2    
   140   70   72 1    
   141   72   73 1    
   142   72   74 1    
   143   72  148 1    
   144   73  149 1    
   145   73  150 1    
   146   73  151 1    
   147   74   75 am   BACKBONE|DICT|INTERRES
   148   74  152 1    
   149   75   76 2    
   150   75   77 1    
   151   77   78 1    
   152   77   79 1    
   153   77  153 1    
   154   78  154 1    
   155   78  155 1    
   156   78  156 1    
   157   79   80 am   BACKBONE|DICT|INTERRES
   158   79  157 1    
   159   80   81 2    
@<TRIPOS>SUBSTRUCTURE
     1 UNK         1 GROUP             0       ****    0 ROOT    
