@<TRIPOS>MOLECULE
3R207
157   159    1
SMALL
USER_CHARGES


@<TRIPOS>ATOM
      1 CA        -52.2196  -27.6178    8.4810 C.3       0 UNK        -0.1975 
      2 C         -52.7752  -27.0594    7.1756 C.2       0 UNK         0.4852 
      3 O         -53.7729  -26.3411    7.2080 O.2       0 UNK        -0.5216 
      4 N         -52.1845  -27.3527    6.0104 N.am      1 UNK        -0.4461 
      5 CA        -50.9528  -28.1155    5.7846 C.3       1 UNK         0.0864 
      6 C6        -51.2112  -29.4435    5.0244 C.3       14 UNK        -0.0898 
      7 S7        -52.4006  -30.5556    5.8499 S.3       14 UNK        -0.2598 
      8 C8        -51.3178  -31.8467    6.5398 C.3       14 UNK         0.0286 
      9 C9        -50.6132  -31.3662    7.7980 C.ar      14 UNK        -0.0844 
     10 C10       -49.2788  -30.9500    7.7519 C.ar      14 UNK        -0.0881 
     11 C11       -48.6459  -30.4863    8.9087 C.ar      14 UNK        -0.0643 
     12 C12       -49.3432  -30.4737   10.1189 C.ar      14 UNK        -0.0930 
     13 C13       -50.6851  -30.8539   10.1693 C.ar      14 UNK        -0.0827 
     14 C14       -51.3110  -31.3174    9.0092 C.ar      14 UNK        -0.1249 
     15 C15       -51.4671  -30.7013   11.4634 C.3       14 UNK         0.0141 
     16 S16       -51.6811  -28.9390   11.8651 S.3       14 UNK        -0.2313 
     17 C17       -52.9711  -29.0131   13.1508 C.3       14 UNK        -0.0915 
     18 CA        -54.3594  -28.5749   12.6128 C.3       13 UNK         0.0968 
     19 C         -55.4591  -28.7289   13.7046 C.2       13 UNK         0.5732 
     20 N         -56.1252  -27.6683   14.1497 N.am      13 UNK        -0.7310 
     21 O         -55.7223  -29.8431   14.1504 O.2       13 UNK        -0.5035 
     22 N         -54.3047  -27.2416   11.9975 N.am      13 UNK        -0.4233 
     23 C         -55.2052  -26.7525   11.1351 C.2       13 UNK         0.4989 
     24 O         -56.1349  -27.4161   10.6729 O.2       13 UNK        -0.4996 
     25 CA        -55.0415  -25.2712   10.7282 C.3       12 UNK         0.0216 
     26 CB        -56.3810  -24.6162   10.3312 C.3       12 UNK        -0.1964 
     27 N         -54.3507  -24.4527   11.7354 N.am      12 UNK        -0.4276 
     28 C         -54.6950  -24.2818   13.0182 C.2       12 UNK         0.5020 
     29 O         -55.6976  -24.7796   13.5391 O.2       12 UNK        -0.5489 
     30 CA        -53.7393  -23.4322   13.8718 C.3       11 UNK         0.0294 
     31 CB        -54.2414  -21.9836   13.9722 C.3       11 UNK        -0.2019 
     32 N         -53.6082  -24.0015   15.2137 N.am      11 UNK        -0.4493 
     33 C         -52.9733  -25.1497   15.4783 C.2       11 UNK         0.4932 
     34 O         -52.3334  -25.7937   14.6441 O.2       11 UNK        -0.5029 
     35 CA        -53.1227  -25.6900   16.9026 C.3       10 UNK         0.0280 
     36 CB        -54.4242  -26.5090   17.0231 C.3       10 UNK        -0.1976 
     37 N         -51.9624  -26.5167   17.2258 N.am      10 UNK        -0.4242 
     38 C         -51.6545  -26.9761   18.4450 C.2       10 UNK         0.5072 
     39 O         -52.3157  -26.7370   19.4570 O.2       10 UNK        -0.5224 
     40 CA        -50.3994  -27.8575   18.5695 C.3       9 UNK         0.0343 
     41 CB        -50.7361  -29.3202   18.2344 C.3       9 UNK        -0.2003 
     42 N         -49.2711  -27.4219   17.7440 N.am      9 UNK        -0.4272 
     43 C         -48.6209  -26.2544   17.8627 C.2       9 UNK         0.4988 
     44 O         -48.9277  -25.3805   18.6744 O.2       9 UNK        -0.5108 
     45 CA        -47.3987  -26.0266   16.9505 C.3       8 UNK         0.0248 
     46 CB        -46.1013  -26.0371   17.7773 C.3       8 UNK        -0.2001 
     47 N         -47.2760  -27.0050   15.8636 N.am      8 UNK        -0.4140 
     48 C         -48.0388  -27.0074   14.7644 C.2       8 UNK         0.5028 
     49 O         -48.9390  -26.1917   14.5525 O.2       8 UNK        -0.5428 
     50 CA        -47.7826  -28.1340   13.7562 C.3       7 UNK         0.0264 
     51 CB        -48.6748  -29.3453   14.0767 C.3       7 UNK        -0.1988 
     52 N         -48.1076  -27.6216   12.4281 N.am      7 UNK        -0.4454 
     53 C         -47.2091  -27.3568   11.4703 C.2       7 UNK         0.5027 
     54 O         -46.0348  -27.7272   11.5105 O.2       7 UNK        -0.5083 
     55 CA        -47.6912  -26.4756   10.2950 C.3       6 UNK         0.0844 
     56 C56       -48.3457  -27.3134    9.1715 C.3       14 UNK        -0.0967 
     57 S57       -47.1694  -28.2604    8.1425 S.3       14 UNK        -0.2604 
     58 C58       -47.2281  -29.9412    8.8518 C.3       14 UNK         0.0134 
     59 N         -48.5953  -25.4073   10.7427 N.am      6 UNK        -0.4116 
     60 C         -48.2818  -24.4290   11.6056 C.2       5 UNK         0.5034 
     61 O         -47.1534  -24.2522   12.0672 O.2       5 UNK        -0.5045 
     62 CA        -49.4236  -23.4660   11.9595 C.3       5 UNK         0.0224 
     63 CB        -49.0280  -22.4106   13.0088 C.3       5 UNK        -0.1978 
     64 N         -49.8484  -22.7991   10.7315 N.am      5 UNK        -0.4737 
     65 C         -51.0969  -22.7743   10.2538 C.2       4 UNK         0.5027 
     66 O         -52.0688  -23.2274   10.8545 O.2       4 UNK        -0.5211 
     67 CA        -51.2917  -22.1720    8.8507 C.3       4 UNK         0.0297 
     68 CB        -51.6584  -20.6835    8.9541 C.3       4 UNK        -0.1993 
     69 N         -50.1206  -22.3335    7.9788 N.am      4 UNK        -0.4486 
     70 C         -49.6491  -23.5166    7.5641 C.2       3 UNK         0.4961 
     71 O         -50.1649  -24.6010    7.8515 O.2       3 UNK        -0.5105 
     72 CA        -48.3654  -23.4884    6.7264 C.3       3 UNK         0.0299 
     73 CB        -47.1354  -23.1882    7.6026 C.3       3 UNK        -0.1972 
     74 N         -48.2188  -24.7988    6.1093 N.am      3 UNK        -0.4305 
     75 C         -47.6003  -25.0860    4.9600 C.2       2 UNK         0.5006 
     76 O         -46.9861  -24.2562    4.2882 O.2       2 UNK        -0.5106 
     77 CA        -47.6779  -26.5465    4.4684 C.3       2 UNK         0.0296 
     78 CB        -46.3100  -27.2361    4.6045 C.3       2 UNK        -0.2002 
     79 N         -48.6991  -27.3497    5.1571 N.am      2 UNK        -0.4032 
     80 C         -50.0184  -27.2179    4.9538 C.2       1 UNK         0.5000 
     81 O         -50.5039  -26.4331    4.1331 O.2       1 UNK        -0.5238 
     82 H82       -51.3395  -27.0564    8.7893 H         1 UNK         0.0889 
     83 H83       -51.9588  -28.6703    8.3883 H         1 UNK         0.0889 
     84 H84       -52.9605  -27.5404    9.2750 H         1 UNK         0.0889 
     85 H85       -52.5380  -26.9137    5.1708 H         1 UNK         0.3028 
     86 H86       -50.4486  -28.3365    6.7260 H         1 UNK         0.0864 
     87 H87       -50.2737  -29.9790    4.8642 H         1 UNK         0.0720 
     88 H88       -51.6091  -29.2386    4.0282 H         1 UNK         0.0720 
     89 H89       -50.6003  -32.1772    5.7873 H         1 UNK         0.0814 
     90 H90       -51.9252  -32.7205    6.7806 H         1 UNK         0.0814 
     91 H91       -48.7394  -30.9615    6.8148 H         1 UNK         0.1469 
     92 H92       -48.8624  -30.0999   11.0115 H         1 UNK         0.1381 
     93 H93       -52.3520  -31.6096    9.0376 H         1 UNK         0.1206 
     94 H94       -50.9418  -31.2020   12.2779 H         1 UNK         0.0813 
     95 H95       -52.4456  -31.1764   11.3777 H         1 UNK         0.0813 
     96 H96       -53.0131  -30.0254   13.5567 H         1 UNK         0.0638 
     97 H97       -52.6620  -28.3705   13.9764 H         1 UNK         0.0638 
     98 H98       -54.6323  -29.2786   11.8241 H         1 UNK         0.0568 
     99 H99       -55.9254  -26.7342   13.8055 H         1 UNK         0.3450 
    100 H100      -56.8402  -27.7995   14.8461 H         1 UNK         0.3450 
    101 H101      -53.5791  -26.6313   12.3449 H         1 UNK         0.2987 
    102 H102      -54.3984  -25.2711    9.8466 H         1 UNK         0.0766 
    103 H103      -56.8374  -25.1359    9.4878 H         1 UNK         0.0798 
    104 H104      -57.0979  -24.6345   11.1528 H         1 UNK         0.0798 
    105 H105      -56.2405  -23.5778   10.0310 H         1 UNK         0.0798 
    106 H106      -53.4939  -23.9961   11.4094 H         1 UNK         0.3198 
    107 H107      -52.7501  -23.4263   13.4089 H         1 UNK         0.0843 
    108 H108      -55.2317  -21.9293   14.4267 H         1 UNK         0.0831 
    109 H109      -54.3111  -21.5289   12.9830 H         1 UNK         0.0831 
    110 H110      -53.5637  -21.3676   14.5634 H         1 UNK         0.0831 
    111 H111      -54.1551  -23.5676   15.9432 H         1 UNK         0.3133 
    112 H112      -53.1540  -24.8452   17.5937 H         1 UNK         0.0566 
    113 H113      -54.3779  -27.4188   16.4237 H         1 UNK         0.0814 
    114 H114      -54.6252  -26.7995   18.0540 H         1 UNK         0.0814 
    115 H115      -55.2866  -25.9361   16.6794 H         1 UNK         0.0814 
    116 H116      -51.3589  -26.7195   16.4372 H         1 UNK         0.3091 
    117 H117      -50.0747  -27.8151   19.6113 H         1 UNK         0.0702 
    118 H118      -49.8865  -29.9771   18.4220 H         1 UNK         0.0785 
    119 H119      -51.0302  -29.4393   17.1906 H         1 UNK         0.0785 
    120 H120      -51.5628  -29.6804   18.8485 H         1 UNK         0.0785 
    121 H121      -48.9386  -28.0762   17.0525 H         1 UNK         0.2998 
    122 H122      -47.5099  -25.0343   16.5075 H         1 UNK         0.0697 
    123 H123      -45.9299  -27.0054   18.2493 H         1 UNK         0.0825 
    124 H124      -46.1373  -25.2903   18.5718 H         1 UNK         0.0825 
    125 H125      -45.2338  -25.8049   17.1591 H         1 UNK         0.0825 
    126 H126      -46.5632  -27.7134   15.9704 H         1 UNK         0.3029 
    127 H127      -46.7346  -28.4367   13.8130 H         1 UNK         0.0897 
    128 H128      -49.7311  -29.0754   14.1027 H         1 UNK         0.0792 
    129 H129      -48.4246  -29.7690   15.0499 H         1 UNK         0.0792 
    130 H130      -48.5484  -30.1389   13.3412 H         1 UNK         0.0792 
    131 H131      -49.0276  -27.2089   12.3522 H         1 UNK         0.3086 
    132 H132      -46.8105  -25.9810    9.8799 H         1 UNK         0.0583 
    133 H133      -49.1430  -27.9409    9.5645 H         1 UNK         0.1020 
    134 H134      -48.8450  -26.6437    8.4754 H         1 UNK         0.1020 
    135 H135      -46.6069  -30.6025    8.2462 H         1 UNK         0.0694 
    136 H136      -46.7786  -29.9291    9.8458 H         1 UNK         0.0694 
    137 H137      -49.5329  -25.4244   10.3672 H         1 UNK         0.2989 
    138 H138      -50.2316  -24.0723   12.3777 H         1 UNK         0.1055 
    139 H139      -48.7004  -22.8883   13.9335 H         1 UNK         0.0806 
    140 H140      -49.8724  -21.7678   13.2579 H         1 UNK         0.0806 
    141 H141      -48.2135  -21.7752   12.6594 H         1 UNK         0.0806 
    142 H142      -49.1116  -22.4182   10.1546 H         1 UNK         0.3061 
    143 H143      -52.1279  -22.6991    8.3857 H         1 UNK         0.0734 
    144 H144      -50.8516  -20.0967    9.3950 H         1 UNK         0.0832 
    145 H145      -51.8875  -20.2611    7.9755 H         1 UNK         0.0832 
    146 H146      -52.5415  -20.5432    9.5794 H         1 UNK         0.0832 
    147 H147      -49.6432  -21.4894    7.6947 H         1 UNK         0.3156 
    148 H148      -48.4705  -22.7271    5.9508 H         1 UNK         0.0589 
    149 H149      -47.0226  -23.9204    8.4031 H         1 UNK         0.0808 
    150 H150      -46.2184  -23.1973    7.0131 H         1 UNK         0.0808 
    151 H151      -47.2085  -22.2038    8.0658 H         1 UNK         0.0808 
    152 H152      -48.7646  -25.5168    6.5664 H         1 UNK         0.3098 
    153 H153      -47.9319  -26.5145    3.4066 H         1 UNK         0.0720 
    154 H154      -46.3427  -28.2642    4.2435 H         1 UNK         0.0791 
    155 H155      -45.9635  -27.2511    5.6378 H         1 UNK         0.0791 
    156 H156      -45.5523  -26.7133    4.0192 H         1 UNK         0.0791 
    157 H157      -48.3601  -28.0101    5.8440 H         1 UNK         0.3028 
@<TRIPOS>BOND
     1    1    2 1    
     2    1   82 1    
     3    1   83 1    
     4    1   84 1    
     5    2    3 2    
     6    2    4 am   BACKBONE|DICT|INTERRES
     7    4    5 1    
     8    4   85 1    
     9    5    6 1    
    10    5   80 1    
    11    5   86 1    
    12    6    7 1    
    13    6   87 1    
    14    6   88 1    
    15    7    8 1    
    16    8    9 1    
    17    8   89 1    
    18    8   90 1    
    19    9   10 ar   
    20    9   14 ar   
    21   10   11 ar   
    22   10   91 1    
    23   11   12 ar   
    24   11   58 1    
    25   12   13 ar   
    26   12   92 1    
    27   13   14 ar   
    28   13   15 1    
    29   14   93 1    
    30   15   16 1    
    31   15   94 1    
    32   15   95 1    
    33   16   17 1    
    34   17   18 1    
    35   17   96 1    
    36   17   97 1    
    37   18   19 1    
    38   18   22 1    
    39   18   98 1    
    40   19   20 am   BACKBONE|DICT|INTERRES
    41   19   21 2    
    42   20   99 1    
    43   20  100 1    
    44   22   23 am   BACKBONE|DICT|INTERRES
    45   22  101 1    
    46   23   24 2    
    47   23   25 1    
    48   25   26 1    
    49   25   27 1    
    50   25  102 1    
    51   26  103 1    
    52   26  104 1    
    53   26  105 1    
    54   27   28 am   BACKBONE|DICT|INTERRES
    55   27  106 1    
    56   28   29 2    
    57   28   30 1    
    58   30   31 1    
    59   30   32 1    
    60   30  107 1    
    61   31  108 1    
    62   31  109 1    
    63   31  110 1    
    64   32   33 am   BACKBONE|DICT|INTERRES
    65   32  111 1    
    66   33   34 2    
    67   33   35 1    
    68   35   36 1    
    69   35   37 1    
    70   35  112 1    
    71   36  113 1    
    72   36  114 1    
    73   36  115 1    
    74   37   38 am   BACKBONE|DICT|INTERRES
    75   37  116 1    
    76   38   39 2    
    77   38   40 1    
    78   40   41 1    
    79   40   42 1    
    80   40  117 1    
    81   41  118 1    
    82   41  119 1    
    83   41  120 1    
    84   42   43 am   BACKBONE|DICT|INTERRES
    85   42  121 1    
    86   43   44 2    
    87   43   45 1    
    88   45   46 1    
    89   45   47 1    
    90   45  122 1    
    91   46  123 1    
    92   46  124 1    
    93   46  125 1    
    94   47   48 am   BACKBONE|DICT|INTERRES
    95   47  126 1    
    96   48   49 2    
    97   48   50 1    
    98   50   51 1    
    99   50   52 1    
   100   50  127 1    
   101   51  128 1    
   102   51  129 1    
   103   51  130 1    
   104   52   53 am   BACKBONE|DICT|INTERRES
   105   52  131 1    
   106   53   54 2    
   107   53   55 1    
   108   55   56 1    
   109   55   59 1    
   110   55  132 1    
   111   56   57 1    
   112   56  133 1    
   113   56  134 1    
   114   57   58 1    
   115   58  135 1    
   116   58  136 1    
   117   59   60 am   BACKBONE|DICT|INTERRES
   118   59  137 1    
   119   60   61 2    
   120   60   62 1    
   121   62   63 1    
   122   62   64 1    
   123   62  138 1    
   124   63  139 1    
   125   63  140 1    
   126   63  141 1    
   127   64   65 am   BACKBONE|DICT|INTERRES
   128   64  142 1    
   129   65   66 2    
   130   65   67 1    
   131   67   68 1    
   132   67   69 1    
   133   67  143 1    
   134   68  144 1    
   135   68  145 1    
   136   68  146 1    
   137   69   70 am   BACKBONE|DICT|INTERRES
   138   69  147 1    
   139   70   71 2    
   140   70   72 1    
   141   72   73 1    
   142   72   74 1    
   143   72  148 1    
   144   73  149 1    
   145   73  150 1    
   146   73  151 1    
   147   74   75 am   BACKBONE|DICT|INTERRES
   148   74  152 1    
   149   75   76 2    
   150   75   77 1    
   151   77   78 1    
   152   77   79 1    
   153   77  153 1    
   154   78  154 1    
   155   78  155 1    
   156   78  156 1    
   157   79   80 am   BACKBONE|DICT|INTERRES
   158   79  157 1    
   159   80   81 2    
@<TRIPOS>SUBSTRUCTURE
     1 UNK         1 GROUP             0       ****    0 ROOT    
