@<TRIPOS>MOLECULE
3R207
157   159    1
SMALL
USER_CHARGES


@<TRIPOS>ATOM
      1 CA        -47.2170  -27.4817    7.2829 C.3       0 UNK        -0.1975 
      2 C         -48.5965  -27.1056    6.7713 C.2       0 UNK         0.4852 
      3 O         -48.7093  -26.2374    5.9029 O.2       0 UNK        -0.5216 
      4 N         -49.6508  -27.7406    7.3022 N.am      1 UNK        -0.4461 
      5 CA        -51.0555  -27.5686    6.8994 C.3       1 UNK         0.0864 
      6 C6        -51.9427  -28.7563    7.3531 C.3       14 UNK        -0.0898 
      7 S7        -51.2818  -30.3893    6.8742 S.3       14 UNK        -0.2598 
      8 C8        -51.7820  -31.4264    8.2904 C.3       14 UNK         0.0286 
      9 C9        -51.1556  -30.9727    9.6036 C.ar      14 UNK        -0.0844 
     10 C10       -49.7728  -31.0582    9.7924 C.ar      14 UNK        -0.0881 
     11 C11       -49.1913  -30.6249   10.9879 C.ar      14 UNK        -0.0643 
     12 C12       -50.0056  -30.1257   12.0082 C.ar      14 UNK        -0.0930 
     13 C13       -51.3882  -30.0353   11.8316 C.ar      14 UNK        -0.0827 
     14 C14       -51.9590  -30.4617   10.6289 C.ar      14 UNK        -0.1249 
     15 C15       -52.2562  -29.4347   12.9242 C.3       14 UNK         0.0141 
     16 S16       -53.0060  -30.7044   13.9843 S.3       14 UNK        -0.2313 
     17 C17       -54.0406  -29.6388   15.0426 C.3       14 UNK        -0.0915 
     18 CA        -55.5219  -29.5648   14.5542 C.3       13 UNK         0.0968 
     19 C         -56.4687  -30.5788   15.2654 C.2       13 UNK         0.5732 
     20 N         -57.7298  -30.2432   15.5111 N.am      13 UNK        -0.7310 
     21 O         -56.0698  -31.6993   15.5739 O.2       13 UNK        -0.5035 
     22 N         -56.0239  -28.1831   14.4913 N.am      13 UNK        -0.4233 
     23 C         -56.1185  -27.3199   15.5134 C.2       13 UNK         0.4989 
     24 O         -55.8434  -27.6119   16.6778 O.2       13 UNK        -0.4996 
     25 CA        -56.5819  -25.8841   15.1959 C.3       12 UNK         0.0216 
     26 CB        -55.5549  -24.8524   15.6963 C.3       12 UNK        -0.1964 
     27 N         -56.7784  -25.6777   13.7592 N.am      12 UNK        -0.4276 
     28 C         -57.9628  -25.5416   13.1476 C.2       12 UNK         0.5020 
     29 O         -59.0402  -25.5030   13.7431 O.2       12 UNK        -0.5489 
     30 CA        -57.9586  -25.4478   11.6075 C.3       11 UNK         0.0294 
     31 CB        -58.0390  -23.9786   11.1624 C.3       11 UNK        -0.2019 
     32 N         -56.7985  -26.0783   10.9680 N.am      11 UNK        -0.4493 
     33 C         -56.4833  -27.3788   11.0485 C.2       11 UNK         0.4932 
     34 O         -57.1673  -28.2129   11.6410 O.2       11 UNK        -0.5029 
     35 CA        -55.1421  -27.8149   10.4330 C.3       10 UNK         0.0280 
     36 CB        -55.3476  -28.2866    8.9863 C.3       10 UNK        -0.1976 
     37 N         -54.0750  -26.8026   10.4839 N.am      10 UNK        -0.4242 
     38 C         -53.6567  -26.1606   11.5839 C.2       10 UNK         0.5072 
     39 O         -54.1683  -26.3043   12.6976 O.2       10 UNK        -0.5224 
     40 CA        -52.5241  -25.1399   11.4003 C.3       9 UNK         0.0343 
     41 CB        -53.0923  -23.8037   10.8941 C.3       9 UNK        -0.2003 
     42 N         -51.8432  -24.9125   12.6743 N.am      9 UNK        -0.4272 
     43 C         -50.8691  -25.6911   13.1560 C.2       9 UNK         0.4988 
     44 O         -50.3278  -26.6032   12.5257 O.2       9 UNK        -0.5108 
     45 CA        -50.4475  -25.4221   14.6031 C.3       8 UNK         0.0248 
     46 CB        -51.3535  -26.1786   15.5917 C.3       8 UNK        -0.2001 
     47 N         -49.0699  -25.8686   14.7610 N.am      8 UNK        -0.4140 
     48 C         -48.1391  -25.2914   15.5265 C.2       8 UNK         0.5028 
     49 O         -48.3636  -24.3416   16.2786 O.2       8 UNK        -0.5428 
     50 CA        -46.7106  -25.8648   15.4497 C.3       7 UNK         0.0264 
     51 CB        -46.4088  -26.7175   16.6935 C.3       7 UNK        -0.1988 
     52 N         -46.4360  -26.6622   14.2468 N.am      7 UNK        -0.4454 
     53 C         -46.3582  -26.1708   13.0018 C.2       7 UNK         0.5027 
     54 O         -46.5619  -24.9877   12.7192 O.2       7 UNK        -0.5083 
     55 CA        -46.0115  -27.1818   11.8949 C.3       6 UNK         0.0844 
     56 C56       -47.2847  -27.8754   11.3552 C.3       14 UNK        -0.0967 
     57 S57       -46.8590  -29.3070   10.3055 S.3       14 UNK        -0.2604 
     58 C58       -47.6821  -30.6832   11.1672 C.3       14 UNK         0.0134 
     59 N         -45.2971  -26.4655   10.8396 N.am      6 UNK        -0.4116 
     60 C         -43.9933  -26.5909   10.5616 C.2       5 UNK         0.5034 
     61 O         -43.2545  -27.4324   11.0746 O.2       5 UNK        -0.5045 
     62 CA        -43.3958  -25.5930    9.5497 C.3       5 UNK         0.0224 
     63 CB        -43.3157  -26.2274    8.1515 C.3       5 UNK        -0.1978 
     64 N         -44.1464  -24.3369    9.4623 N.am      5 UNK        -0.4737 
     65 C         -44.2670  -23.4371   10.4487 C.2       4 UNK         0.5027 
     66 O         -43.6328  -23.5053   11.5019 O.2       4 UNK        -0.5211 
     67 CA        -45.2585  -22.2719   10.2412 C.3       4 UNK         0.0297 
     68 CB        -44.5489  -20.9155   10.3984 C.3       4 UNK        -0.1993 
     69 N         -45.9750  -22.2821    8.9584 N.am      4 UNK        -0.4486 
     70 C         -46.9055  -23.1673    8.5777 C.2       3 UNK         0.4961 
     71 O         -47.2430  -24.1474    9.2459 O.2       3 UNK        -0.5105 
     72 CA        -47.4809  -22.9543    7.1692 C.3       3 UNK         0.0299 
     73 CB        -46.5496  -23.5807    6.1172 C.3       3 UNK        -0.1972 
     74 N         -48.8129  -23.5423    7.0334 N.am      3 UNK        -0.4305 
     75 C         -49.9429  -22.9845    7.4982 C.2       2 UNK         0.5006 
     76 O         -49.9718  -21.8880    8.0591 O.2       2 UNK        -0.5106 
     77 CA        -51.2688  -23.7460    7.3068 C.3       2 UNK         0.0296 
     78 CB        -52.1824  -23.0257    6.3002 C.3       2 UNK        -0.2002 
     79 N         -51.0551  -25.1231    6.8655 N.am      2 UNK        -0.4032 
     80 C         -51.6237  -26.2137    7.3854 C.2       1 UNK         0.5000 
     81 O         -52.5253  -26.1794    8.2265 O.2       1 UNK        -0.5238 
     82 H82       -47.1605  -28.5470    7.5030 H         1 UNK         0.0889 
     83 H83       -46.9821  -26.9207    8.1871 H         1 UNK         0.0889 
     84 H84       -46.4586  -27.2580    6.5333 H         1 UNK         0.0889 
     85 H85       -49.4985  -28.4326    8.0229 H         1 UNK         0.3028 
     86 H86       -51.0844  -27.5476    5.8076 H         1 UNK         0.0864 
     87 H87       -52.0757  -28.7279    8.4348 H         1 UNK         0.0720 
     88 H88       -52.9381  -28.6629    6.9163 H         1 UNK         0.0720 
     89 H89       -51.4873  -32.4581    8.0936 H         1 UNK         0.0814 
     90 H90       -52.8710  -31.4284    8.3598 H         1 UNK         0.0814 
     91 H91       -49.1460  -31.4428    8.9993 H         1 UNK         0.1469 
     92 H92       -49.5636  -29.7877   12.9350 H         1 UNK         0.1381 
     93 H93       -53.0285  -30.3855   10.4898 H         1 UNK         0.1206 
     94 H94       -51.6676  -28.7545   13.5402 H         1 UNK         0.0813 
     95 H95       -53.0449  -28.8334   12.4775 H         1 UNK         0.0813 
     96 H96       -53.5867  -28.6465   15.0618 H         1 UNK         0.0638 
     97 H97       -53.9760  -29.9947   16.0723 H         1 UNK         0.0638 
     98 H98       -55.5463  -29.8790   13.5103 H         1 UNK         0.0568 
     99 H99       -58.3382  -30.9082   15.9617 H         1 UNK         0.3450 
    100 H100      -58.0771  -29.3346   15.2506 H         1 UNK         0.3450 
    101 H101      -56.3285  -27.8828   13.5744 H         1 UNK         0.2987 
    102 H102      -57.5163  -25.7256   15.7378 H         1 UNK         0.0766 
    103 H103      -55.9051  -23.8340   15.5272 H         1 UNK         0.0798 
    104 H104      -54.5960  -24.9636   15.1898 H         1 UNK         0.0798 
    105 H105      -55.3756  -24.9576   16.7672 H         1 UNK         0.0798 
    106 H106      -55.9324  -25.7371   13.1958 H         1 UNK         0.3198 
    107 H107      -58.8520  -25.9648   11.2505 H         1 UNK         0.0843 
    108 H108      -58.1332  -23.8947   10.0795 H         1 UNK         0.0831 
    109 H109      -57.1576  -23.4142   11.4697 H         1 UNK         0.0831 
    110 H110      -58.9090  -23.4860   11.5993 H         1 UNK         0.0831 
    111 H111      -56.1702  -25.4705   10.4629 H         1 UNK         0.3133 
    112 H112      -54.8020  -28.6729   11.0139 H         1 UNK         0.0566 
    113 H113      -54.4865  -28.8509    8.6358 H         1 UNK         0.0814 
    114 H114      -56.2108  -28.9491    8.9040 H         1 UNK         0.0814 
    115 H115      -55.5089  -27.4507    8.3046 H         1 UNK         0.0814 
    116 H116      -53.5898  -26.6021    9.6081 H         1 UNK         0.3091 
    117 H117      -51.8085  -25.5253   10.6713 H         1 UNK         0.0702 
    118 H118      -52.3016  -23.0666   10.7522 H         1 UNK         0.0785 
    119 H119      -53.8220  -23.3840   11.5881 H         1 UNK         0.0785 
    120 H120      -53.5920  -23.9295    9.9326 H         1 UNK         0.0785 
    121 H121      -52.2610  -24.2253   13.2842 H         1 UNK         0.2998 
    122 H122      -50.5140  -24.3479   14.7891 H         1 UNK         0.0697 
    123 H123      -51.2752  -27.2587   15.4649 H         1 UNK         0.0825 
    124 H124      -52.4011  -25.9109   15.4524 H         1 UNK         0.0825 
    125 H125      -51.0928  -25.9447   16.6239 H         1 UNK         0.0825 
    126 H126      -48.7972  -26.6016   14.1200 H         1 UNK         0.3029 
    127 H127      -46.0268  -25.0128   15.4464 H         1 UNK         0.0897 
    128 H128      -45.3718  -27.0539   16.7040 H         1 UNK         0.0792 
    129 H129      -46.5692  -26.1447   17.6082 H         1 UNK         0.0792 
    130 H130      -47.0505  -27.5981   16.7451 H         1 UNK         0.0792 
    131 H131      -46.2553  -27.6455   14.3942 H         1 UNK         0.3086 
    132 H132      -45.3649  -27.9422   12.3387 H         1 UNK         0.0583 
    133 H133      -47.8970  -27.1790   10.7779 H         1 UNK         0.1020 
    134 H134      -47.9171  -28.2119   12.1770 H         1 UNK         0.1020 
    135 H135      -47.3058  -31.6252   10.7656 H         1 UNK         0.0694 
    136 H136      -47.4109  -30.6721   12.2240 H         1 UNK         0.0694 
    137 H137      -45.8059  -25.6959   10.4225 H         1 UNK         0.2989 
    138 H138      -42.3826  -25.3586    9.8839 H         1 UNK         0.1055 
    139 H139      -42.7411  -27.1545    8.1766 H         1 UNK         0.0806 
    140 H140      -42.8237  -25.5631    7.4407 H         1 UNK         0.0806 
    141 H141      -44.3042  -26.4682    7.7594 H         1 UNK         0.0806 
    142 H142      -44.7015  -24.1944    8.6318 H         1 UNK         0.3061 
    143 H143      -46.0045  -22.3589   11.0344 H         1 UNK         0.0734 
    144 H144      -44.0543  -20.8403   11.3679 H         1 UNK         0.0832 
    145 H145      -43.7861  -20.7685    9.6327 H         1 UNK         0.0832 
    146 H146      -45.2545  -20.0868   10.3362 H         1 UNK         0.0832 
    147 H147      -45.7418  -21.5349    8.3193 H         1 UNK         0.3156 
    148 H148      -47.5518  -21.8818    6.9748 H         1 UNK         0.0589 
    149 H149      -46.4098  -24.6493    6.2842 H         1 UNK         0.0808 
    150 H150      -46.9456  -23.4509    5.1098 H         1 UNK         0.0808 
    151 H151      -45.5628  -23.1166    6.1364 H         1 UNK         0.0808 
    152 H152      -48.8336  -24.4707    6.6267 H         1 UNK         0.3098 
    153 H153      -51.7605  -23.7469    8.2806 H         1 UNK         0.0720 
    154 H154      -53.1491  -23.5231    6.2196 H         1 UNK         0.0791 
    155 H155      -51.7373  -22.9928    5.3051 H         1 UNK         0.0791 
    156 H156      -52.3729  -21.9970    6.6091 H         1 UNK         0.0791 
    157 H157      -50.3059  -25.2845    6.1988 H         1 UNK         0.3028 
@<TRIPOS>BOND
     1    1    2 1    
     2    1   82 1    
     3    1   83 1    
     4    1   84 1    
     5    2    3 2    
     6    2    4 am   BACKBONE|DICT|INTERRES
     7    4    5 1    
     8    4   85 1    
     9    5    6 1    
    10    5   80 1    
    11    5   86 1    
    12    6    7 1    
    13    6   87 1    
    14    6   88 1    
    15    7    8 1    
    16    8    9 1    
    17    8   89 1    
    18    8   90 1    
    19    9   10 ar   
    20    9   14 ar   
    21   10   11 ar   
    22   10   91 1    
    23   11   12 ar   
    24   11   58 1    
    25   12   13 ar   
    26   12   92 1    
    27   13   14 ar   
    28   13   15 1    
    29   14   93 1    
    30   15   16 1    
    31   15   94 1    
    32   15   95 1    
    33   16   17 1    
    34   17   18 1    
    35   17   96 1    
    36   17   97 1    
    37   18   19 1    
    38   18   22 1    
    39   18   98 1    
    40   19   20 am   BACKBONE|DICT|INTERRES
    41   19   21 2    
    42   20   99 1    
    43   20  100 1    
    44   22   23 am   BACKBONE|DICT|INTERRES
    45   22  101 1    
    46   23   24 2    
    47   23   25 1    
    48   25   26 1    
    49   25   27 1    
    50   25  102 1    
    51   26  103 1    
    52   26  104 1    
    53   26  105 1    
    54   27   28 am   BACKBONE|DICT|INTERRES
    55   27  106 1    
    56   28   29 2    
    57   28   30 1    
    58   30   31 1    
    59   30   32 1    
    60   30  107 1    
    61   31  108 1    
    62   31  109 1    
    63   31  110 1    
    64   32   33 am   BACKBONE|DICT|INTERRES
    65   32  111 1    
    66   33   34 2    
    67   33   35 1    
    68   35   36 1    
    69   35   37 1    
    70   35  112 1    
    71   36  113 1    
    72   36  114 1    
    73   36  115 1    
    74   37   38 am   BACKBONE|DICT|INTERRES
    75   37  116 1    
    76   38   39 2    
    77   38   40 1    
    78   40   41 1    
    79   40   42 1    
    80   40  117 1    
    81   41  118 1    
    82   41  119 1    
    83   41  120 1    
    84   42   43 am   BACKBONE|DICT|INTERRES
    85   42  121 1    
    86   43   44 2    
    87   43   45 1    
    88   45   46 1    
    89   45   47 1    
    90   45  122 1    
    91   46  123 1    
    92   46  124 1    
    93   46  125 1    
    94   47   48 am   BACKBONE|DICT|INTERRES
    95   47  126 1    
    96   48   49 2    
    97   48   50 1    
    98   50   51 1    
    99   50   52 1    
   100   50  127 1    
   101   51  128 1    
   102   51  129 1    
   103   51  130 1    
   104   52   53 am   BACKBONE|DICT|INTERRES
   105   52  131 1    
   106   53   54 2    
   107   53   55 1    
   108   55   56 1    
   109   55   59 1    
   110   55  132 1    
   111   56   57 1    
   112   56  133 1    
   113   56  134 1    
   114   57   58 1    
   115   58  135 1    
   116   58  136 1    
   117   59   60 am   BACKBONE|DICT|INTERRES
   118   59  137 1    
   119   60   61 2    
   120   60   62 1    
   121   62   63 1    
   122   62   64 1    
   123   62  138 1    
   124   63  139 1    
   125   63  140 1    
   126   63  141 1    
   127   64   65 am   BACKBONE|DICT|INTERRES
   128   64  142 1    
   129   65   66 2    
   130   65   67 1    
   131   67   68 1    
   132   67   69 1    
   133   67  143 1    
   134   68  144 1    
   135   68  145 1    
   136   68  146 1    
   137   69   70 am   BACKBONE|DICT|INTERRES
   138   69  147 1    
   139   70   71 2    
   140   70   72 1    
   141   72   73 1    
   142   72   74 1    
   143   72  148 1    
   144   73  149 1    
   145   73  150 1    
   146   73  151 1    
   147   74   75 am   BACKBONE|DICT|INTERRES
   148   74  152 1    
   149   75   76 2    
   150   75   77 1    
   151   77   78 1    
   152   77   79 1    
   153   77  153 1    
   154   78  154 1    
   155   78  155 1    
   156   78  156 1    
   157   79   80 am   BACKBONE|DICT|INTERRES
   158   79  157 1    
   159   80   81 2    
@<TRIPOS>SUBSTRUCTURE
     1 UNK         1 GROUP             0       ****    0 ROOT    
