@<TRIPOS>MOLECULE
3R207
157   159    1
SMALL
USER_CHARGES


@<TRIPOS>ATOM
      1 CA        -45.7100  -25.5387   12.4196 C.3       0 UNK        -0.1975 
      2 C         -46.5848  -26.3634   11.4885 C.2       0 UNK         0.4852 
      3 O         -47.3138  -25.7986   10.6718 O.2       0 UNK        -0.5216 
      4 N         -46.4923  -27.6972   11.5849 N.am      1 UNK        -0.4461 
      5 CA        -47.1776  -28.7090   10.7659 C.3       1 UNK         0.0864 
      6 C6        -48.7249  -28.5590   10.7483 C.3       14 UNK        -0.0898 
      7 S7        -49.5738  -30.1470   10.4569 S.3       14 UNK        -0.2598 
      8 C8        -50.0682  -30.0145    8.7056 C.3       14 UNK         0.0286 
      9 C9        -51.3411  -29.2012    8.4886 C.ar      14 UNK        -0.0844 
     10 C10       -51.3298  -28.0816    7.6480 C.ar      14 UNK        -0.0881 
     11 C11       -52.5139  -27.3868    7.3732 C.ar      14 UNK        -0.0643 
     12 C12       -53.7105  -27.8129    7.9555 C.ar      14 UNK        -0.0930 
     13 C13       -53.7399  -28.9288    8.7939 C.ar      14 UNK        -0.0827 
     14 C14       -52.5517  -29.6195    9.0551 C.ar      14 UNK        -0.1249 
     15 C15       -55.0692  -29.4326    9.3443 C.3       14 UNK         0.0141 
     16 S16       -55.3843  -28.9137   11.0609 S.3       14 UNK        -0.2313 
     17 C17       -55.7963  -27.1414   10.8957 C.3       14 UNK        -0.0915 
     18 CA        -55.1639  -26.2609   12.0092 C.3       13 UNK         0.0968 
     19 C         -55.5441  -24.7701   11.8112 C.2       13 UNK         0.5732 
     20 N         -54.5975  -23.9126   11.4620 N.am      13 UNK        -0.7310 
     21 O         -56.7069  -24.3925   11.9463 O.2       13 UNK        -0.5035 
     22 N         -55.5695  -26.7145   13.3462 N.am      13 UNK        -0.4233 
     23 C         -54.9484  -26.4066   14.4906 C.2       13 UNK         0.4989 
     24 O         -53.8830  -25.7879   14.5442 O.2       13 UNK        -0.4996 
     25 CA        -55.6262  -26.8458   15.8019 C.3       12 UNK         0.0216 
     26 CB        -56.8426  -27.7779   15.6142 C.3       12 UNK        -0.1964 
     27 N         -54.6423  -27.5120   16.6525 N.am      12 UNK        -0.4276 
     28 C         -54.4266  -27.2549   17.9496 C.2       12 UNK         0.5020 
     29 O         -55.0616  -26.4108   18.5845 O.2       12 UNK        -0.5489 
     30 CA        -53.3021  -28.0369   18.6664 C.3       11 UNK         0.0294 
     31 CB        -53.6436  -28.3533   20.1385 C.3       11 UNK        -0.2019 
     32 N         -52.8479  -29.2366   17.9509 N.am      11 UNK        -0.4493 
     33 C         -53.5307  -30.3696   17.7168 C.2       11 UNK         0.4932 
     34 O         -54.6479  -30.6099   18.1759 O.2       11 UNK        -0.5029 
     35 CA        -52.8514  -31.3795   16.7623 C.3       10 UNK         0.0280 
     36 CB        -53.8344  -32.4275   16.1983 C.3       10 UNK        -0.1976 
     37 N         -52.1168  -30.7145   15.6741 N.am      10 UNK        -0.4242 
     38 C         -52.6264  -29.8341   14.7995 C.2       10 UNK         0.5072 
     39 O         -53.8220  -29.5490   14.7281 O.2       10 UNK        -0.5224 
     40 CA        -51.6188  -29.0412   13.9547 C.3       9 UNK         0.0343 
     41 CB        -52.1210  -28.8627   12.5177 C.3       9 UNK        -0.2003 
     42 N         -51.4165  -27.7124   14.5292 N.am      9 UNK        -0.4272 
     43 C         -50.8731  -27.4396   15.7218 C.2       9 UNK         0.4988 
     44 O         -50.4663  -28.3057   16.4997 O.2       9 UNK        -0.5108 
     45 CA        -50.8079  -25.9539   16.1296 C.3       8 UNK         0.0248 
     46 CB        -49.7151  -25.6810   17.1846 C.3       8 UNK        -0.2001 
     47 N         -50.6763  -25.0214   15.0008 N.am      8 UNK        -0.4140 
     48 C         -49.7090  -25.0045   14.0718 C.2       8 UNK         0.5028 
     49 O         -48.7919  -25.8243   14.0039 O.2       8 UNK        -0.5428 
     50 CA        -49.7542  -23.8432   13.0744 C.3       7 UNK         0.0264 
     51 CB        -48.6022  -22.8577   13.3321 C.3       7 UNK        -0.1988 
     52 N         -49.6581  -24.3311   11.7018 N.am      7 UNK        -0.4454 
     53 C         -50.7090  -24.5571   10.9046 C.2       7 UNK         0.5027 
     54 O         -51.8740  -24.5396   11.3066 O.2       7 UNK        -0.5083 
     55 CA        -50.4143  -24.7972    9.4044 C.3       6 UNK         0.0844 
     56 C56       -51.6513  -24.5126    8.5084 C.3       14 UNK        -0.0967 
     57 S57       -51.3133  -24.9181    6.7619 S.3       14 UNK        -0.2604 
     58 C58       -52.5382  -26.2132    6.3995 C.3       14 UNK         0.0134 
     59 N         -49.2073  -24.0895    8.9471 N.am      6 UNK        -0.4116 
     60 C         -48.9952  -22.7653    8.9538 C.2       5 UNK         0.5034 
     61 O         -49.8172  -21.9338    9.3411 O.2       5 UNK        -0.5045 
     62 CA        -47.6299  -22.2791    8.4529 C.3       5 UNK         0.0224 
     63 CB        -46.5019  -22.6853    9.4178 C.3       5 UNK        -0.1978 
     64 N         -47.3285  -22.7819    7.1100 N.am      5 UNK        -0.4737 
     65 C         -46.9694  -22.0082    6.0749 C.2       4 UNK         0.5027 
     66 O         -46.9161  -20.7789    6.1322 O.2       4 UNK        -0.5211 
     67 CA        -46.5619  -22.6950    4.7560 C.3       4 UNK         0.0297 
     68 CB        -45.0416  -22.5876    4.5476 C.3       4 UNK        -0.1993 
     69 N         -46.9439  -24.1049    4.6875 N.am      4 UNK        -0.4486 
     70 C         -48.1727  -24.5538    4.4033 C.2       3 UNK         0.4961 
     71 O         -49.1052  -23.8214    4.0726 O.2       3 UNK        -0.5105 
     72 CA        -48.4041  -26.0763    4.5003 C.3       3 UNK         0.0299 
     73 CB        -48.4770  -26.6965    3.0955 C.3       3 UNK        -0.1972 
     74 N         -47.4117  -26.8127    5.2975 N.am      3 UNK        -0.4305 
     75 C         -47.1589  -26.6147    6.5979 C.2       2 UNK         0.5006 
     76 O         -47.6660  -25.7142    7.2705 O.2       2 UNK        -0.5106 
     77 CA        -46.1310  -27.5407    7.2492 C.3       2 UNK         0.0296 
     78 CB        -44.7203  -26.9376    7.1493 C.3       2 UNK        -0.2002 
     79 N         -46.4988  -27.6757    8.6521 N.am      2 UNK        -0.4032 
     80 C         -46.5953  -28.8147    9.3409 C.2       1 UNK         0.5000 
     81 O         -46.2485  -29.9131    8.9023 O.2       1 UNK        -0.5238 
     82 H82       -45.4487  -24.5890   11.9535 H         1 UNK         0.0889 
     83 H83       -44.7845  -26.0603   12.6617 H         1 UNK         0.0889 
     84 H84       -46.2392  -25.3309   13.3484 H         1 UNK         0.0889 
     85 H85       -45.8578  -28.0803   12.2720 H         1 UNK         0.3028 
     86 H86       -46.9435  -29.6525   11.2622 H         1 UNK         0.0864 
     87 H87       -49.0637  -28.1940   11.7192 H         1 UNK         0.0720 
     88 H88       -49.0557  -27.8149   10.0226 H         1 UNK         0.0720 
     89 H89       -50.2384  -31.0216    8.3226 H         1 UNK         0.0814 
     90 H90       -49.2392  -29.6099    8.1233 H         1 UNK         0.0814 
     91 H91       -50.4071  -27.7617    7.1829 H         1 UNK         0.1469 
     92 H92       -54.6310  -27.2934    7.7277 H         1 UNK         0.1381 
     93 H93       -52.5721  -30.5001    9.6823 H         1 UNK         0.1206 
     94 H94       -55.0790  -30.5229    9.3082 H         1 UNK         0.0813 
     95 H95       -55.8972  -29.1067    8.7128 H         1 UNK         0.0813 
     96 H96       -55.4702  -26.7873    9.9178 H         1 UNK         0.0638 
     97 H97       -56.8841  -27.0508   10.9031 H         1 UNK         0.0638 
     98 H98       -54.0787  -26.3481   11.9312 H         1 UNK         0.0568 
     99 H99       -54.8407  -22.9458   11.3218 H         1 UNK         0.3450 
    100 H100      -53.6231  -24.2028   11.3901 H         1 UNK         0.3450 
    101 H101      -56.4340  -27.2317   13.3880 H         1 UNK         0.2987 
    102 H102      -55.9727  -25.9273   16.2796 H         1 UNK         0.0766 
    103 H103      -56.5703  -28.7002   15.0981 H         1 UNK         0.0798 
    104 H104      -57.2697  -28.0577   16.5775 H         1 UNK         0.0798 
    105 H105      -57.6375  -27.2921   15.0471 H         1 UNK         0.0798 
    106 H106      -54.1009  -28.2322   16.1832 H         1 UNK         0.3198 
    107 H107      -52.4435  -27.3639   18.6760 H         1 UNK         0.0843 
    108 H108      -53.8017  -27.4370   20.7085 H         1 UNK         0.0831 
    109 H109      -52.8363  -28.8997   20.6260 H         1 UNK         0.0831 
    110 H110      -54.5538  -28.9468   20.2266 H         1 UNK         0.0831 
    111 H111      -51.9372  -29.1420   17.5068 H         1 UNK         0.3133 
    112 H112      -52.1073  -31.9095   17.3585 H         1 UNK         0.0566 
    113 H113      -53.3286  -33.1309   15.5371 H         1 UNK         0.0814 
    114 H114      -54.2895  -33.0089   17.0011 H         1 UNK         0.0814 
    115 H115      -54.6445  -31.9619   15.6359 H         1 UNK         0.0814 
    116 H116      -51.1121  -30.8314   15.6918 H         1 UNK         0.3091 
    117 H117      -50.6619  -29.5665   13.9301 H         1 UNK         0.0702 
    118 H118      -51.4167  -28.3026   11.9049 H         1 UNK         0.0785 
    119 H119      -53.0625  -28.3203   12.5003 H         1 UNK         0.0785 
    120 H120      -52.2878  -29.8271   12.0375 H         1 UNK         0.0785 
    121 H121      -51.7919  -26.9351   14.0031 H         1 UNK         0.2998 
    122 H122      -51.7720  -25.7319   16.5895 H         1 UNK         0.0697 
    123 H123      -48.7227  -25.9318   16.8083 H         1 UNK         0.0825 
    124 H124      -49.7052  -24.6334   17.4850 H         1 UNK         0.0825 
    125 H125      -49.8801  -26.2723   18.0862 H         1 UNK         0.0825 
    126 H126      -51.4101  -24.3286   14.9341 H         1 UNK         0.3029 
    127 H127      -50.6918  -23.2967   13.2017 H         1 UNK         0.0897 
    128 H128      -48.6557  -22.0037   12.6564 H         1 UNK         0.0792 
    129 H129      -47.6279  -23.3276   13.1980 H         1 UNK         0.0792 
    130 H130      -48.6403  -22.4692   14.3507 H         1 UNK         0.0792 
    131 H131      -48.7294  -24.5239   11.3387 H         1 UNK         0.3086 
    132 H132      -50.1842  -25.8592    9.3201 H         1 UNK         0.0583 
    133 H133      -52.5177  -25.0801    8.8519 H         1 UNK         0.1020 
    134 H134      -51.9399  -23.4621    8.5708 H         1 UNK         0.1020 
    135 H135      -53.5251  -25.7482    6.3775 H         1 UNK         0.0694 
    136 H136      -52.3558  -26.5910    5.3927 H         1 UNK         0.0694 
    137 H137      -48.4840  -24.6938    8.5659 H         1 UNK         0.2989 
    138 H138      -47.6803  -21.1878    8.4484 H         1 UNK         0.1055 
    139 H139      -45.5741  -22.1677    9.1742 H         1 UNK         0.0806 
    140 H140      -46.3011  -23.7558    9.3779 H         1 UNK         0.0806 
    141 H141      -46.7525  -22.4343   10.4496 H         1 UNK         0.0806 
    142 H142      -47.4067  -23.7856    6.9734 H         1 UNK         0.3061 
    143 H143      -47.0552  -22.1581    3.9428 H         1 UNK         0.0734 
    144 H144      -44.7197  -21.5452    4.5509 H         1 UNK         0.0832 
    145 H145      -44.4882  -23.1007    5.3351 H         1 UNK         0.0832 
    146 H146      -44.7399  -23.0133    3.5904 H         1 UNK         0.0832 
    147 H147      -46.2388  -24.7817    4.9388 H         1 UNK         0.3156 
    148 H148      -49.3726  -26.2218    4.9808 H         1 UNK         0.0589 
    149 H149      -48.7490  -27.7513    3.1392 H         1 UNK         0.0808 
    150 H150      -49.2316  -26.1966    2.4863 H         1 UNK         0.0808 
    151 H151      -47.5259  -26.6139    2.5680 H         1 UNK         0.0808 
    152 H152      -46.9237  -27.5580    4.8207 H         1 UNK         0.3098 
    153 H153      -46.1571  -28.5115    6.7495 H         1 UNK         0.0720 
    154 H154      -43.9843  -27.5759    7.6385 H         1 UNK         0.0791 
    155 H155      -44.6684  -25.9522    7.6153 H         1 UNK         0.0791 
    156 H156      -44.4119  -26.8265    6.1091 H         1 UNK         0.0791 
    157 H157      -46.8478  -26.8275    9.0944 H         1 UNK         0.3028 
@<TRIPOS>BOND
     1    1    2 1    
     2    1   82 1    
     3    1   83 1    
     4    1   84 1    
     5    2    3 2    
     6    2    4 am   BACKBONE|DICT|INTERRES
     7    4    5 1    
     8    4   85 1    
     9    5    6 1    
    10    5   80 1    
    11    5   86 1    
    12    6    7 1    
    13    6   87 1    
    14    6   88 1    
    15    7    8 1    
    16    8    9 1    
    17    8   89 1    
    18    8   90 1    
    19    9   10 ar   
    20    9   14 ar   
    21   10   11 ar   
    22   10   91 1    
    23   11   12 ar   
    24   11   58 1    
    25   12   13 ar   
    26   12   92 1    
    27   13   14 ar   
    28   13   15 1    
    29   14   93 1    
    30   15   16 1    
    31   15   94 1    
    32   15   95 1    
    33   16   17 1    
    34   17   18 1    
    35   17   96 1    
    36   17   97 1    
    37   18   19 1    
    38   18   22 1    
    39   18   98 1    
    40   19   20 am   BACKBONE|DICT|INTERRES
    41   19   21 2    
    42   20   99 1    
    43   20  100 1    
    44   22   23 am   BACKBONE|DICT|INTERRES
    45   22  101 1    
    46   23   24 2    
    47   23   25 1    
    48   25   26 1    
    49   25   27 1    
    50   25  102 1    
    51   26  103 1    
    52   26  104 1    
    53   26  105 1    
    54   27   28 am   BACKBONE|DICT|INTERRES
    55   27  106 1    
    56   28   29 2    
    57   28   30 1    
    58   30   31 1    
    59   30   32 1    
    60   30  107 1    
    61   31  108 1    
    62   31  109 1    
    63   31  110 1    
    64   32   33 am   BACKBONE|DICT|INTERRES
    65   32  111 1    
    66   33   34 2    
    67   33   35 1    
    68   35   36 1    
    69   35   37 1    
    70   35  112 1    
    71   36  113 1    
    72   36  114 1    
    73   36  115 1    
    74   37   38 am   BACKBONE|DICT|INTERRES
    75   37  116 1    
    76   38   39 2    
    77   38   40 1    
    78   40   41 1    
    79   40   42 1    
    80   40  117 1    
    81   41  118 1    
    82   41  119 1    
    83   41  120 1    
    84   42   43 am   BACKBONE|DICT|INTERRES
    85   42  121 1    
    86   43   44 2    
    87   43   45 1    
    88   45   46 1    
    89   45   47 1    
    90   45  122 1    
    91   46  123 1    
    92   46  124 1    
    93   46  125 1    
    94   47   48 am   BACKBONE|DICT|INTERRES
    95   47  126 1    
    96   48   49 2    
    97   48   50 1    
    98   50   51 1    
    99   50   52 1    
   100   50  127 1    
   101   51  128 1    
   102   51  129 1    
   103   51  130 1    
   104   52   53 am   BACKBONE|DICT|INTERRES
   105   52  131 1    
   106   53   54 2    
   107   53   55 1    
   108   55   56 1    
   109   55   59 1    
   110   55  132 1    
   111   56   57 1    
   112   56  133 1    
   113   56  134 1    
   114   57   58 1    
   115   58  135 1    
   116   58  136 1    
   117   59   60 am   BACKBONE|DICT|INTERRES
   118   59  137 1    
   119   60   61 2    
   120   60   62 1    
   121   62   63 1    
   122   62   64 1    
   123   62  138 1    
   124   63  139 1    
   125   63  140 1    
   126   63  141 1    
   127   64   65 am   BACKBONE|DICT|INTERRES
   128   64  142 1    
   129   65   66 2    
   130   65   67 1    
   131   67   68 1    
   132   67   69 1    
   133   67  143 1    
   134   68  144 1    
   135   68  145 1    
   136   68  146 1    
   137   69   70 am   BACKBONE|DICT|INTERRES
   138   69  147 1    
   139   70   71 2    
   140   70   72 1    
   141   72   73 1    
   142   72   74 1    
   143   72  148 1    
   144   73  149 1    
   145   73  150 1    
   146   73  151 1    
   147   74   75 am   BACKBONE|DICT|INTERRES
   148   74  152 1    
   149   75   76 2    
   150   75   77 1    
   151   77   78 1    
   152   77   79 1    
   153   77  153 1    
   154   78  154 1    
   155   78  155 1    
   156   78  156 1    
   157   79   80 am   BACKBONE|DICT|INTERRES
   158   79  157 1    
   159   80   81 2    
@<TRIPOS>SUBSTRUCTURE
     1 UNK         1 GROUP             0       ****    0 ROOT    
