@<TRIPOS>MOLECULE
3R207
157   159    1
SMALL
USER_CHARGES


@<TRIPOS>ATOM
      1 CA        -51.3813  -22.4024    2.5217 C.3       0 UNK        -0.1975 
      2 C         -50.7114  -22.5765    3.8767 C.2       0 UNK         0.4852 
      3 O         -50.2544  -21.5950    4.4634 O.2       0 UNK        -0.5216 
      4 N         -50.6494  -23.8186    4.3764 N.am      1 UNK        -0.4461 
      5 CA        -50.0579  -24.1781    5.6727 C.3       1 UNK         0.0864 
      6 C6        -50.4423  -25.6154    6.1001 C.3       14 UNK        -0.0898 
      7 S7        -52.2461  -25.8644    6.2549 S.3       14 UNK        -0.2598 
      8 C8        -52.4800  -25.8946    8.0646 C.3       14 UNK         0.0286 
      9 C9        -52.3891  -27.2948    8.6715 C.ar      14 UNK        -0.0844 
     10 C10       -51.2630  -28.1020    8.4728 C.ar      14 UNK        -0.0881 
     11 C11       -51.1859  -29.3784    9.0342 C.ar      14 UNK        -0.0643 
     12 C12       -52.2463  -29.8519    9.8110 C.ar      14 UNK        -0.0930 
     13 C13       -53.3763  -29.0581   10.0277 C.ar      14 UNK        -0.0827 
     14 C14       -53.4401  -27.7822    9.4572 C.ar      14 UNK        -0.1249 
     15 C15       -54.5459  -29.6016   10.8365 C.3       14 UNK         0.0141 
     16 S16       -54.1364  -29.8048   12.5978 S.3       14 UNK        -0.2313 
     17 C17       -55.7057  -30.5275   13.1815 C.3       14 UNK        -0.0915 
     18 CA        -55.7727  -30.8174   14.7040 C.3       13 UNK         0.0968 
     19 C         -54.7126  -31.8573   15.1726 C.2       13 UNK         0.5732 
     20 N         -53.7978  -31.5144   16.0726 N.am      13 UNK        -0.7310 
     21 O         -54.7357  -33.0020   14.7261 O.2       13 UNK        -0.5035 
     22 N         -55.8198  -29.5829   15.5048 N.am      13 UNK        -0.4233 
     23 C         -56.4205  -29.4946   16.7009 C.2       13 UNK         0.4989 
     24 O         -57.0380  -30.4227   17.2253 O.2       13 UNK        -0.4996 
     25 CA        -56.3320  -28.1572   17.4505 C.3       12 UNK         0.0216 
     26 CB        -55.0909  -28.1313   18.3590 C.3       12 UNK        -0.1964 
     27 N         -56.2906  -27.0143   16.5375 N.am      12 UNK        -0.4276 
     28 C         -57.3546  -26.2829   16.1783 C.2       12 UNK         0.5020 
     29 O         -58.4979  -26.4978   16.5837 O.2       12 UNK        -0.5489 
     30 CA        -57.1175  -25.0916   15.2298 C.3       11 UNK         0.0294 
     31 CB        -57.1240  -23.7718   16.0189 C.3       11 UNK        -0.2019 
     32 N         -55.8666  -25.1858   14.4741 N.am      11 UNK        -0.4493 
     33 C         -55.6839  -25.9734   13.4061 C.2       11 UNK         0.4932 
     34 O         -56.5707  -26.6636   12.9036 O.2       11 UNK        -0.5029 
     35 CA        -54.2654  -26.0103   12.8088 C.3       10 UNK         0.0280 
     36 CB        -54.1332  -24.9467   11.7075 C.3       10 UNK        -0.1976 
     37 N         -53.1689  -25.8727   13.7832 N.am      10 UNK        -0.4242 
     38 C         -52.9979  -26.6465   14.8715 C.2       10 UNK         0.5072 
     39 O         -53.8138  -27.5003   15.2221 O.2       10 UNK        -0.5224 
     40 CA        -51.7439  -26.4392   15.7428 C.3       9 UNK         0.0343 
     41 CB        -51.1471  -27.7859   16.1923 C.3       9 UNK        -0.2003 
     42 N         -50.7088  -25.6849   15.0412 N.am      9 UNK        -0.4272 
     43 C         -50.2507  -24.4719   15.3831 C.2       9 UNK         0.4988 
     44 O         -50.6300  -23.8548   16.3790 O.2       9 UNK        -0.5108 
     45 CA        -49.1992  -23.8172   14.4600 C.3       8 UNK         0.0248 
     46 CB        -47.8036  -23.8867   15.1003 C.3       8 UNK        -0.2001 
     47 N         -49.1336  -24.3956   13.1144 N.am      8 UNK        -0.4140 
     48 C         -50.1490  -24.4225   12.2405 C.2       8 UNK         0.5028 
     49 O         -51.2333  -23.8767   12.4412 O.2       8 UNK        -0.5428 
     50 CA        -49.9554  -25.2717   10.9751 C.3       7 UNK         0.0264 
     51 CB        -49.3717  -24.4183    9.8402 C.3       7 UNK        -0.1988 
     52 N         -49.1183  -26.4562   11.1964 N.am      7 UNK        -0.4454 
     53 C         -49.4318  -27.4718   12.0188 C.2       7 UNK         0.5027 
     54 O         -50.4590  -27.5022   12.6947 O.2       7 UNK        -0.5083 
     55 CA        -48.4081  -28.6166   12.1643 C.3       6 UNK         0.0844 
     56 C56       -48.7548  -29.8412   11.2840 C.3       14 UNK        -0.0967 
     57 S57       -48.4482  -29.5842    9.5019 S.3       14 UNK        -0.2604 
     58 C58       -49.9711  -30.2554    8.7641 C.3       14 UNK         0.0134 
     59 N         -47.0357  -28.1500   11.9546 N.am      6 UNK        -0.4116 
     60 C         -46.3216  -27.4782   12.8657 C.2       5 UNK         0.5034 
     61 O         -46.7092  -27.2432   14.0101 O.2       5 UNK        -0.5045 
     62 CA        -44.9572  -26.9475   12.4032 C.3       5 UNK         0.0224 
     63 CB        -43.9268  -28.0843   12.3049 C.3       5 UNK        -0.1978 
     64 N         -45.0190  -26.2275   11.1271 N.am      5 UNK        -0.4737 
     65 C         -45.7054  -25.1007   10.9042 C.2       4 UNK         0.5027 
     66 O         -46.4525  -24.5873   11.7367 O.2       4 UNK        -0.5211 
     67 CA        -45.5295  -24.4213    9.5328 C.3       4 UNK         0.0297 
     68 CB        -44.1643  -23.7125    9.4428 C.3       4 UNK        -0.1993 
     69 N         -45.7620  -25.2791    8.3609 N.am      4 UNK        -0.4486 
     70 C         -45.0630  -26.3494    7.9460 C.2       3 UNK         0.4961 
     71 O         -44.1242  -26.8448    8.5707 O.2       3 UNK        -0.5105 
     72 CA        -45.4652  -26.9787    6.5969 C.3       3 UNK         0.0299 
     73 CB        -46.4066  -28.1711    6.8248 C.3       3 UNK        -0.1972 
     74 N         -46.1028  -26.0407    5.6696 N.am      3 UNK        -0.4305 
     75 C         -45.5258  -24.9514    5.1405 C.2       2 UNK         0.5006 
     76 O         -44.3358  -24.6702    5.2874 O.2       2 UNK        -0.5106 
     77 CA        -46.4227  -23.9981    4.3237 C.3       2 UNK         0.0296 
     78 CB        -46.1233  -24.1353    2.8215 C.3       2 UNK        -0.2002 
     79 N         -47.8693  -24.1505    4.5358 N.am      2 UNK        -0.4032 
     80 C         -48.5210  -24.0192    5.7029 C.2       1 UNK         0.5000 
     81 O         -47.9546  -23.8228    6.7803 O.2       1 UNK        -0.5238 
     82 H82       -51.7401  -23.3494    2.1189 H         1 UNK         0.0889 
     83 H83       -50.6782  -21.9745    1.8076 H         1 UNK         0.0889 
     84 H84       -52.2323  -21.7274    2.6086 H         1 UNK         0.0889 
     85 H85       -51.0742  -24.5805    3.8660 H         1 UNK         0.3028 
     86 H86       -50.4554  -23.4868    6.4194 H         1 UNK         0.0864 
     87 H87       -49.9642  -25.8523    7.0486 H         1 UNK         0.0720 
     88 H88       -50.0644  -26.3455    5.3817 H         1 UNK         0.0720 
     89 H89       -53.4587  -25.4609    8.2754 H         1 UNK         0.0814 
     90 H90       -51.7576  -25.2333    8.5385 H         1 UNK         0.0814 
     91 H91       -50.4375  -27.7573    7.8723 H         1 UNK         0.1469 
     92 H92       -52.2005  -30.8424   10.2426 H         1 UNK         0.1381 
     93 H93       -54.3171  -27.1709    9.6194 H         1 UNK         0.1206 
     94 H94       -54.8480  -30.5646   10.4225 H         1 UNK         0.0813 
     95 H95       -55.4115  -28.9426   10.7503 H         1 UNK         0.0813 
     96 H96       -55.8840  -31.4477   12.6222 H         1 UNK         0.0638 
     97 H97       -56.5164  -29.8510   12.9053 H         1 UNK         0.0638 
     98 H98       -56.7293  -31.3215   14.8545 H         1 UNK         0.0568 
     99 H99       -53.1214  -32.1971   16.3747 H         1 UNK         0.3450 
    100 H100      -53.7633  -30.5729   16.4269 H         1 UNK         0.3450 
    101 H101      -55.2497  -28.8103   15.1733 H         1 UNK         0.2987 
    102 H102      -57.2123  -28.0821   18.0927 H         1 UNK         0.0766 
    103 H103      -55.0452  -27.2095   18.9389 H         1 UNK         0.0798 
    104 H104      -54.1652  -28.2137   17.7896 H         1 UNK         0.0798 
    105 H105      -55.1108  -28.9591   19.0692 H         1 UNK         0.0798 
    106 H106      -55.3971  -26.8364   16.0889 H         1 UNK         0.3198 
    107 H107      -57.9496  -25.0685   14.5223 H         1 UNK         0.0843 
    108 H108      -56.3117  -23.7303   16.7458 H         1 UNK         0.0831 
    109 H109      -58.0585  -23.6512   16.5690 H         1 UNK         0.0831 
    110 H110      -57.0283  -22.9115   15.3562 H         1 UNK         0.0831 
    111 H111      -55.0834  -24.6432   14.8089 H         1 UNK         0.3133 
    112 H112      -54.1436  -26.9835   12.3358 H         1 UNK         0.0566 
    113 H113      -53.2251  -25.0938   11.1250 H         1 UNK         0.0814 
    114 H114      -54.9688  -24.9967   11.0078 H         1 UNK         0.0814 
    115 H115      -54.1105  -23.9373   12.1197 H         1 UNK         0.0814 
    116 H116      -52.4564  -25.1875   13.5559 H         1 UNK         0.3091 
    117 H117      -52.0717  -25.9000   16.6334 H         1 UNK         0.0702 
    118 H118      -50.2585  -27.6402   16.8065 H         1 UNK         0.0785 
    119 H119      -50.8675  -28.4046   15.3385 H         1 UNK         0.0785 
    120 H120      -51.8598  -28.3564   16.7886 H         1 UNK         0.0785 
    121 H121      -50.3686  -26.1208   14.1898 H         1 UNK         0.2998 
    122 H122      -49.4750  -22.7665   14.3505 H         1 UNK         0.0697 
    123 H123      -47.4750  -24.9177   15.2363 H         1 UNK         0.0825 
    124 H124      -47.7987  -23.4105   16.0817 H         1 UNK         0.0825 
    125 H125      -47.0591  -23.3764   14.4885 H         1 UNK         0.0825 
    126 H126      -48.2488  -24.8057   12.8337 H         1 UNK         0.3029 
    127 H127      -50.9375  -25.6369   10.6728 H         1 UNK         0.0897 
    128 H128      -49.0912  -25.0258    8.9821 H         1 UNK         0.0792 
    129 H129      -48.4895  -23.8675   10.1618 H         1 UNK         0.0792 
    130 H130      -50.0967  -23.6788    9.4987 H         1 UNK         0.0792 
    131 H131      -48.2408  -26.4954   10.7015 H         1 UNK         0.3086 
    132 H132      -48.4853  -28.9544   13.2005 H         1 UNK         0.0583 
    133 H133      -48.1526  -30.6941   11.6010 H         1 UNK         0.1020 
    134 H134      -49.7905  -30.1431   11.4514 H         1 UNK         0.1020 
    135 H135      -49.8288  -30.3379    7.6857 H         1 UNK         0.0694 
    136 H136      -50.1301  -31.2713    9.1292 H         1 UNK         0.0694 
    137 H137      -46.6398  -28.3131   11.0401 H         1 UNK         0.2989 
    138 H138      -44.6125  -26.2407   13.1615 H         1 UNK         0.1055 
    139 H139      -43.8618  -28.6361   13.2439 H         1 UNK         0.0806 
    140 H140      -42.9308  -27.6965   12.0898 H         1 UNK         0.0806 
    141 H141      -44.1821  -28.7992   11.5217 H         1 UNK         0.0806 
    142 H142      -44.4655  -26.5879   10.3514 H         1 UNK         0.3061 
    143 H143      -46.2896  -23.6418    9.4709 H         1 UNK         0.0734 
    144 H144      -44.0729  -23.1488    8.5142 H         1 UNK         0.0832 
    145 H145      -44.0377  -23.0064   10.2646 H         1 UNK         0.0832 
    146 H146      -43.3320  -24.4154    9.4896 H         1 UNK         0.0832 
    147 H147      -46.5171  -24.9597    7.7609 H         1 UNK         0.3156 
    148 H148      -44.5527  -27.3466    6.1233 H         1 UNK         0.0589 
    149 H149      -47.3601  -27.8559    7.2503 H         1 UNK         0.0808 
    150 H150      -46.6127  -28.6997    5.8940 H         1 UNK         0.0808 
    151 H151      -45.9652  -28.8935    7.5131 H         1 UNK         0.0808 
    152 H152      -47.0778  -26.1993    5.4666 H         1 UNK         0.3098 
    153 H153      -46.1611  -22.9836    4.6313 H         1 UNK         0.0720 
    154 H154      -46.6640  -23.3897    2.2381 H         1 UNK         0.0791 
    155 H155      -46.3959  -25.1218    2.4444 H         1 UNK         0.0791 
    156 H156      -45.0609  -23.9915    2.6187 H         1 UNK         0.0791 
    157 H157      -48.4256  -24.3211    3.7106 H         1 UNK         0.3028 
@<TRIPOS>BOND
     1    1    2 1    
     2    1   82 1    
     3    1   83 1    
     4    1   84 1    
     5    2    3 2    
     6    2    4 am   BACKBONE|DICT|INTERRES
     7    4    5 1    
     8    4   85 1    
     9    5    6 1    
    10    5   80 1    
    11    5   86 1    
    12    6    7 1    
    13    6   87 1    
    14    6   88 1    
    15    7    8 1    
    16    8    9 1    
    17    8   89 1    
    18    8   90 1    
    19    9   10 ar   
    20    9   14 ar   
    21   10   11 ar   
    22   10   91 1    
    23   11   12 ar   
    24   11   58 1    
    25   12   13 ar   
    26   12   92 1    
    27   13   14 ar   
    28   13   15 1    
    29   14   93 1    
    30   15   16 1    
    31   15   94 1    
    32   15   95 1    
    33   16   17 1    
    34   17   18 1    
    35   17   96 1    
    36   17   97 1    
    37   18   19 1    
    38   18   22 1    
    39   18   98 1    
    40   19   20 am   BACKBONE|DICT|INTERRES
    41   19   21 2    
    42   20   99 1    
    43   20  100 1    
    44   22   23 am   BACKBONE|DICT|INTERRES
    45   22  101 1    
    46   23   24 2    
    47   23   25 1    
    48   25   26 1    
    49   25   27 1    
    50   25  102 1    
    51   26  103 1    
    52   26  104 1    
    53   26  105 1    
    54   27   28 am   BACKBONE|DICT|INTERRES
    55   27  106 1    
    56   28   29 2    
    57   28   30 1    
    58   30   31 1    
    59   30   32 1    
    60   30  107 1    
    61   31  108 1    
    62   31  109 1    
    63   31  110 1    
    64   32   33 am   BACKBONE|DICT|INTERRES
    65   32  111 1    
    66   33   34 2    
    67   33   35 1    
    68   35   36 1    
    69   35   37 1    
    70   35  112 1    
    71   36  113 1    
    72   36  114 1    
    73   36  115 1    
    74   37   38 am   BACKBONE|DICT|INTERRES
    75   37  116 1    
    76   38   39 2    
    77   38   40 1    
    78   40   41 1    
    79   40   42 1    
    80   40  117 1    
    81   41  118 1    
    82   41  119 1    
    83   41  120 1    
    84   42   43 am   BACKBONE|DICT|INTERRES
    85   42  121 1    
    86   43   44 2    
    87   43   45 1    
    88   45   46 1    
    89   45   47 1    
    90   45  122 1    
    91   46  123 1    
    92   46  124 1    
    93   46  125 1    
    94   47   48 am   BACKBONE|DICT|INTERRES
    95   47  126 1    
    96   48   49 2    
    97   48   50 1    
    98   50   51 1    
    99   50   52 1    
   100   50  127 1    
   101   51  128 1    
   102   51  129 1    
   103   51  130 1    
   104   52   53 am   BACKBONE|DICT|INTERRES
   105   52  131 1    
   106   53   54 2    
   107   53   55 1    
   108   55   56 1    
   109   55   59 1    
   110   55  132 1    
   111   56   57 1    
   112   56  133 1    
   113   56  134 1    
   114   57   58 1    
   115   58  135 1    
   116   58  136 1    
   117   59   60 am   BACKBONE|DICT|INTERRES
   118   59  137 1    
   119   60   61 2    
   120   60   62 1    
   121   62   63 1    
   122   62   64 1    
   123   62  138 1    
   124   63  139 1    
   125   63  140 1    
   126   63  141 1    
   127   64   65 am   BACKBONE|DICT|INTERRES
   128   64  142 1    
   129   65   66 2    
   130   65   67 1    
   131   67   68 1    
   132   67   69 1    
   133   67  143 1    
   134   68  144 1    
   135   68  145 1    
   136   68  146 1    
   137   69   70 am   BACKBONE|DICT|INTERRES
   138   69  147 1    
   139   70   71 2    
   140   70   72 1    
   141   72   73 1    
   142   72   74 1    
   143   72  148 1    
   144   73  149 1    
   145   73  150 1    
   146   73  151 1    
   147   74   75 am   BACKBONE|DICT|INTERRES
   148   74  152 1    
   149   75   76 2    
   150   75   77 1    
   151   77   78 1    
   152   77   79 1    
   153   77  153 1    
   154   78  154 1    
   155   78  155 1    
   156   78  156 1    
   157   79   80 am   BACKBONE|DICT|INTERRES
   158   79  157 1    
   159   80   81 2    
@<TRIPOS>SUBSTRUCTURE
     1 UNK         1 GROUP             0       ****    0 ROOT    
