@<TRIPOS>MOLECULE
3R207
157   159    1
SMALL
USER_CHARGES


@<TRIPOS>ATOM
      1 CA        -50.8272  -30.4175    9.5701 C.3       0 UNK        -0.1975 
      2 C         -50.0247  -29.3327    8.8684 C.2       0 UNK         0.4852 
      3 O         -50.0635  -28.1763    9.2850 O.2       0 UNK        -0.5216 
      4 N         -49.2739  -29.7120    7.8254 N.am      1 UNK        -0.4461 
      5 CA        -48.4260  -28.8743    6.9599 C.3       1 UNK         0.0864 
      6 C6        -49.1924  -27.7478    6.2184 C.3       14 UNK        -0.0898 
      7 S7        -50.4157  -28.4401    5.0577 S.3       14 UNK        -0.2598 
      8 C8        -51.5231  -27.0137    4.7955 C.3       14 UNK         0.0286 
      9 C9        -52.4400  -26.6657    5.9696 C.ar      14 UNK        -0.0844 
     10 C10       -52.8833  -25.3464    6.1025 C.ar      14 UNK        -0.0881 
     11 C11       -53.7484  -24.9819    7.1378 C.ar      14 UNK        -0.0643 
     12 C12       -54.1876  -25.9506    8.0419 C.ar      14 UNK        -0.0930 
     13 C13       -53.7555  -27.2730    7.9260 C.ar      14 UNK        -0.0827 
     14 C14       -52.8861  -27.6262    6.8881 C.ar      14 UNK        -0.1249 
     15 C15       -54.2420  -28.3186    8.9166 C.3       14 UNK         0.0141 
     16 S16       -53.5802  -28.0132   10.5847 S.3       14 UNK        -0.2313 
     17 C17       -53.9866  -29.5860   11.4097 C.3       14 UNK        -0.0915 
     18 CA        -55.2301  -29.4847   12.3300 C.3       13 UNK         0.0968 
     19 C         -55.7549  -30.9102   12.6855 C.2       13 UNK         0.5732 
     20 N         -55.7131  -31.3656   13.9322 N.am      13 UNK        -0.7310 
     21 O         -56.2203  -31.6231   11.7993 O.2       13 UNK        -0.5035 
     22 N         -54.9799  -28.6017   13.4816 N.am      13 UNK        -0.4233 
     23 C         -55.9193  -28.1715   14.3344 C.2       13 UNK         0.4989 
     24 O         -57.1279  -28.3412   14.1611 O.2       13 UNK        -0.4996 
     25 CA        -55.4158  -27.4626   15.6091 C.3       12 UNK         0.0216 
     26 CB        -56.4845  -27.3883   16.7198 C.3       12 UNK        -0.1964 
     27 N         -54.1686  -28.0362   16.1359 N.am      12 UNK        -0.4276 
     28 C         -53.9501  -29.3124   16.4886 C.2       12 UNK         0.5020 
     29 O         -54.8009  -30.2007   16.4327 O.2       12 UNK        -0.5489 
     30 CA        -52.5317  -29.6686   16.9555 C.3       11 UNK         0.0294 
     31 CB        -51.6303  -29.9744   15.7490 C.3       11 UNK        -0.2019 
     32 N         -51.9230  -28.6158   17.7697 N.am      11 UNK        -0.4493 
     33 C         -52.2411  -28.3538   19.0428 C.2       11 UNK         0.4932 
     34 O         -53.0966  -28.9738   19.6751 O.2       11 UNK        -0.5029 
     35 CA        -51.4646  -27.2236   19.7438 C.3       10 UNK         0.0280 
     36 CB        -49.9939  -27.6207   19.9839 C.3       10 UNK        -0.1976 
     37 N         -51.5676  -25.9090   19.0943 N.am      10 UNK        -0.4242 
     38 C         -51.1358  -25.5372   17.8819 C.2       10 UNK         0.5072 
     39 O         -50.5703  -26.2867   17.0809 O.2       10 UNK        -0.5224 
     40 CA        -51.3466  -24.0630   17.5105 C.3       9 UNK         0.0343 
     41 CB        -50.0352  -23.2759   17.6634 C.3       9 UNK        -0.2003 
     42 N         -51.8126  -23.9580   16.1308 N.am      9 UNK        -0.4272 
     43 C         -53.0777  -24.1628   15.7420 C.2       9 UNK         0.4988 
     44 O         -54.0105  -24.3609   16.5203 O.2       9 UNK        -0.5108 
     45 CA        -53.3454  -24.1568   14.2284 C.3       8 UNK         0.0248 
     46 CB        -53.6729  -22.7371   13.7393 C.3       8 UNK        -0.2001 
     47 N         -52.2182  -24.6847   13.4610 N.am      8 UNK        -0.4140 
     48 C         -51.8625  -25.9738   13.3890 C.2       8 UNK         0.5028 
     49 O         -52.4792  -26.8825   13.9503 O.2       8 UNK        -0.5428 
     50 CA        -50.6251  -26.2840   12.5196 C.3       7 UNK         0.0264 
     51 CB        -50.2799  -27.7831   12.5047 C.3       7 UNK        -0.1988 
     52 N         -50.7930  -25.7956   11.1424 N.am      7 UNK        -0.4454 
     53 C         -50.6768  -24.5100   10.7786 C.2       7 UNK         0.5027 
     54 O         -50.3226  -23.6218   11.5595 O.2       7 UNK        -0.5083 
     55 CA        -51.0997  -24.1102    9.3509 C.3       6 UNK         0.0844 
     56 C56       -52.3515  -23.1891    9.4157 C.3       14 UNK        -0.0967 
     57 S57       -52.8204  -22.4648    7.8035 S.3       14 UNK        -0.2604 
     58 C58       -54.1957  -23.5374    7.2884 C.3       14 UNK         0.0134 
     59 N         -49.9893  -23.4642    8.6490 N.am      6 UNK        -0.4116 
     60 C         -48.8709  -24.0816    8.2582 C.2       5 UNK         0.5034 
     61 O         -48.6430  -25.2736    8.4628 O.2       5 UNK        -0.5045 
     62 CA        -47.8455  -23.2174    7.5098 C.3       5 UNK         0.0224 
     63 CB        -47.1090  -22.2786    8.4810 C.3       5 UNK        -0.1978 
     64 N         -46.8640  -24.0870    6.8640 N.am      5 UNK        -0.4737 
     65 C         -46.7450  -24.2820    5.5450 C.2       4 UNK         0.5027 
     66 O         -47.4005  -23.6579    4.7095 O.2       4 UNK        -0.5211 
     67 CA        -45.7642  -25.3732    5.0621 C.3       4 UNK         0.0297 
     68 CB        -44.9936  -24.9547    3.7916 C.3       4 UNK        -0.1993 
     69 N         -44.8571  -25.8740    6.1029 N.am      4 UNK        -0.4486 
     70 C         -43.8639  -25.2139    6.7205 C.2       3 UNK         0.4961 
     71 O         -43.5063  -24.0728    6.4248 O.2       3 UNK        -0.5105 
     72 CA        -43.1742  -25.9575    7.8862 C.3       3 UNK         0.0299 
     73 CB        -42.4387  -25.0040    8.8522 C.3       3 UNK        -0.1972 
     74 N         -44.0883  -26.8427    8.6236 N.am      3 UNK        -0.4305 
     75 C         -45.2240  -26.4878    9.2446 C.2       2 UNK         0.5006 
     76 O         -45.6190  -25.3265    9.3432 O.2       2 UNK        -0.5106 
     77 CA        -46.0798  -27.6365    9.8070 C.3       2 UNK         0.0296 
     78 CB        -46.6293  -27.2907   11.2014 C.3       2 UNK        -0.2002 
     79 N         -47.1985  -28.0061    8.9310 N.am      2 UNK        -0.4032 
     80 C         -47.1351  -28.3649    7.6408 C.2       1 UNK         0.5000 
     81 O         -46.0902  -28.3642    6.9851 O.2       1 UNK        -0.5238 
     82 H82       -50.5032  -31.4164    9.2792 H         1 UNK         0.0889 
     83 H83       -51.8822  -30.3172    9.3235 H         1 UNK         0.0889 
     84 H84       -50.7182  -30.3295   10.6503 H         1 UNK         0.0889 
     85 H85       -49.2805  -30.6891    7.5682 H         1 UNK         0.3028 
     86 H86       -48.0682  -29.5624    6.1918 H         1 UNK         0.0864 
     87 H87       -49.6983  -27.0881    6.9238 H         1 UNK         0.0720 
     88 H88       -48.5090  -27.1193    5.6457 H         1 UNK         0.0720 
     89 H89       -52.1505  -27.2247    3.9288 H         1 UNK         0.0814 
     90 H90       -50.9103  -26.1510    4.5282 H         1 UNK         0.0814 
     91 H91       -52.5504  -24.5922    5.4023 H         1 UNK         0.1469 
     92 H92       -54.8566  -25.6771    8.8464 H         1 UNK         0.1381 
     93 H93       -52.5625  -28.6532    6.7962 H         1 UNK         0.1206 
     94 H94       -55.3321  -28.3090    8.9547 H         1 UNK         0.0813 
     95 H95       -53.9535  -29.3149    8.5800 H         1 UNK         0.0813 
     96 H96       -53.1170  -29.9032   11.9878 H         1 UNK         0.0638 
     97 H97       -54.1255  -30.3512   10.6441 H         1 UNK         0.0638 
     98 H98       -56.0311  -29.0224   11.7502 H         1 UNK         0.0568 
     99 H99       -56.0652  -32.2898   14.1217 H         1 UNK         0.3450 
    100 H100      -55.3632  -30.8003   14.7003 H         1 UNK         0.3450 
    101 H101      -54.0146  -28.3471   13.6590 H         1 UNK         0.2987 
    102 H102      -55.1849  -26.4426   15.3090 H         1 UNK         0.0766 
    103 H103      -57.3727  -26.8573   16.3754 H         1 UNK         0.0798 
    104 H104      -56.1086  -26.8544   17.5927 H         1 UNK         0.0798 
    105 H105      -56.8014  -28.3805   17.0429 H         1 UNK         0.0798 
    106 H106      -53.3703  -27.4145   16.1253 H         1 UNK         0.3198 
    107 H107      -52.6021  -30.5737   17.5631 H         1 UNK         0.0843 
    108 H108      -51.4987  -29.0987   15.1141 H         1 UNK         0.0831 
    109 H109      -52.0595  -30.7638   15.1301 H         1 UNK         0.0831 
    110 H110      -50.6431  -30.3108   16.0656 H         1 UNK         0.0831 
    111 H111      -51.2465  -27.9979   17.3244 H         1 UNK         0.3133 
    112 H112      -51.9239  -27.0965   20.7256 H         1 UNK         0.0566 
    113 H113      -49.4727  -26.8676   20.5748 H         1 UNK         0.0814 
    114 H114      -49.4438  -27.7519   19.0516 H         1 UNK         0.0814 
    115 H115      -49.9300  -28.5621   20.5313 H         1 UNK         0.0814 
    116 H116      -52.0407  -25.2073   19.6478 H         1 UNK         0.3091 
    117 H117      -52.0943  -23.6219   18.1737 H         1 UNK         0.0702 
    118 H118      -50.1722  -22.2239   17.4117 H         1 UNK         0.0785 
    119 H119      -49.2466  -23.6746   17.0234 H         1 UNK         0.0785 
    120 H120      -49.6725  -23.3181   18.6913 H         1 UNK         0.0785 
    121 H121      -51.1030  -23.8529   15.4213 H         1 UNK         0.2998 
    122 H122      -54.2130  -24.7888   14.0334 H         1 UNK         0.0697 
    123 H123      -54.5262  -22.3260   14.2807 H         1 UNK         0.0825 
    124 H124      -53.9303  -22.7322   12.6799 H         1 UNK         0.0825 
    125 H125      -52.8348  -22.0542   13.8842 H         1 UNK         0.0825 
    126 H126      -51.6496  -24.0188   12.9463 H         1 UNK         0.3029 
    127 H127      -49.7776  -25.7641   12.9716 H         1 UNK         0.0897 
    128 H128      -51.1076  -28.3856   12.1337 H         1 UNK         0.0792 
    129 H129      -50.0395  -28.1359   13.5076 H         1 UNK         0.0792 
    130 H130      -49.4146  -27.9857   11.8771 H         1 UNK         0.0792 
    131 H131      -51.0395  -26.4918   10.4461 H         1 UNK         0.3086 
    132 H132      -51.3612  -25.0157    8.7986 H         1 UNK         0.0583 
    133 H133      -53.2014  -23.7332    9.8319 H         1 UNK         0.1020 
    134 H134      -52.1778  -22.3519   10.0952 H         1 UNK         0.1020 
    135 H135      -55.0105  -23.4505    8.0090 H         1 UNK         0.0694 
    136 H136      -54.5881  -23.1796    6.3355 H         1 UNK         0.0694 
    137 H137      -50.1062  -22.4807    8.4574 H         1 UNK         0.2989 
    138 H138      -48.3775  -22.6176    6.7680 H         1 UNK         0.1055 
    139 H139      -46.6142  -22.8317    9.2804 H         1 UNK         0.0806 
    140 H140      -47.7978  -21.5754    8.9504 H         1 UNK         0.0806 
    141 H141      -46.3502  -21.6914    7.9635 H         1 UNK         0.0806 
    142 H142      -46.3417  -24.6776    7.5040 H         1 UNK         0.3061 
    143 H143      -46.3873  -26.2263    4.7911 H         1 UNK         0.0734 
    144 H144      -44.4127  -24.0457    3.9486 H         1 UNK         0.0832 
    145 H145      -44.3113  -25.7387    3.4634 H         1 UNK         0.0832 
    146 H146      -45.6792  -24.7585    2.9665 H         1 UNK         0.0832 
    147 H147      -45.0891  -26.8028    6.4506 H         1 UNK         0.3156 
    148 H148      -42.4252  -26.6053    7.4286 H         1 UNK         0.0589 
    149 H149      -41.9539  -25.5526    9.6597 H         1 UNK         0.0808 
    150 H150      -41.6617  -24.4423    8.3322 H         1 UNK         0.0808 
    151 H151      -43.1183  -24.2782    9.3001 H         1 UNK         0.0808 
    152 H152      -43.8785  -27.8300    8.5597 H         1 UNK         0.3098 
    153 H153      -45.4427  -28.5166    9.9116 H         1 UNK         0.0720 
    154 H154      -45.8348  -26.9405   11.8617 H         1 UNK         0.0791 
    155 H155      -47.0787  -28.1633   11.6744 H         1 UNK         0.0791 
    156 H156      -47.3840  -26.5038   11.1511 H         1 UNK         0.0791 
    157 H157      -48.1323  -27.9443    9.3280 H         1 UNK         0.3028 
@<TRIPOS>BOND
     1    1    2 1    
     2    1   82 1    
     3    1   83 1    
     4    1   84 1    
     5    2    3 2    
     6    2    4 am   BACKBONE|DICT|INTERRES
     7    4    5 1    
     8    4   85 1    
     9    5    6 1    
    10    5   80 1    
    11    5   86 1    
    12    6    7 1    
    13    6   87 1    
    14    6   88 1    
    15    7    8 1    
    16    8    9 1    
    17    8   89 1    
    18    8   90 1    
    19    9   10 ar   
    20    9   14 ar   
    21   10   11 ar   
    22   10   91 1    
    23   11   12 ar   
    24   11   58 1    
    25   12   13 ar   
    26   12   92 1    
    27   13   14 ar   
    28   13   15 1    
    29   14   93 1    
    30   15   16 1    
    31   15   94 1    
    32   15   95 1    
    33   16   17 1    
    34   17   18 1    
    35   17   96 1    
    36   17   97 1    
    37   18   19 1    
    38   18   22 1    
    39   18   98 1    
    40   19   20 am   BACKBONE|DICT|INTERRES
    41   19   21 2    
    42   20   99 1    
    43   20  100 1    
    44   22   23 am   BACKBONE|DICT|INTERRES
    45   22  101 1    
    46   23   24 2    
    47   23   25 1    
    48   25   26 1    
    49   25   27 1    
    50   25  102 1    
    51   26  103 1    
    52   26  104 1    
    53   26  105 1    
    54   27   28 am   BACKBONE|DICT|INTERRES
    55   27  106 1    
    56   28   29 2    
    57   28   30 1    
    58   30   31 1    
    59   30   32 1    
    60   30  107 1    
    61   31  108 1    
    62   31  109 1    
    63   31  110 1    
    64   32   33 am   BACKBONE|DICT|INTERRES
    65   32  111 1    
    66   33   34 2    
    67   33   35 1    
    68   35   36 1    
    69   35   37 1    
    70   35  112 1    
    71   36  113 1    
    72   36  114 1    
    73   36  115 1    
    74   37   38 am   BACKBONE|DICT|INTERRES
    75   37  116 1    
    76   38   39 2    
    77   38   40 1    
    78   40   41 1    
    79   40   42 1    
    80   40  117 1    
    81   41  118 1    
    82   41  119 1    
    83   41  120 1    
    84   42   43 am   BACKBONE|DICT|INTERRES
    85   42  121 1    
    86   43   44 2    
    87   43   45 1    
    88   45   46 1    
    89   45   47 1    
    90   45  122 1    
    91   46  123 1    
    92   46  124 1    
    93   46  125 1    
    94   47   48 am   BACKBONE|DICT|INTERRES
    95   47  126 1    
    96   48   49 2    
    97   48   50 1    
    98   50   51 1    
    99   50   52 1    
   100   50  127 1    
   101   51  128 1    
   102   51  129 1    
   103   51  130 1    
   104   52   53 am   BACKBONE|DICT|INTERRES
   105   52  131 1    
   106   53   54 2    
   107   53   55 1    
   108   55   56 1    
   109   55   59 1    
   110   55  132 1    
   111   56   57 1    
   112   56  133 1    
   113   56  134 1    
   114   57   58 1    
   115   58  135 1    
   116   58  136 1    
   117   59   60 am   BACKBONE|DICT|INTERRES
   118   59  137 1    
   119   60   61 2    
   120   60   62 1    
   121   62   63 1    
   122   62   64 1    
   123   62  138 1    
   124   63  139 1    
   125   63  140 1    
   126   63  141 1    
   127   64   65 am   BACKBONE|DICT|INTERRES
   128   64  142 1    
   129   65   66 2    
   130   65   67 1    
   131   67   68 1    
   132   67   69 1    
   133   67  143 1    
   134   68  144 1    
   135   68  145 1    
   136   68  146 1    
   137   69   70 am   BACKBONE|DICT|INTERRES
   138   69  147 1    
   139   70   71 2    
   140   70   72 1    
   141   72   73 1    
   142   72   74 1    
   143   72  148 1    
   144   73  149 1    
   145   73  150 1    
   146   73  151 1    
   147   74   75 am   BACKBONE|DICT|INTERRES
   148   74  152 1    
   149   75   76 2    
   150   75   77 1    
   151   77   78 1    
   152   77   79 1    
   153   77  153 1    
   154   78  154 1    
   155   78  155 1    
   156   78  156 1    
   157   79   80 am   BACKBONE|DICT|INTERRES
   158   79  157 1    
   159   80   81 2    
@<TRIPOS>SUBSTRUCTURE
     1 UNK         1 GROUP             0       ****    0 ROOT    
