@<TRIPOS>MOLECULE
3R207
157   159    1
SMALL
USER_CHARGES


@<TRIPOS>ATOM
      1 CA        -48.2990  -29.8626    0.1492 C.3       0 UNK        -0.1975 
      2 C         -48.6025  -29.5972    1.6168 C.2       0 UNK         0.4852 
      3 O         -49.0292  -30.5114    2.3237 O.2       0 UNK        -0.5216 
      4 N         -48.3898  -28.3532    2.0701 N.am      1 UNK        -0.4461 
      5 CA        -48.5666  -27.8884    3.4522 C.3       1 UNK         0.0864 
      6 C6        -50.0431  -27.9947    3.9363 C.3       14 UNK        -0.0898 
      7 S7        -50.4609  -26.8073    5.2578 S.3       14 UNK        -0.2598 
      8 C8        -52.1089  -27.4170    5.7210 C.3       14 UNK         0.0286 
      9 C9        -52.5427  -26.8504    7.0620 C.ar      14 UNK        -0.0844 
     10 C10       -53.2046  -25.6208    7.1323 C.ar      14 UNK        -0.0881 
     11 C11       -53.6078  -25.1001    8.3667 C.ar      14 UNK        -0.0643 
     12 C12       -53.3720  -25.8404    9.5296 C.ar      14 UNK        -0.0930 
     13 C13       -52.6716  -27.0472    9.4753 C.ar      14 UNK        -0.0827 
     14 C14       -52.2688  -27.5543    8.2378 C.ar      14 UNK        -0.1249 
     15 C15       -52.2790  -27.7603   10.7577 C.3       14 UNK         0.0141 
     16 S16       -53.5713  -28.8836   11.3573 S.3       14 UNK        -0.2313 
     17 C17       -52.5853  -29.8420   12.5542 C.3       14 UNK        -0.0915 
     18 CA        -53.4524  -30.5832   13.6030 C.3       13 UNK         0.0968 
     19 C         -52.6162  -31.6305   14.3992 C.2       13 UNK         0.5732 
     20 N         -52.5942  -31.6219   15.7271 N.am      13 UNK        -0.7310 
     21 O         -51.9785  -32.4891   13.7947 O.2       13 UNK        -0.5035 
     22 N         -54.1995  -29.6428   14.4523 N.am      13 UNK        -0.4233 
     23 C         -55.3733  -29.9282   15.0306 C.2       13 UNK         0.4989 
     24 O         -55.9969  -30.9719   14.8271 O.2       13 UNK        -0.4996 
     25 CA        -55.9365  -28.8797   16.0112 C.3       12 UNK         0.0216 
     26 CB        -57.0442  -29.4459   16.9244 C.3       12 UNK        -0.1964 
     27 N         -54.9025  -28.2158   16.8146 N.am      12 UNK        -0.4276 
     28 C         -53.9987  -28.7938   17.6236 C.2       12 UNK         0.5020 
     29 O         -53.9275  -30.0107   17.7981 O.2       12 UNK        -0.5489 
     30 CA        -52.9750  -27.8837   18.3303 C.3       11 UNK         0.0294 
     31 CB        -51.5392  -28.3875   18.0951 C.3       11 UNK        -0.2019 
     32 N         -53.0642  -26.4972   17.8718 N.am      11 UNK        -0.4493 
     33 C         -53.7504  -25.5202   18.4803 C.2       11 UNK         0.4932 
     34 O         -54.3191  -25.6539   19.5635 O.2       11 UNK        -0.5029 
     35 CA        -53.8456  -24.1700   17.7425 C.3       10 UNK         0.0280 
     36 CB        -52.7923  -23.1898   18.2818 C.3       10 UNK        -0.1976 
     37 N         -53.6925  -24.2844   16.2884 N.am      10 UNK        -0.4242 
     38 C         -54.5274  -24.9457   15.4714 C.2       10 UNK         0.5072 
     39 O         -55.5686  -25.4818   15.8485 O.2       10 UNK        -0.5224 
     40 CA        -54.0849  -25.1064   14.0060 C.3       9 UNK         0.0343 
     41 CB        -54.6417  -23.9525   13.1581 C.3       9 UNK        -0.2003 
     42 N         -52.6243  -25.1847   13.8705 N.am      9 UNK        -0.4272 
     43 C         -51.8767  -26.1806   14.3773 C.2       9 UNK         0.4988 
     44 O         -52.3684  -27.1717   14.9202 O.2       9 UNK        -0.5108 
     45 CA        -50.3421  -26.0468   14.3258 C.3       8 UNK         0.0248 
     46 CB        -49.6873  -27.2457   13.6206 C.3       8 UNK        -0.2001 
     47 N         -49.8886  -24.8033   13.6976 N.am      8 UNK        -0.4140 
     48 C         -49.7560  -23.6309   14.3394 C.2       8 UNK         0.5028 
     49 O         -49.9758  -23.4860   15.5420 O.2       8 UNK        -0.5428 
     50 CA        -49.3651  -22.4017   13.4941 C.3       7 UNK         0.0264 
     51 CB        -47.8429  -22.1965   13.5085 C.3       7 UNK        -0.1988 
     52 N         -49.8509  -22.4997   12.1122 N.am      7 UNK        -0.4454 
     53 C         -51.1565  -22.4636   11.7975 C.2       7 UNK         0.5027 
     54 O         -52.0239  -22.1630   12.6168 O.2       7 UNK        -0.5083 
     55 CA        -51.6091  -22.9187   10.3930 C.3       6 UNK         0.0844 
     56 C56       -52.4896  -21.8620    9.6833 C.3       14 UNK        -0.0967 
     57 S57       -53.1124  -22.3831    8.0431 S.3       14 UNK        -0.2604 
     58 C58       -54.2799  -23.7334    8.4353 C.3       14 UNK         0.0134 
     59 N         -50.5426  -23.4498    9.5404 N.am      6 UNK        -0.4116 
     60 C         -49.8880  -24.5965    9.7597 C.2       5 UNK         0.5034 
     61 O         -50.0532  -25.2873   10.7683 O.2       5 UNK        -0.5045 
     62 CA        -48.8379  -25.0302    8.7182 C.3       5 UNK         0.0224 
     63 CB        -48.5762  -23.9936    7.6030 C.3       5 UNK        -0.1978 
     64 N         -47.5766  -25.4151    9.3627 N.am      5 UNK        -0.4737 
     65 C         -46.8622  -24.6935   10.2402 C.2       4 UNK         0.5027 
     66 O         -47.1379  -23.5395   10.5704 O.2       4 UNK        -0.5211 
     67 CA        -45.6516  -25.3928   10.8811 C.3       4 UNK         0.0297 
     68 CB        -46.0796  -26.1029   12.1763 C.3       4 UNK        -0.1993 
     69 N         -45.0269  -26.3663    9.9808 N.am      4 UNK        -0.4486 
     70 C         -44.1775  -26.0429    8.9957 C.2       3 UNK         0.4961 
     71 O         -43.7588  -24.9026    8.7937 O.2       3 UNK        -0.5105 
     72 CA        -43.7318  -27.1873    8.0664 C.3       3 UNK         0.0299 
     73 CB        -42.5532  -27.9584    8.6825 C.3       3 UNK        -0.1972 
     74 N         -44.8109  -28.1236    7.7258 N.am      3 UNK        -0.4305 
     75 C         -45.9179  -27.7902    7.0474 C.2       2 UNK         0.5006 
     76 O         -46.1649  -26.6460    6.6613 O.2       2 UNK        -0.5106 
     77 CA        -46.9369  -28.9165    6.7979 C.3       2 UNK         0.0296 
     78 CB        -47.7696  -29.1853    8.0642 C.3       2 UNK        -0.2002 
     79 N         -47.8476  -28.5705    5.7063 N.am      2 UNK        -0.4032 
     80 C         -47.5218  -28.5185    4.4088 C.2       1 UNK         0.5000 
     81 O         -46.4340  -28.9029    3.9674 O.2       1 UNK        -0.5238 
     82 H82       -47.5190  -30.6191    0.0594 H         1 UNK         0.0889 
     83 H83       -47.9612  -28.9634   -0.3676 H         1 UNK         0.0889 
     84 H84       -49.1915  -30.2299   -0.3584 H         1 UNK         0.0889 
     85 H85       -48.0091  -27.6642    1.4363 H         1 UNK         0.3028 
     86 H86       -48.3110  -26.8280    3.4170 H         1 UNK         0.0864 
     87 H87       -50.7195  -27.7881    3.1052 H         1 UNK         0.0720 
     88 H88       -50.2740  -29.0111    4.2611 H         1 UNK         0.0720 
     89 H89       -52.1015  -28.5071    5.7688 H         1 UNK         0.0814 
     90 H90       -52.8268  -27.1482    4.9447 H         1 UNK         0.0814 
     91 H91       -53.3910  -25.0581    6.2276 H         1 UNK         0.1469 
     92 H92       -53.6916  -25.4623   10.4887 H         1 UNK         0.1381 
     93 H93       -51.7279  -28.4897    8.1913 H         1 UNK         0.1206 
     94 H94       -51.3531  -28.3156   10.5999 H         1 UNK         0.0813 
     95 H95       -52.0656  -27.0240   11.5317 H         1 UNK         0.0813 
     96 H96       -51.9840  -30.5463   11.9768 H         1 UNK         0.0638 
     97 H97       -51.8818  -29.1783   13.0561 H         1 UNK         0.0638 
     98 H98       -54.1769  -31.1768   13.0427 H         1 UNK         0.0568 
     99 H99       -53.1384  -30.9590   16.2686 H         1 UNK         0.3450 
    100 H100      -52.0477  -32.3190   16.2059 H         1 UNK         0.3450 
    101 H101      -53.7233  -28.7774   14.6814 H         1 UNK         0.2987 
    102 H102      -56.3865  -28.1032   15.3914 H         1 UNK         0.0766 
    103 H103      -56.6772  -30.2652   17.5433 H         1 UNK         0.0798 
    104 H104      -57.4425  -28.6773   17.5868 H         1 UNK         0.0798 
    105 H105      -57.8794  -29.8294   16.3378 H         1 UNK         0.0798 
    106 H106      -54.8853  -27.2059   16.7225 H         1 UNK         0.3198 
    107 H107      -53.1825  -27.9362   19.4011 H         1 UNK         0.0843 
    108 H108      -51.4063  -29.3928   18.4965 H         1 UNK         0.0831 
    109 H109      -50.8078  -27.7466   18.5870 H         1 UNK         0.0831 
    110 H110      -51.2912  -28.4283   17.0340 H         1 UNK         0.0831 
    111 H111      -52.6555  -26.3126   16.9650 H         1 UNK         0.3133 
    112 H112      -54.8357  -23.7557   17.9422 H         1 UNK         0.0566 
    113 H113      -52.9032  -22.2018   17.8350 H         1 UNK         0.0814 
    114 H114      -52.8884  -23.0676   19.3617 H         1 UNK         0.0814 
    115 H115      -51.7774  -23.5362   18.0813 H         1 UNK         0.0814 
    116 H116      -52.8592  -23.8746   15.8897 H         1 UNK         0.3091 
    117 H117      -54.5033  -26.0423   13.6283 H         1 UNK         0.0702 
    118 H118      -54.3103  -24.0100   12.1233 H         1 UNK         0.0785 
    119 H119      -54.3419  -22.9805   13.5511 H         1 UNK         0.0785 
    120 H120      -55.7321  -23.9721   13.1495 H         1 UNK         0.0785 
    121 H121      -52.1617  -24.3862   13.4592 H         1 UNK         0.2998 
    122 H122      -50.0008  -26.0603   15.3629 H         1 UNK         0.0697 
    123 H123      -49.9534  -27.2988   12.5660 H         1 UNK         0.0825 
    124 H124      -49.9842  -28.1858   14.0864 H         1 UNK         0.0825 
    125 H125      -48.6013  -27.1908   13.6863 H         1 UNK         0.0825 
    126 H126      -49.7397  -24.8414   12.6927 H         1 UNK         0.3029 
    127 H127      -49.8264  -21.5245   13.9536 H         1 UNK         0.0897 
    128 H128      -47.5482  -21.3440   12.8965 H         1 UNK         0.0792 
    129 H129      -47.4885  -22.0069   14.5223 H         1 UNK         0.0792 
    130 H130      -47.3115  -23.0737   13.1412 H         1 UNK         0.0792 
    131 H131      -49.1743  -22.7656   11.4060 H         1 UNK         0.3086 
    132 H132      -52.2627  -23.7571   10.6134 H         1 UNK         0.0583 
    133 H133      -53.3487  -21.5994   10.3042 H         1 UNK         0.1020 
    134 H134      -51.9267  -20.9369    9.5476 H         1 UNK         0.1020 
    135 H135      -54.7313  -23.5633    9.4139 H         1 UNK         0.0694 
    136 H136      -55.0978  -23.7074    7.7140 H         1 UNK         0.0694 
    137 H137      -50.3453  -22.9305    8.6980 H         1 UNK         0.2989 
    138 H138      -49.2416  -25.9281    8.2474 H         1 UNK         0.1055 
    139 H139      -47.8368  -24.3677    6.8946 H         1 UNK         0.0806 
    140 H140      -48.2012  -23.0489    7.9987 H         1 UNK         0.0806 
    141 H141      -49.4815  -23.7884    7.0298 H         1 UNK         0.0806 
    142 H142      -47.2481  -26.3447    9.1544 H         1 UNK         0.3061 
    143 H143      -44.9202  -24.6237   11.1395 H         1 UNK         0.0734 
    144 H144      -46.5452  -25.4037   12.8716 H         1 UNK         0.0832 
    145 H145      -46.8023  -26.8960   11.9826 H         1 UNK         0.0832 
    146 H146      -45.2246  -26.5442   12.6881 H         1 UNK         0.0832 
    147 H147      -45.2889  -27.3348   10.0914 H         1 UNK         0.3156 
    148 H148      -43.3867  -26.7344    7.1345 H         1 UNK         0.0589 
    149 H149      -42.8377  -28.4692    9.6031 H         1 UNK         0.0808 
    150 H150      -42.1617  -28.7046    7.9909 H         1 UNK         0.0808 
    151 H151      -41.7312  -27.2836    8.9258 H         1 UNK         0.0808 
    152 H152      -44.6838  -29.0851    8.0086 H         1 UNK         0.3098 
    153 H153      -46.3952  -29.8248    6.5257 H         1 UNK         0.0720 
    154 H154      -48.4715  -30.0046    7.9064 H         1 UNK         0.0791 
    155 H155      -48.3458  -28.3103    8.3665 H         1 UNK         0.0791 
    156 H156      -47.1348  -29.4670    8.9052 H         1 UNK         0.0791 
    157 H157      -48.7400  -28.1738    5.9695 H         1 UNK         0.3028 
@<TRIPOS>BOND
     1    1    2 1    
     2    1   82 1    
     3    1   83 1    
     4    1   84 1    
     5    2    3 2    
     6    2    4 am   BACKBONE|DICT|INTERRES
     7    4    5 1    
     8    4   85 1    
     9    5    6 1    
    10    5   80 1    
    11    5   86 1    
    12    6    7 1    
    13    6   87 1    
    14    6   88 1    
    15    7    8 1    
    16    8    9 1    
    17    8   89 1    
    18    8   90 1    
    19    9   10 ar   
    20    9   14 ar   
    21   10   11 ar   
    22   10   91 1    
    23   11   12 ar   
    24   11   58 1    
    25   12   13 ar   
    26   12   92 1    
    27   13   14 ar   
    28   13   15 1    
    29   14   93 1    
    30   15   16 1    
    31   15   94 1    
    32   15   95 1    
    33   16   17 1    
    34   17   18 1    
    35   17   96 1    
    36   17   97 1    
    37   18   19 1    
    38   18   22 1    
    39   18   98 1    
    40   19   20 am   BACKBONE|DICT|INTERRES
    41   19   21 2    
    42   20   99 1    
    43   20  100 1    
    44   22   23 am   BACKBONE|DICT|INTERRES
    45   22  101 1    
    46   23   24 2    
    47   23   25 1    
    48   25   26 1    
    49   25   27 1    
    50   25  102 1    
    51   26  103 1    
    52   26  104 1    
    53   26  105 1    
    54   27   28 am   BACKBONE|DICT|INTERRES
    55   27  106 1    
    56   28   29 2    
    57   28   30 1    
    58   30   31 1    
    59   30   32 1    
    60   30  107 1    
    61   31  108 1    
    62   31  109 1    
    63   31  110 1    
    64   32   33 am   BACKBONE|DICT|INTERRES
    65   32  111 1    
    66   33   34 2    
    67   33   35 1    
    68   35   36 1    
    69   35   37 1    
    70   35  112 1    
    71   36  113 1    
    72   36  114 1    
    73   36  115 1    
    74   37   38 am   BACKBONE|DICT|INTERRES
    75   37  116 1    
    76   38   39 2    
    77   38   40 1    
    78   40   41 1    
    79   40   42 1    
    80   40  117 1    
    81   41  118 1    
    82   41  119 1    
    83   41  120 1    
    84   42   43 am   BACKBONE|DICT|INTERRES
    85   42  121 1    
    86   43   44 2    
    87   43   45 1    
    88   45   46 1    
    89   45   47 1    
    90   45  122 1    
    91   46  123 1    
    92   46  124 1    
    93   46  125 1    
    94   47   48 am   BACKBONE|DICT|INTERRES
    95   47  126 1    
    96   48   49 2    
    97   48   50 1    
    98   50   51 1    
    99   50   52 1    
   100   50  127 1    
   101   51  128 1    
   102   51  129 1    
   103   51  130 1    
   104   52   53 am   BACKBONE|DICT|INTERRES
   105   52  131 1    
   106   53   54 2    
   107   53   55 1    
   108   55   56 1    
   109   55   59 1    
   110   55  132 1    
   111   56   57 1    
   112   56  133 1    
   113   56  134 1    
   114   57   58 1    
   115   58  135 1    
   116   58  136 1    
   117   59   60 am   BACKBONE|DICT|INTERRES
   118   59  137 1    
   119   60   61 2    
   120   60   62 1    
   121   62   63 1    
   122   62   64 1    
   123   62  138 1    
   124   63  139 1    
   125   63  140 1    
   126   63  141 1    
   127   64   65 am   BACKBONE|DICT|INTERRES
   128   64  142 1    
   129   65   66 2    
   130   65   67 1    
   131   67   68 1    
   132   67   69 1    
   133   67  143 1    
   134   68  144 1    
   135   68  145 1    
   136   68  146 1    
   137   69   70 am   BACKBONE|DICT|INTERRES
   138   69  147 1    
   139   70   71 2    
   140   70   72 1    
   141   72   73 1    
   142   72   74 1    
   143   72  148 1    
   144   73  149 1    
   145   73  150 1    
   146   73  151 1    
   147   74   75 am   BACKBONE|DICT|INTERRES
   148   74  152 1    
   149   75   76 2    
   150   75   77 1    
   151   77   78 1    
   152   77   79 1    
   153   77  153 1    
   154   78  154 1    
   155   78  155 1    
   156   78  156 1    
   157   79   80 am   BACKBONE|DICT|INTERRES
   158   79  157 1    
   159   80   81 2    
@<TRIPOS>SUBSTRUCTURE
     1 UNK         1 GROUP             0       ****    0 ROOT    
