@<TRIPOS>MOLECULE
3R207
157   159    1
SMALL
USER_CHARGES


@<TRIPOS>ATOM
      1 CA        -45.8832  -30.7740    2.0276 C.3       0 UNK        -0.1975 
      2 C         -47.0854  -30.2391    2.7917 C.2       0 UNK         0.4852 
      3 O         -48.1835  -30.1797    2.2375 O.2       0 UNK        -0.5216 
      4 N         -46.8855  -29.8543    4.0606 N.am      1 UNK        -0.4461 
      5 CA        -47.9128  -29.2922    4.9461 C.3       1 UNK         0.0864 
      6 C6        -47.4254  -29.2970    6.4255 C.3       14 UNK        -0.0898 
      7 S7        -48.3855  -28.3223    7.6395 S.3       14 UNK        -0.2598 
      8 C8        -49.9617  -29.2277    7.6633 C.3       14 UNK         0.0286 
      9 C9        -50.9020  -28.6433    8.7048 C.ar      14 UNK        -0.0844 
     10 C10       -51.6497  -27.4958    8.4200 C.ar      14 UNK        -0.0881 
     11 C11       -52.5031  -26.9444    9.3825 C.ar      14 UNK        -0.0643 
     12 C12       -52.6181  -27.5692   10.6288 C.ar      14 UNK        -0.0930 
     13 C13       -51.8649  -28.7060   10.9285 C.ar      14 UNK        -0.0827 
     14 C14       -51.0171  -29.2458    9.9596 C.ar      14 UNK        -0.1249 
     15 C15       -51.9489  -29.3344   12.3073 C.3       14 UNK         0.0141 
     16 S16       -53.1979  -30.6556   12.3408 S.3       14 UNK        -0.2313 
     17 C17       -54.0984  -30.2911   13.8838 C.3       14 UNK        -0.0915 
     18 CA        -55.5332  -29.7630   13.6153 C.3       13 UNK         0.0968 
     19 C         -56.3828  -29.7159   14.9203 C.2       13 UNK         0.5732 
     20 N         -56.9647  -28.5886   15.3143 N.am      13 UNK        -0.7310 
     21 O         -56.5286  -30.7358   15.5897 O.2       13 UNK        -0.5035 
     22 N         -55.5220  -28.5007   12.8587 N.am      13 UNK        -0.4233 
     23 C         -56.5066  -28.1015   12.0423 C.2       13 UNK         0.4989 
     24 O         -57.4867  -28.7966   11.7677 O.2       13 UNK        -0.4996 
     25 CA        -56.3800  -26.6854   11.4364 C.3       12 UNK         0.0216 
     26 CB        -57.7376  -26.1134   10.9762 C.3       12 UNK        -0.1964 
     27 N         -55.6904  -25.7169   12.3031 N.am      12 UNK        -0.4276 
     28 C         -56.0139  -25.4000   13.5650 C.2       12 UNK         0.5020 
     29 O         -56.9506  -25.9027   14.1893 O.2       12 UNK        -0.5489 
     30 CA        -55.0976  -24.3972   14.2800 C.3       11 UNK         0.0294 
     31 CB        -55.8842  -23.1705   14.7688 C.3       11 UNK        -0.2019 
     32 N         -54.4511  -25.0510   15.4190 N.am      11 UNK        -0.4493 
     33 C         -53.4864  -25.9687   15.2998 C.2       11 UNK         0.4932 
     34 O         -52.9833  -26.2860   14.2169 O.2       11 UNK        -0.5029 
     35 CA        -52.9781  -26.6087   16.5954 C.3       10 UNK         0.0280 
     36 CB        -53.9570  -27.6847   17.1046 C.3       10 UNK        -0.1976 
     37 N         -51.6575  -27.1662   16.3209 N.am      10 UNK        -0.4242 
     38 C         -50.7949  -27.6868   17.2012 C.2       10 UNK         0.5072 
     39 O         -51.0297  -27.8440   18.3998 O.2       10 UNK        -0.5224 
     40 CA        -49.4091  -28.0430   16.6434 C.3       9 UNK         0.0343 
     41 CB        -49.4916  -29.1276   15.5542 C.3       9 UNK        -0.2003 
     42 N         -48.7793  -26.8367   16.1058 N.am      9 UNK        -0.4272 
     43 C         -48.1438  -25.9258   16.8578 C.2       9 UNK         0.4988 
     44 O         -47.8625  -26.0881   18.0460 O.2       9 UNK        -0.5108 
     45 CA        -47.7930  -24.5903   16.1809 C.3       8 UNK         0.0248 
     46 CB        -46.6080  -24.7510   15.2145 C.3       8 UNK        -0.2001 
     47 N         -48.9350  -24.0088   15.4726 N.am      8 UNK        -0.4140 
     48 C         -50.0761  -23.5875   16.0367 C.2       8 UNK         0.5028 
     49 O         -50.2715  -23.5747   17.2519 O.2       8 UNK        -0.5428 
     50 CA        -51.2128  -23.1264   15.1026 C.3       7 UNK         0.0264 
     51 CB        -51.1865  -21.6005   14.8878 C.3       7 UNK        -0.1988 
     52 N         -51.2834  -23.8636   13.8304 N.am      7 UNK        -0.4454 
     53 C         -50.4313  -23.8228   12.7987 C.2       7 UNK         0.5027 
     54 O         -49.4445  -23.0862   12.7460 O.2       7 UNK        -0.5083 
     55 CA        -50.6883  -24.8274   11.6639 C.3       6 UNK         0.0844 
     56 C56       -51.3308  -24.1536   10.4227 C.3       14 UNK        -0.0967 
     57 S57       -53.1379  -24.3991   10.3800 S.3       14 UNK        -0.2604 
     58 C58       -53.2851  -25.6698    9.0734 C.3       14 UNK         0.0134 
     59 N         -49.4588  -25.5482   11.3331 N.am      6 UNK        -0.4116 
     60 C         -48.8304  -26.3987   12.1574 C.2       5 UNK         0.5034 
     61 O         -49.2250  -26.6567   13.2965 O.2       5 UNK        -0.5045 
     62 CA        -47.5484  -27.0784   11.6455 C.3       5 UNK         0.0224 
     63 CB        -47.7354  -28.6003   11.5446 C.3       5 UNK        -0.1978 
     64 N         -47.1110  -26.5655   10.3438 N.am      5 UNK        -0.4737 
     65 C         -46.2485  -25.5541   10.1830 C.2       4 UNK         0.5027 
     66 O         -45.6998  -24.9653   11.1141 O.2       4 UNK        -0.5211 
     67 CA        -45.9564  -25.1201    8.7371 C.3       4 UNK         0.0297 
     68 CB        -44.8590  -26.0030    8.1210 C.3       4 UNK        -0.1993 
     69 N         -47.1347  -25.1390    7.8662 N.am      4 UNK        -0.4486 
     70 C         -48.2145  -24.3565    8.0002 C.2       3 UNK         0.4961 
     71 O         -48.3680  -23.5739    8.9373 O.2       3 UNK        -0.5105 
     72 CA        -49.3257  -24.4856    6.9355 C.3       3 UNK         0.0299 
     73 CB        -50.0309  -23.1422    6.6573 C.3       3 UNK        -0.1972 
     74 N         -48.9050  -25.1231    5.6810 N.am      3 UNK        -0.4305 
     75 C         -47.9700  -24.7204    4.8077 C.2       2 UNK         0.5006 
     76 O         -47.3103  -23.6883    4.9375 O.2       2 UNK        -0.5106 
     77 CA        -47.7070  -25.6624    3.6104 C.3       2 UNK         0.0296 
     78 CB        -46.5313  -25.1932    2.7323 C.3       2 UNK        -0.2002 
     79 N         -47.4594  -27.0478    4.0307 N.am      2 UNK        -0.4032 
     80 C         -48.3953  -27.9081    4.4593 C.2       1 UNK         0.5000 
     81 O         -49.5960  -27.6307    4.5057 O.2       1 UNK        -0.5238 
     82 H82       -46.0729  -31.7950    1.6974 H         1 UNK         0.0889 
     83 H83       -44.9797  -30.7776    2.6372 H         1 UNK         0.0889 
     84 H84       -45.6955  -30.1603    1.1470 H         1 UNK         0.0889 
     85 H85       -45.9621  -29.9484    4.4600 H         1 UNK         0.3028 
     86 H86       -48.7808  -29.9528    4.8890 H         1 UNK         0.0864 
     87 H87       -47.3652  -30.3250    6.7863 H         1 UNK         0.0720 
     88 H88       -46.4052  -28.9124    6.4740 H         1 UNK         0.0720 
     89 H89       -49.7725  -30.2825    7.8689 H         1 UNK         0.0814 
     90 H90       -50.4302  -29.1819    6.6795 H         1 UNK         0.0814 
     91 H91       -51.5576  -27.0308    7.4483 H         1 UNK         0.1469 
     92 H92       -53.2680  -27.1499   11.3823 H         1 UNK         0.1381 
     93 H93       -50.4383  -30.1301   10.1885 H         1 UNK         0.1206 
     94 H94       -52.1706  -28.5617   13.0435 H         1 UNK         0.0813 
     95 H95       -50.9812  -29.7515   12.5890 H         1 UNK         0.0813 
     96 H96       -54.1336  -31.2214   14.4536 H         1 UNK         0.0638 
     97 H97       -53.5309  -29.5890   14.4936 H         1 UNK         0.0638 
     98 H98       -56.0262  -30.5134   12.9943 H         1 UNK         0.0568 
     99 H99       -57.5157  -28.5988   16.1570 H         1 UNK         0.3450 
    100 H100      -56.8927  -27.7286   14.7781 H         1 UNK         0.3450 
    101 H101      -54.7648  -27.8656   13.0621 H         1 UNK         0.2987 
    102 H102      -55.7580  -26.8043   10.5499 H         1 UNK         0.0766 
    103 H103      -58.4360  -26.0161   11.8082 H         1 UNK         0.0798 
    104 H104      -57.6195  -25.1302   10.5207 H         1 UNK         0.0798 
    105 H105      -58.2055  -26.7580   10.2311 H         1 UNK         0.0798 
    106 H106      -54.8900  -25.2572   11.8865 H         1 UNK         0.3198 
    107 H107      -54.3286  -24.0493   13.5866 H         1 UNK         0.0843 
    108 H108      -56.3695  -22.6627   13.9342 H         1 UNK         0.0831 
    109 H109      -55.2289  -22.4454   15.2518 H         1 UNK         0.0831 
    110 H110      -56.6645  -23.4453   15.4799 H         1 UNK         0.0831 
    111 H111      -54.8437  -24.8638   16.3308 H         1 UNK         0.3133 
    112 H112      -52.8707  -25.8243   17.3471 H         1 UNK         0.0566 
    113 H113      -53.6735  -28.0490   18.0917 H         1 UNK         0.0814 
    114 H114      -54.9702  -27.2908   17.1935 H         1 UNK         0.0814 
    115 H115      -53.9993  -28.5430   16.4377 H         1 UNK         0.0814 
    116 H116      -51.3800  -27.0759   15.3505 H         1 UNK         0.3091 
    117 H117      -48.8018  -28.4367   17.4615 H         1 UNK         0.0702 
    118 H118      -48.4983  -29.4075   15.2035 H         1 UNK         0.0785 
    119 H119      -50.0664  -28.8001   14.6885 H         1 UNK         0.0785 
    120 H120      -49.9669  -30.0308   15.9392 H         1 UNK         0.0785 
    121 H121      -48.9467  -26.6379   15.1213 H         1 UNK         0.2998 
    122 H122      -47.4988  -23.8880   16.9636 H         1 UNK         0.0697 
    123 H123      -46.8464  -25.4156   14.3845 H         1 UNK         0.0825 
    124 H124      -45.7405  -25.1683   15.7276 H         1 UNK         0.0825 
    125 H125      -46.3049  -23.7912   14.7955 H         1 UNK         0.0825 
    126 H126      -48.8604  -23.9227   14.4647 H         1 UNK         0.3029 
    127 H127      -52.1429  -23.3516   15.6251 H         1 UNK         0.0897 
    128 H128      -52.0148  -21.2743   14.2588 H         1 UNK         0.0792 
    129 H129      -51.2765  -21.0757   15.8399 H         1 UNK         0.0792 
    130 H130      -50.2587  -21.2645   14.4245 H         1 UNK         0.0792 
    131 H131      -52.0017  -24.5806   13.7949 H         1 UNK         0.3086 
    132 H132      -51.3704  -25.5875   12.0485 H         1 UNK         0.0583 
    133 H133      -51.1101  -23.0851   10.3687 H         1 UNK         0.1020 
    134 H134      -50.9158  -24.5681    9.5054 H         1 UNK         0.1020 
    135 H135      -54.3361  -25.9206    8.9322 H         1 UNK         0.0694 
    136 H136      -52.9492  -25.2327    8.1315 H         1 UNK         0.0694 
    137 H137      -49.0136  -25.3096   10.4594 H         1 UNK         0.2989 
    138 H138      -46.7752  -26.8905   12.3934 H         1 UNK         0.1055 
    139 H139      -46.7915  -29.0986   11.3239 H         1 UNK         0.0806 
    140 H140      -48.4406  -28.8665   10.7597 H         1 UNK         0.0806 
    141 H141      -48.1105  -29.0180   12.4801 H         1 UNK         0.0806 
    142 H142      -47.5078  -27.0035    9.5215 H         1 UNK         0.3061 
    143 H143      -45.5890  -24.0921    8.7707 H         1 UNK         0.0734 
    144 H144      -43.9580  -25.9896    8.7359 H         1 UNK         0.0832 
    145 H145      -45.1770  -27.0428    8.0329 H         1 UNK         0.0832 
    146 H146      -44.5763  -25.6516    7.1284 H         1 UNK         0.0832 
    147 H147      -47.1096  -25.7714    7.0806 H         1 UNK         0.3156 
    148 H148      -50.0660  -25.1592    7.3659 H         1 UNK         0.0589 
    149 H149      -49.3368  -22.3950    6.2715 H         1 UNK         0.0808 
    150 H150      -50.8358  -23.2595    5.9318 H         1 UNK         0.0808 
    151 H151      -50.4754  -22.7337    7.5657 H         1 UNK         0.0808 
    152 H152      -49.3714  -25.9997    5.4555 H         1 UNK         0.3098 
    153 H153      -48.6069  -25.6452    2.9917 H         1 UNK         0.0720 
    154 H154      -46.3974  -25.8436    1.8676 H         1 UNK         0.0791 
    155 H155      -45.5932  -25.1754    3.2886 H         1 UNK         0.0791 
    156 H156      -46.7045  -24.1856    2.3516 H         1 UNK         0.0791 
    157 H157      -46.4967  -27.3519    4.0331 H         1 UNK         0.3028 
@<TRIPOS>BOND
     1    1    2 1    
     2    1   82 1    
     3    1   83 1    
     4    1   84 1    
     5    2    3 2    
     6    2    4 am   BACKBONE|DICT|INTERRES
     7    4    5 1    
     8    4   85 1    
     9    5    6 1    
    10    5   80 1    
    11    5   86 1    
    12    6    7 1    
    13    6   87 1    
    14    6   88 1    
    15    7    8 1    
    16    8    9 1    
    17    8   89 1    
    18    8   90 1    
    19    9   10 ar   
    20    9   14 ar   
    21   10   11 ar   
    22   10   91 1    
    23   11   12 ar   
    24   11   58 1    
    25   12   13 ar   
    26   12   92 1    
    27   13   14 ar   
    28   13   15 1    
    29   14   93 1    
    30   15   16 1    
    31   15   94 1    
    32   15   95 1    
    33   16   17 1    
    34   17   18 1    
    35   17   96 1    
    36   17   97 1    
    37   18   19 1    
    38   18   22 1    
    39   18   98 1    
    40   19   20 am   BACKBONE|DICT|INTERRES
    41   19   21 2    
    42   20   99 1    
    43   20  100 1    
    44   22   23 am   BACKBONE|DICT|INTERRES
    45   22  101 1    
    46   23   24 2    
    47   23   25 1    
    48   25   26 1    
    49   25   27 1    
    50   25  102 1    
    51   26  103 1    
    52   26  104 1    
    53   26  105 1    
    54   27   28 am   BACKBONE|DICT|INTERRES
    55   27  106 1    
    56   28   29 2    
    57   28   30 1    
    58   30   31 1    
    59   30   32 1    
    60   30  107 1    
    61   31  108 1    
    62   31  109 1    
    63   31  110 1    
    64   32   33 am   BACKBONE|DICT|INTERRES
    65   32  111 1    
    66   33   34 2    
    67   33   35 1    
    68   35   36 1    
    69   35   37 1    
    70   35  112 1    
    71   36  113 1    
    72   36  114 1    
    73   36  115 1    
    74   37   38 am   BACKBONE|DICT|INTERRES
    75   37  116 1    
    76   38   39 2    
    77   38   40 1    
    78   40   41 1    
    79   40   42 1    
    80   40  117 1    
    81   41  118 1    
    82   41  119 1    
    83   41  120 1    
    84   42   43 am   BACKBONE|DICT|INTERRES
    85   42  121 1    
    86   43   44 2    
    87   43   45 1    
    88   45   46 1    
    89   45   47 1    
    90   45  122 1    
    91   46  123 1    
    92   46  124 1    
    93   46  125 1    
    94   47   48 am   BACKBONE|DICT|INTERRES
    95   47  126 1    
    96   48   49 2    
    97   48   50 1    
    98   50   51 1    
    99   50   52 1    
   100   50  127 1    
   101   51  128 1    
   102   51  129 1    
   103   51  130 1    
   104   52   53 am   BACKBONE|DICT|INTERRES
   105   52  131 1    
   106   53   54 2    
   107   53   55 1    
   108   55   56 1    
   109   55   59 1    
   110   55  132 1    
   111   56   57 1    
   112   56  133 1    
   113   56  134 1    
   114   57   58 1    
   115   58  135 1    
   116   58  136 1    
   117   59   60 am   BACKBONE|DICT|INTERRES
   118   59  137 1    
   119   60   61 2    
   120   60   62 1    
   121   62   63 1    
   122   62   64 1    
   123   62  138 1    
   124   63  139 1    
   125   63  140 1    
   126   63  141 1    
   127   64   65 am   BACKBONE|DICT|INTERRES
   128   64  142 1    
   129   65   66 2    
   130   65   67 1    
   131   67   68 1    
   132   67   69 1    
   133   67  143 1    
   134   68  144 1    
   135   68  145 1    
   136   68  146 1    
   137   69   70 am   BACKBONE|DICT|INTERRES
   138   69  147 1    
   139   70   71 2    
   140   70   72 1    
   141   72   73 1    
   142   72   74 1    
   143   72  148 1    
   144   73  149 1    
   145   73  150 1    
   146   73  151 1    
   147   74   75 am   BACKBONE|DICT|INTERRES
   148   74  152 1    
   149   75   76 2    
   150   75   77 1    
   151   77   78 1    
   152   77   79 1    
   153   77  153 1    
   154   78  154 1    
   155   78  155 1    
   156   78  156 1    
   157   79   80 am   BACKBONE|DICT|INTERRES
   158   79  157 1    
   159   80   81 2    
@<TRIPOS>SUBSTRUCTURE
     1 UNK         1 GROUP             0       ****    0 ROOT    
