@<TRIPOS>MOLECULE
3R207
157   159    1
SMALL
USER_CHARGES


@<TRIPOS>ATOM
      1 CA        -46.9454  -27.8284    7.4132 C.3       0 UNK        -0.1975 
      2 C         -47.7996  -27.5051    6.1983 C.2       0 UNK         0.4852 
      3 O         -47.2871  -26.9724    5.2138 O.2       0 UNK        -0.5216 
      4 N         -49.1011  -27.8185    6.2632 N.am      1 UNK        -0.4461 
      5 CA        -50.0851  -27.5377    5.2095 C.3       1 UNK         0.0864 
      6 C6        -51.3730  -28.3796    5.3922 C.3       14 UNK        -0.0898 
      7 S7        -52.2117  -28.1299    6.9997 S.3       14 UNK        -0.2598 
      8 C8        -52.6609  -29.8267    7.4861 C.3       14 UNK         0.0286 
      9 C9        -51.9141  -30.2839    8.7318 C.ar      14 UNK        -0.0844 
     10 C10       -50.7389  -31.0366    8.6298 C.ar      14 UNK        -0.0881 
     11 C11       -50.1051  -31.5272    9.7786 C.ar      14 UNK        -0.0643 
     12 C12       -50.6610  -31.2534   11.0335 C.ar      14 UNK        -0.0930 
     13 C13       -51.8140  -30.4742   11.1514 C.ar      14 UNK        -0.0827 
     14 C14       -52.4370  -29.9966    9.9953 C.ar      14 UNK        -0.1249 
     15 C15       -52.3768  -30.1362   12.5248 C.3       14 UNK         0.0141 
     16 S16       -53.9710  -30.9648   12.8167 S.3       14 UNK        -0.2313 
     17 C17       -54.6737  -29.9628   14.1728 C.3       14 UNK        -0.0915 
     18 CA        -55.6306  -28.8585   13.6391 C.3       13 UNK         0.0968 
     19 C         -56.5549  -28.2587   14.7353 C.2       13 UNK         0.5732 
     20 N         -56.8418  -26.9634   14.7225 N.am      13 UNK        -0.7310 
     21 O         -57.0542  -28.9815   15.5946 O.2       13 UNK        -0.5035 
     22 N         -54.8802  -27.8341   12.8960 N.am      13 UNK        -0.4233 
     23 C         -55.0575  -27.5438   11.6029 C.2       13 UNK         0.4989 
     24 O         -55.9669  -28.0119   10.9147 O.2       13 UNK        -0.4996 
     25 CA        -54.0102  -26.6177   10.9568 C.3       12 UNK         0.0216 
     26 CB        -54.3984  -26.1811    9.5291 C.3       12 UNK        -0.1964 
     27 N         -53.6406  -25.4655   11.7846 N.am      12 UNK        -0.4276 
     28 C         -54.4275  -24.4565   12.1758 C.2       12 UNK         0.5020 
     29 O         -55.6297  -24.3712   11.9162 O.2       12 UNK        -0.5489 
     30 CA        -53.7300  -23.3689   13.0150 C.3       11 UNK         0.0294 
     31 CB        -54.4376  -21.9997   12.9299 C.3       11 UNK        -0.2019 
     32 N         -53.5550  -23.7942   14.4093 N.am      11 UNK        -0.4493 
     33 C         -54.5122  -24.1148   15.2954 C.2       11 UNK         0.4932 
     34 O         -55.7190  -24.0054   15.0780 O.2       11 UNK        -0.5029 
     35 CA        -54.0365  -24.6252   16.6733 C.3       10 UNK         0.0280 
     36 CB        -55.1014  -25.4623   17.4123 C.3       10 UNK        -0.1976 
     37 N         -52.7601  -25.3497   16.6542 N.am      10 UNK        -0.4242 
     38 C         -52.4345  -26.4289   15.9278 C.2       10 UNK         0.5072 
     39 O         -53.1521  -26.9344   15.0614 O.2       10 UNK        -0.5224 
     40 CA        -51.0367  -27.0124   16.1991 C.3       9 UNK         0.0343 
     41 CB        -51.0308  -28.5462   16.0802 C.3       9 UNK        -0.2003 
     42 N         -50.0489  -26.4643   15.2733 N.am      9 UNK        -0.4272 
     43 C         -49.6704  -25.1797   15.1907 C.2       9 UNK         0.4988 
     44 O         -50.0327  -24.3052   15.9783 O.2       9 UNK        -0.5108 
     45 CA        -48.7388  -24.7977   14.0254 C.3       8 UNK         0.0248 
     46 CB        -47.2928  -24.6710   14.5293 C.3       8 UNK        -0.2001 
     47 N         -48.7957  -25.7430   12.9036 N.am      8 UNK        -0.4140 
     48 C         -49.8852  -25.9453   12.1450 C.2       8 UNK         0.5028 
     49 O         -50.9284  -25.3058   12.2826 O.2       8 UNK        -0.5428 
     50 CA        -49.8364  -27.0439   11.0709 C.3       7 UNK         0.0264 
     51 CB        -50.1777  -26.4838    9.6832 C.3       7 UNK        -0.1988 
     52 N         -48.5515  -27.7367   10.9959 N.am      7 UNK        -0.4454 
     53 C         -48.1996  -28.7772   11.7650 C.2       7 UNK         0.5027 
     54 O         -48.8869  -29.1972   12.6966 O.2       7 UNK        -0.5083 
     55 CA        -46.8205  -29.4131   11.4731 C.3       6 UNK         0.0844 
     56 C56       -46.9053  -30.4697   10.3393 C.3       14 UNK        -0.0967 
     57 S57       -47.5686  -32.0728   10.8976 S.3       14 UNK        -0.2604 
     58 C58       -48.8612  -32.4043    9.6479 C.3       14 UNK         0.0134 
     59 N         -45.7955  -28.4066   11.1725 N.am      6 UNK        -0.4116 
     60 C         -45.4308  -27.4026   11.9815 C.2       5 UNK         0.5034 
     61 O         -45.8835  -27.2388   13.1143 O.2       5 UNK        -0.5045 
     62 CA        -44.4439  -26.3607   11.4218 C.3       5 UNK         0.0224 
     63 CB        -43.7749  -26.7645   10.0873 C.3       5 UNK        -0.1978 
     64 N         -45.0856  -25.0449   11.2983 N.am      5 UNK        -0.4737 
     65 C         -46.1978  -24.7577   10.6074 C.2       4 UNK         0.5027 
     66 O         -46.8259  -25.5776    9.9287 O.2       4 UNK        -0.5211 
     67 CA        -46.6949  -23.3106   10.6977 C.3       4 UNK         0.0297 
     68 CB        -45.8048  -22.3636    9.8732 C.3       4 UNK        -0.1993 
     69 N         -48.0597  -23.2648   10.1883 N.am      4 UNK        -0.4486 
     70 C         -49.0203  -22.4148   10.5682 C.2       3 UNK         0.4961 
     71 O         -48.8591  -21.5370   11.4166 O.2       3 UNK        -0.5105 
     72 CA        -50.3694  -22.5552    9.8430 C.3       3 UNK         0.0299 
     73 CB        -51.3017  -21.3428   10.0384 C.3       3 UNK        -0.1972 
     74 N         -50.1342  -22.8011    8.4181 N.am      3 UNK        -0.4305 
     75 C         -50.9368  -23.5033    7.6114 C.2       2 UNK         0.5006 
     76 O         -52.0320  -23.9425    7.9551 O.2       2 UNK        -0.5106 
     77 CA        -50.4286  -23.8151    6.1975 C.3       2 UNK         0.0296 
     78 CB        -49.1320  -23.0772    5.7965 C.3       2 UNK        -0.2002 
     79 N         -50.2196  -25.2573    6.1230 N.am      2 UNK        -0.4032 
     80 C         -50.3912  -26.0295    5.0434 C.2       1 UNK         0.5000 
     81 O         -50.7547  -25.6024    3.9454 O.2       1 UNK        -0.5238 
     82 H82       -46.3003  -26.9822    7.6470 H         1 UNK         0.0889 
     83 H83       -46.3166  -28.6956    7.2139 H         1 UNK         0.0889 
     84 H84       -47.5582  -28.0349    8.2881 H         1 UNK         0.0889 
     85 H85       -49.4708  -28.2817    7.0809 H         1 UNK         0.3028 
     86 H86       -49.6345  -27.8521    4.2652 H         1 UNK         0.0864 
     87 H87       -51.1149  -29.4329    5.2778 H         1 UNK         0.0720 
     88 H88       -52.0870  -28.1671    4.5942 H         1 UNK         0.0720 
     89 H89       -52.4978  -30.5285    6.6677 H         1 UNK         0.0814 
     90 H90       -53.7345  -29.8519    7.6791 H         1 UNK         0.0814 
     91 H91       -50.3362  -31.2667    7.6528 H         1 UNK         0.1469 
     92 H92       -50.1845  -31.6349   11.9259 H         1 UNK         0.1381 
     93 H93       -53.3477  -29.4210   10.0765 H         1 UNK         0.1206 
     94 H94       -51.6791  -30.4303   13.3098 H         1 UNK         0.0813 
     95 H95       -52.4866  -29.0554   12.6061 H         1 UNK         0.0813 
     96 H96       -53.8729  -29.5334   14.7766 H         1 UNK         0.0638 
     97 H97       -55.2066  -30.6557   14.8257 H         1 UNK         0.0638 
     98 H98       -56.3323  -29.3538   12.9662 H         1 UNK         0.0568 
     99 H99       -57.4505  -26.5852   15.4295 H         1 UNK         0.3450 
    100 H100      -56.4351  -26.3503   14.0325 H         1 UNK         0.3450 
    101 H101      -54.1561  -27.3667   13.4355 H         1 UNK         0.2987 
    102 H102      -53.1008  -27.2123   10.8708 H         1 UNK         0.0766 
    103 H103      -55.3207  -25.6000    9.5165 H         1 UNK         0.0798 
    104 H104      -54.5481  -27.0459    8.8816 H         1 UNK         0.0798 
    105 H105      -53.6150  -25.5781    9.0758 H         1 UNK         0.0798 
    106 H106      -52.6557  -25.4244   12.0576 H         1 UNK         0.3198 
    107 H107      -52.7279  -23.2359   12.6028 H         1 UNK         0.0843 
    108 H108      -55.4567  -22.0380   13.3153 H         1 UNK         0.0831 
    109 H109      -54.4976  -21.6617   11.8947 H         1 UNK         0.0831 
    110 H110      -53.8955  -21.2379   13.4897 H         1 UNK         0.0831 
    111 H111      -52.5982  -23.9455   14.6986 H         1 UNK         0.3133 
    112 H112      -53.8625  -23.7272   17.2675 H         1 UNK         0.0566 
    113 H113      -55.2900  -26.4086   16.9068 H         1 UNK         0.0814 
    114 H114      -54.7855  -25.6900   18.4302 H         1 UNK         0.0814 
    115 H115      -56.0511  -24.9310   17.4843 H         1 UNK         0.0814 
    116 H116      -52.0415  -24.9700   17.2571 H         1 UNK         0.3091 
    117 H117      -50.7385  -26.7518   17.2167 H         1 UNK         0.0702 
    118 H118      -50.0637  -28.9628   16.3620 H         1 UNK         0.0785 
    119 H119      -51.2502  -28.8715   15.0634 H         1 UNK         0.0785 
    120 H120      -51.7808  -28.9924   16.7348 H         1 UNK         0.0785 
    121 H121      -49.6979  -27.1015   14.5731 H         1 UNK         0.2998 
    122 H122      -49.0593  -23.8222   13.6532 H         1 UNK         0.0697 
    123 H123      -46.9335  -25.6057   14.9614 H         1 UNK         0.0825 
    124 H124      -47.2175  -23.9070   15.3043 H         1 UNK         0.0825 
    125 H125      -46.6094  -24.3876   13.7311 H         1 UNK         0.0825 
    126 H126      -47.9778  -26.3193   12.7502 H         1 UNK         0.3029 
    127 H127      -50.6088  -27.7698   11.3326 H         1 UNK         0.0897 
    128 H128      -51.1521  -25.9936    9.6822 H         1 UNK         0.0792 
    129 H129      -50.2235  -27.2861    8.9497 H         1 UNK         0.0792 
    130 H130      -49.4417  -25.7566    9.3452 H         1 UNK         0.0792 
    131 H131      -47.8682  -27.3384   10.3609 H         1 UNK         0.3086 
    132 H132      -46.4945  -29.9131   12.3879 H         1 UNK         0.0583 
    133 H133      -47.4838  -30.0992    9.4917 H         1 UNK         0.1020 
    134 H134      -45.9088  -30.6771    9.9457 H         1 UNK         0.1020 
    135 H135      -48.4209  -32.3059    8.6543 H         1 UNK         0.0694 
    136 H136      -49.1704  -33.4458    9.7433 H         1 UNK         0.0694 
    137 H137      -45.3742  -28.4475   10.2569 H         1 UNK         0.2989 
    138 H138      -43.6561  -26.2613   12.1706 H         1 UNK         0.1055 
    139 H139      -43.2546  -27.7192   10.1768 H         1 UNK         0.0806 
    140 H140      -43.0289  -26.0268    9.7915 H         1 UNK         0.0806 
    141 H141      -44.4894  -26.8460    9.2685 H         1 UNK         0.0806 
    142 H142      -44.6574  -24.3052   11.8381 H         1 UNK         0.3061 
    143 H143      -46.6863  -23.0069   11.7463 H         1 UNK         0.0734 
    144 H144      -46.1616  -21.3350    9.9301 H         1 UNK         0.0832 
    145 H145      -44.7772  -22.3675   10.2384 H         1 UNK         0.0832 
    146 H146      -45.7786  -22.6506    8.8212 H         1 UNK         0.0832 
    147 H147      -48.2733  -24.0210    9.5510 H         1 UNK         0.3156 
    148 H148      -50.8582  -23.4296   10.2772 H         1 UNK         0.0589 
    149 H149      -52.2642  -21.4997    9.5514 H         1 UNK         0.0808 
    150 H150      -51.5025  -21.1691   11.0964 H         1 UNK         0.0808 
    151 H151      -50.8635  -20.4307    9.6320 H         1 UNK         0.0808 
    152 H152      -49.2572  -22.4561    8.0512 H         1 UNK         0.3098 
    153 H153      -51.2242  -23.5249    5.5080 H         1 UNK         0.0720 
    154 H154      -48.8692  -23.2942    4.7608 H         1 UNK         0.0791 
    155 H155      -48.2818  -23.3711    6.4135 H         1 UNK         0.0791 
    156 H156      -49.2506  -21.9953    5.8711 H         1 UNK         0.0791 
    157 H157      -49.9883  -25.7144    6.9923 H         1 UNK         0.3028 
@<TRIPOS>BOND
     1    1    2 1    
     2    1   82 1    
     3    1   83 1    
     4    1   84 1    
     5    2    3 2    
     6    2    4 am   BACKBONE|DICT|INTERRES
     7    4    5 1    
     8    4   85 1    
     9    5    6 1    
    10    5   80 1    
    11    5   86 1    
    12    6    7 1    
    13    6   87 1    
    14    6   88 1    
    15    7    8 1    
    16    8    9 1    
    17    8   89 1    
    18    8   90 1    
    19    9   10 ar   
    20    9   14 ar   
    21   10   11 ar   
    22   10   91 1    
    23   11   12 ar   
    24   11   58 1    
    25   12   13 ar   
    26   12   92 1    
    27   13   14 ar   
    28   13   15 1    
    29   14   93 1    
    30   15   16 1    
    31   15   94 1    
    32   15   95 1    
    33   16   17 1    
    34   17   18 1    
    35   17   96 1    
    36   17   97 1    
    37   18   19 1    
    38   18   22 1    
    39   18   98 1    
    40   19   20 am   BACKBONE|DICT|INTERRES
    41   19   21 2    
    42   20   99 1    
    43   20  100 1    
    44   22   23 am   BACKBONE|DICT|INTERRES
    45   22  101 1    
    46   23   24 2    
    47   23   25 1    
    48   25   26 1    
    49   25   27 1    
    50   25  102 1    
    51   26  103 1    
    52   26  104 1    
    53   26  105 1    
    54   27   28 am   BACKBONE|DICT|INTERRES
    55   27  106 1    
    56   28   29 2    
    57   28   30 1    
    58   30   31 1    
    59   30   32 1    
    60   30  107 1    
    61   31  108 1    
    62   31  109 1    
    63   31  110 1    
    64   32   33 am   BACKBONE|DICT|INTERRES
    65   32  111 1    
    66   33   34 2    
    67   33   35 1    
    68   35   36 1    
    69   35   37 1    
    70   35  112 1    
    71   36  113 1    
    72   36  114 1    
    73   36  115 1    
    74   37   38 am   BACKBONE|DICT|INTERRES
    75   37  116 1    
    76   38   39 2    
    77   38   40 1    
    78   40   41 1    
    79   40   42 1    
    80   40  117 1    
    81   41  118 1    
    82   41  119 1    
    83   41  120 1    
    84   42   43 am   BACKBONE|DICT|INTERRES
    85   42  121 1    
    86   43   44 2    
    87   43   45 1    
    88   45   46 1    
    89   45   47 1    
    90   45  122 1    
    91   46  123 1    
    92   46  124 1    
    93   46  125 1    
    94   47   48 am   BACKBONE|DICT|INTERRES
    95   47  126 1    
    96   48   49 2    
    97   48   50 1    
    98   50   51 1    
    99   50   52 1    
   100   50  127 1    
   101   51  128 1    
   102   51  129 1    
   103   51  130 1    
   104   52   53 am   BACKBONE|DICT|INTERRES
   105   52  131 1    
   106   53   54 2    
   107   53   55 1    
   108   55   56 1    
   109   55   59 1    
   110   55  132 1    
   111   56   57 1    
   112   56  133 1    
   113   56  134 1    
   114   57   58 1    
   115   58  135 1    
   116   58  136 1    
   117   59   60 am   BACKBONE|DICT|INTERRES
   118   59  137 1    
   119   60   61 2    
   120   60   62 1    
   121   62   63 1    
   122   62   64 1    
   123   62  138 1    
   124   63  139 1    
   125   63  140 1    
   126   63  141 1    
   127   64   65 am   BACKBONE|DICT|INTERRES
   128   64  142 1    
   129   65   66 2    
   130   65   67 1    
   131   67   68 1    
   132   67   69 1    
   133   67  143 1    
   134   68  144 1    
   135   68  145 1    
   136   68  146 1    
   137   69   70 am   BACKBONE|DICT|INTERRES
   138   69  147 1    
   139   70   71 2    
   140   70   72 1    
   141   72   73 1    
   142   72   74 1    
   143   72  148 1    
   144   73  149 1    
   145   73  150 1    
   146   73  151 1    
   147   74   75 am   BACKBONE|DICT|INTERRES
   148   74  152 1    
   149   75   76 2    
   150   75   77 1    
   151   77   78 1    
   152   77   79 1    
   153   77  153 1    
   154   78  154 1    
   155   78  155 1    
   156   78  156 1    
   157   79   80 am   BACKBONE|DICT|INTERRES
   158   79  157 1    
   159   80   81 2    
@<TRIPOS>SUBSTRUCTURE
     1 UNK         1 GROUP             0       ****    0 ROOT    
