@<TRIPOS>MOLECULE
3R207
157   159    1
SMALL
USER_CHARGES


@<TRIPOS>ATOM
      1 CA        -48.1623  -26.4633    5.7325 C.3       0 UNK        -0.1975 
      2 C         -49.5475  -25.9769    6.1298 C.2       0 UNK         0.4852 
      3 O         -49.8852  -24.8181    5.8844 O.2       0 UNK        -0.5216 
      4 N         -50.3562  -26.8478    6.7476 N.am      1 UNK        -0.4461 
      5 CA        -51.7490  -26.5941    7.1412 C.3       1 UNK         0.0864 
      6 C6        -52.5749  -27.9042    7.2686 C.3       14 UNK        -0.0898 
      7 S7        -52.3465  -29.0243    5.8323 S.3       14 UNK        -0.2598 
      8 C8        -52.4280  -30.7173    6.5254 C.3       14 UNK         0.0286 
      9 C9        -51.7808  -30.8531    7.8975 C.ar      14 UNK        -0.0844 
     10 C10       -50.4216  -30.5834    8.0814 C.ar      14 UNK        -0.0881 
     11 C11       -49.8604  -30.6001    9.3641 C.ar      14 UNK        -0.0643 
     12 C12       -50.6650  -30.9307   10.4611 C.ar      14 UNK        -0.0930 
     13 C13       -52.0163  -31.2437   10.2826 C.ar      14 UNK        -0.0827 
     14 C14       -52.5649  -31.2035    8.9985 C.ar      14 UNK        -0.1249 
     15 C15       -52.8908  -31.6447   11.4624 C.3       14 UNK         0.0141 
     16 S16       -54.2749  -30.4854   11.6899 S.3       14 UNK        -0.2313 
     17 C17       -55.3517  -31.4245   12.8313 C.3       14 UNK        -0.0915 
     18 CA        -55.6994  -30.6621   14.1379 C.3       13 UNK         0.0968 
     19 C         -54.5595  -30.7270   15.1952 C.2       13 UNK         0.5732 
     20 N         -54.0179  -29.6106   15.6671 N.am      13 UNK        -0.7310 
     21 O         -54.1744  -31.8162   15.6134 O.2       13 UNK        -0.5035 
     22 N         -56.1805  -29.3096   13.8372 N.am      13 UNK        -0.4233 
     23 C         -57.0148  -28.5763   14.5805 C.2       13 UNK         0.4989 
     24 O         -57.5588  -28.9892   15.6056 O.2       13 UNK        -0.4996 
     25 CA        -57.2791  -27.1363   14.1030 C.3       12 UNK         0.0216 
     26 CB        -57.1542  -26.1330   15.2639 C.3       12 UNK        -0.1964 
     27 N         -56.3457  -26.7388   13.0446 N.am      12 UNK        -0.4276 
     28 C         -56.6211  -26.6667   11.7343 C.2       12 UNK         0.5020 
     29 O         -57.7240  -26.9457   11.2614 O.2       12 UNK        -0.5489 
     30 CA        -55.4755  -26.2432   10.7838 C.3       11 UNK         0.0294 
     31 CB        -55.9677  -25.3426    9.6319 C.3       11 UNK        -0.2019 
     32 N         -54.3177  -25.6377   11.4561 N.am      11 UNK        -0.4493 
     33 C         -54.2999  -24.5402   12.2278 C.2       11 UNK         0.4932 
     34 O         -55.2738  -23.8044   12.3932 O.2       11 UNK        -0.5029 
     35 CA        -52.9861  -24.2441   12.9777 C.3       10 UNK         0.0280 
     36 CB        -53.2199  -23.3894   14.2409 C.3       10 UNK        -0.1976 
     37 N         -52.2052  -25.4395   13.3250 N.am      10 UNK        -0.4242 
     38 C         -52.5907  -26.4983   14.0566 C.2       10 UNK         0.5072 
     39 O         -53.7490  -26.7066   14.4247 O.2       10 UNK        -0.5224 
     40 CA        -51.4885  -27.4949   14.4518 C.3       9 UNK         0.0343 
     41 CB        -51.3135  -28.5751   13.3725 C.3       9 UNK        -0.2003 
     42 N         -50.2091  -26.8238   14.6938 N.am      9 UNK        -0.4272 
     43 C         -49.8641  -26.2341   15.8490 C.2       9 UNK         0.4988 
     44 O         -50.5608  -26.2572   16.8640 O.2       9 UNK        -0.5108 
     45 CA        -48.5114  -25.4963   15.8903 C.3       8 UNK         0.0248 
     46 CB        -47.4002  -26.4396   16.3788 C.3       8 UNK        -0.2001 
     47 N         -48.1286  -24.9342   14.5940 N.am      8 UNK        -0.4140 
     48 C         -48.7149  -23.8717   14.0213 C.2       8 UNK         0.5028 
     49 O         -49.5503  -23.1656   14.5841 O.2       8 UNK        -0.5428 
     50 CA        -48.3397  -23.5672   12.5576 C.3       7 UNK         0.0264 
     51 CB        -47.2897  -22.4487   12.4920 C.3       7 UNK        -0.1988 
     52 N         -47.8608  -24.7448   11.8206 N.am      7 UNK        -0.4454 
     53 C         -48.6061  -25.8386   11.5868 C.2       7 UNK         0.5027 
     54 O         -49.7905  -25.9064   11.9093 O.2       7 UNK        -0.5083 
     55 CA        -47.9433  -27.0790   10.9513 C.3       6 UNK         0.0844 
     56 C56       -48.6459  -27.4611    9.6259 C.3       14 UNK        -0.0967 
     57 S57       -47.8105  -28.7964    8.7020 S.3       14 UNK        -0.2604 
     58 C58       -48.3809  -30.2948    9.5719 C.3       14 UNK         0.0134 
     59 N         -46.4942  -26.9290   10.8122 N.am      6 UNK        -0.4116 
     60 C         -45.6094  -27.0670   11.8090 C.2       5 UNK         0.5034 
     61 O         -45.9261  -27.3190   12.9722 O.2       5 UNK        -0.5045 
     62 CA        -44.1255  -26.8501   11.4573 C.3       5 UNK         0.0224 
     63 CB        -43.4466  -28.1948   11.1524 C.3       5 UNK        -0.1978 
     64 N         -43.9233  -25.9367   10.3257 N.am      5 UNK        -0.4737 
     65 C         -44.2701  -24.6427   10.3305 C.2       4 UNK         0.5027 
     66 O         -44.7386  -24.0778   11.3196 O.2       4 UNK        -0.5211 
     67 CA        -44.1216  -23.8489    9.0167 C.3       4 UNK         0.0297 
     68 CB        -43.7273  -24.7099    7.7937 C.3       4 UNK        -0.1993 
     69 N         -45.3360  -23.0733    8.7308 N.am      4 UNK        -0.4486 
     70 C         -46.5753  -23.5619    8.5821 C.2       3 UNK         0.4961 
     71 O         -46.8568  -24.7634    8.6105 O.2       3 UNK        -0.5105 
     72 CA        -47.6877  -22.5311    8.3652 C.3       3 UNK         0.0299 
     73 CB        -47.6768  -22.0011    6.9209 C.3       3 UNK        -0.1972 
     74 N         -48.9690  -23.1738    8.6338 N.am      3 UNK        -0.4305 
     75 C         -50.0396  -22.6000    9.1927 C.2       2 UNK         0.5006 
     76 O         -50.0727  -21.4207    9.5462 O.2       2 UNK        -0.5106 
     77 CA        -51.2805  -23.4904    9.3787 C.3       2 UNK         0.0296 
     78 CB        -52.5905  -22.6831    9.4675 C.3       2 UNK        -0.2002 
     79 N         -51.3787  -24.4711    8.2984 N.am      2 UNK        -0.4032 
     80 C         -51.8037  -25.7325    8.4238 C.2       1 UNK         0.5000 
     81 O         -52.1821  -26.2207    9.4904 O.2       1 UNK        -0.5238 
     82 H82       -47.3983  -25.9373    6.3031 H         1 UNK         0.0889 
     83 H83       -47.9881  -26.2721    4.6742 H         1 UNK         0.0889 
     84 H84       -48.0411  -27.5322    5.9059 H         1 UNK         0.0889 
     85 H85       -50.0256  -27.7834    6.9362 H         1 UNK         0.3028 
     86 H86       -52.2162  -26.0070    6.3472 H         1 UNK         0.0864 
     87 H87       -52.3115  -28.4143    8.1934 H         1 UNK         0.0720 
     88 H88       -53.6376  -27.6715    7.3546 H         1 UNK         0.0720 
     89 H89       -51.9446  -31.4067    5.8319 H         1 UNK         0.0814 
     90 H90       -53.4764  -31.0166    6.5667 H         1 UNK         0.0814 
     91 H91       -49.8091  -30.3275    7.2279 H         1 UNK         0.1469 
     92 H92       -50.2360  -30.9581   11.4533 H         1 UNK         0.1381 
     93 H93       -53.6153  -31.4237    8.8642 H         1 UNK         0.1206 
     94 H94       -52.3113  -31.6954   12.3856 H         1 UNK         0.0813 
     95 H95       -53.2803  -32.6474   11.2803 H         1 UNK         0.0813 
     96 H96       -54.9143  -32.3998   13.0522 H         1 UNK         0.0638 
     97 H97       -56.2743  -31.6401   12.2905 H         1 UNK         0.0638 
     98 H98       -56.5300  -31.2005   14.5979 H         1 UNK         0.0568 
     99 H99       -53.2995  -29.6794   16.3690 H         1 UNK         0.3450 
    100 H100      -54.3035  -28.7057   15.3209 H         1 UNK         0.3450 
    101 H101      -55.7763  -28.8867   13.0153 H         1 UNK         0.2987 
    102 H102      -58.3053  -27.1030   13.7321 H         1 UNK         0.0766 
    103 H103      -57.3364  -25.1128   14.9254 H         1 UNK         0.0798 
    104 H104      -56.1623  -26.1618   15.7169 H         1 UNK         0.0798 
    105 H105      -57.8796  -26.3466   16.0501 H         1 UNK         0.0798 
    106 H106      -55.4009  -26.5248   13.3560 H         1 UNK         0.3198 
    107 H107      -55.1050  -27.1682   10.3387 H         1 UNK         0.0843 
    108 H108      -55.1559  -25.1015    8.9457 H         1 UNK         0.0831 
    109 H109      -56.3876  -24.4064   10.0004 H         1 UNK         0.0831 
    110 H110      -56.7438  -25.8393    9.0485 H         1 UNK         0.0831 
    111 H111      -53.4366  -26.1179   11.3050 H         1 UNK         0.3133 
    112 H112      -52.3653  -23.6615   12.2980 H         1 UNK         0.0566 
    113 H113      -52.2834  -23.1794   14.7573 H         1 UNK         0.0814 
    114 H114      -53.6705  -22.4285   13.9896 H         1 UNK         0.0814 
    115 H115      -53.8857  -23.8887   14.9460 H         1 UNK         0.0814 
    116 H116      -51.2563  -25.4598   12.9580 H         1 UNK         0.3091 
    117 H117      -51.7983  -27.9888   15.3741 H         1 UNK         0.0702 
    118 H118      -50.5212  -29.2761   13.6344 H         1 UNK         0.0785 
    119 H119      -51.0814  -28.1526   12.3943 H         1 UNK         0.0785 
    120 H120      -52.2301  -29.1532   13.2643 H         1 UNK         0.0785 
    121 H121      -49.6074  -26.7103   13.8902 H         1 UNK         0.2998 
    122 H122      -48.6028  -24.6763   16.6059 H         1 UNK         0.0697 
    123 H123      -46.4521  -25.9128   16.4884 H         1 UNK         0.0825 
    124 H124      -47.6483  -26.8637   17.3529 H         1 UNK         0.0825 
    125 H125      -47.2434  -27.2718   15.6907 H         1 UNK         0.0825 
    126 H126      -47.4275  -25.4387   14.0686 H         1 UNK         0.3029 
    127 H127      -49.2455  -23.2119   12.0627 H         1 UNK         0.0897 
    128 H128      -47.0407  -22.1942   11.4624 H         1 UNK         0.0792 
    129 H129      -47.6591  -21.5400   12.9693 H         1 UNK         0.0792 
    130 H130      -46.3672  -22.7314   13.0006 H         1 UNK         0.0792 
    131 H131      -46.8893  -24.7371   11.5311 H         1 UNK         0.3086 
    132 H132      -48.1193  -27.9012   11.6480 H         1 UNK         0.0583 
    133 H133      -49.6834  -27.7490    9.8115 H         1 UNK         0.1020 
    134 H134      -48.6899  -26.5935    8.9685 H         1 UNK         0.1020 
    135 H135      -47.8014  -31.1450    9.2105 H         1 UNK         0.0694 
    136 H136      -48.1477  -30.1942   10.6329 H         1 UNK         0.0694 
    137 H137      -46.1645  -26.6715    9.8913 H         1 UNK         0.2989 
    138 H138      -43.6456  -26.4108   12.3349 H         1 UNK         0.1055 
    139 H139      -43.5584  -28.8862   11.9890 H         1 UNK         0.0806 
    140 H140      -42.3775  -28.0705   10.9790 H         1 UNK         0.0806 
    141 H141      -43.8776  -28.6758   10.2732 H         1 UNK         0.0806 
    142 H142      -43.5502  -26.3338    9.4752 H         1 UNK         0.3061 
    143 H143      -43.3227  -23.1258    9.1874 H         1 UNK         0.0734 
    144 H144      -44.4577  -25.4932    7.5862 H         1 UNK         0.0832 
    145 H145      -43.6449  -24.0962    6.8967 H         1 UNK         0.0832 
    146 H146      -42.7566  -25.1857    7.9382 H         1 UNK         0.0832 
    147 H147      -45.2156  -22.0699    8.7216 H         1 UNK         0.3156 
    148 H148      -47.5312  -21.7052    9.0620 H         1 UNK         0.0589 
    149 H149      -48.4701  -21.2705    6.7623 H         1 UNK         0.0808 
    150 H150      -46.7324  -21.5089    6.6861 H         1 UNK         0.0808 
    151 H151      -47.8159  -22.8059    6.1974 H         1 UNK         0.0808 
    152 H152      -48.9771  -24.1644    8.4311 H         1 UNK         0.3098 
    153 H153      -51.1310  -24.0170   10.3227 H         1 UNK         0.0720 
    154 H154      -52.5744  -21.9961   10.3145 H         1 UNK         0.0791 
    155 H155      -53.4528  -23.3361    9.5978 H         1 UNK         0.0791 
    156 H156      -52.7557  -22.0904    8.5672 H         1 UNK         0.0791 
    157 H157      -51.0126  -24.1877    7.3922 H         1 UNK         0.3028 
@<TRIPOS>BOND
     1    1    2 1    
     2    1   82 1    
     3    1   83 1    
     4    1   84 1    
     5    2    3 2    
     6    2    4 am   BACKBONE|DICT|INTERRES
     7    4    5 1    
     8    4   85 1    
     9    5    6 1    
    10    5   80 1    
    11    5   86 1    
    12    6    7 1    
    13    6   87 1    
    14    6   88 1    
    15    7    8 1    
    16    8    9 1    
    17    8   89 1    
    18    8   90 1    
    19    9   10 ar   
    20    9   14 ar   
    21   10   11 ar   
    22   10   91 1    
    23   11   12 ar   
    24   11   58 1    
    25   12   13 ar   
    26   12   92 1    
    27   13   14 ar   
    28   13   15 1    
    29   14   93 1    
    30   15   16 1    
    31   15   94 1    
    32   15   95 1    
    33   16   17 1    
    34   17   18 1    
    35   17   96 1    
    36   17   97 1    
    37   18   19 1    
    38   18   22 1    
    39   18   98 1    
    40   19   20 am   BACKBONE|DICT|INTERRES
    41   19   21 2    
    42   20   99 1    
    43   20  100 1    
    44   22   23 am   BACKBONE|DICT|INTERRES
    45   22  101 1    
    46   23   24 2    
    47   23   25 1    
    48   25   26 1    
    49   25   27 1    
    50   25  102 1    
    51   26  103 1    
    52   26  104 1    
    53   26  105 1    
    54   27   28 am   BACKBONE|DICT|INTERRES
    55   27  106 1    
    56   28   29 2    
    57   28   30 1    
    58   30   31 1    
    59   30   32 1    
    60   30  107 1    
    61   31  108 1    
    62   31  109 1    
    63   31  110 1    
    64   32   33 am   BACKBONE|DICT|INTERRES
    65   32  111 1    
    66   33   34 2    
    67   33   35 1    
    68   35   36 1    
    69   35   37 1    
    70   35  112 1    
    71   36  113 1    
    72   36  114 1    
    73   36  115 1    
    74   37   38 am   BACKBONE|DICT|INTERRES
    75   37  116 1    
    76   38   39 2    
    77   38   40 1    
    78   40   41 1    
    79   40   42 1    
    80   40  117 1    
    81   41  118 1    
    82   41  119 1    
    83   41  120 1    
    84   42   43 am   BACKBONE|DICT|INTERRES
    85   42  121 1    
    86   43   44 2    
    87   43   45 1    
    88   45   46 1    
    89   45   47 1    
    90   45  122 1    
    91   46  123 1    
    92   46  124 1    
    93   46  125 1    
    94   47   48 am   BACKBONE|DICT|INTERRES
    95   47  126 1    
    96   48   49 2    
    97   48   50 1    
    98   50   51 1    
    99   50   52 1    
   100   50  127 1    
   101   51  128 1    
   102   51  129 1    
   103   51  130 1    
   104   52   53 am   BACKBONE|DICT|INTERRES
   105   52  131 1    
   106   53   54 2    
   107   53   55 1    
   108   55   56 1    
   109   55   59 1    
   110   55  132 1    
   111   56   57 1    
   112   56  133 1    
   113   56  134 1    
   114   57   58 1    
   115   58  135 1    
   116   58  136 1    
   117   59   60 am   BACKBONE|DICT|INTERRES
   118   59  137 1    
   119   60   61 2    
   120   60   62 1    
   121   62   63 1    
   122   62   64 1    
   123   62  138 1    
   124   63  139 1    
   125   63  140 1    
   126   63  141 1    
   127   64   65 am   BACKBONE|DICT|INTERRES
   128   64  142 1    
   129   65   66 2    
   130   65   67 1    
   131   67   68 1    
   132   67   69 1    
   133   67  143 1    
   134   68  144 1    
   135   68  145 1    
   136   68  146 1    
   137   69   70 am   BACKBONE|DICT|INTERRES
   138   69  147 1    
   139   70   71 2    
   140   70   72 1    
   141   72   73 1    
   142   72   74 1    
   143   72  148 1    
   144   73  149 1    
   145   73  150 1    
   146   73  151 1    
   147   74   75 am   BACKBONE|DICT|INTERRES
   148   74  152 1    
   149   75   76 2    
   150   75   77 1    
   151   77   78 1    
   152   77   79 1    
   153   77  153 1    
   154   78  154 1    
   155   78  155 1    
   156   78  156 1    
   157   79   80 am   BACKBONE|DICT|INTERRES
   158   79  157 1    
   159   80   81 2    
@<TRIPOS>SUBSTRUCTURE
     1 UNK         1 GROUP             0       ****    0 ROOT    
