@<TRIPOS>MOLECULE
3R207
157   159    1
SMALL
USER_CHARGES


@<TRIPOS>ATOM
      1 CA        -46.6529  -32.1933    5.6599 C.3       0 UNK        -0.1975 
      2 C         -47.3087  -30.8781    6.0529 C.2       0 UNK         0.4852 
      3 O         -46.7970  -30.1823    6.9309 O.2       0 UNK        -0.5216 
      4 N         -48.4242  -30.5281    5.3957 N.am      1 UNK        -0.4461 
      5 CA        -49.2739  -29.3415    5.5981 C.3       1 UNK         0.0864 
      6 C6        -49.9140  -29.2618    7.0121 C.3       14 UNK        -0.0898 
      7 S7        -51.1994  -30.5315    7.2793 S.3       14 UNK        -0.2598 
      8 C8        -52.6327  -29.8706    6.3583 C.3       14 UNK         0.0286 
      9 C9        -53.2088  -28.6067    6.9825 C.ar      14 UNK        -0.0844 
     10 C10       -52.7106  -27.3552    6.6139 C.ar      14 UNK        -0.0881 
     11 C11       -53.2027  -26.1880    7.2019 C.ar      14 UNK        -0.0643 
     12 C12       -54.2566  -26.2711    8.1155 C.ar      14 UNK        -0.0930 
     13 C13       -54.7959  -27.5153    8.4621 C.ar      14 UNK        -0.0827 
     14 C14       -54.2554  -28.6806    7.9064 C.ar      14 UNK        -0.1249 
     15 C15       -55.9830  -27.6033    9.4124 C.3       14 UNK         0.0141 
     16 S16       -55.6487  -26.8722   11.0456 S.3       14 UNK        -0.2313 
     17 C17       -54.3131  -27.9448   11.6707 C.3       14 UNK        -0.0915 
     18 CA        -54.8062  -29.3003   12.2423 C.3       13 UNK         0.0968 
     19 C         -53.6065  -30.1425   12.7703 C.2       13 UNK         0.5732 
     20 N         -53.4692  -30.3687   14.0733 N.am      13 UNK        -0.7310 
     21 O         -52.7902  -30.6069   11.9790 O.2       13 UNK        -0.5035 
     22 N         -55.8948  -29.1265   13.2152 N.am      13 UNK        -0.4233 
     23 C         -56.6940  -30.1102   13.6447 C.2       13 UNK         0.4989 
     24 O         -56.6855  -31.2469   13.1681 O.2       13 UNK        -0.4996 
     25 CA        -57.6667  -29.7767   14.7964 C.3       12 UNK         0.0216 
     26 CB        -57.9279  -31.0011   15.7000 C.3       12 UNK        -0.1964 
     27 N         -57.2925  -28.6177   15.6246 N.am      12 UNK        -0.4276 
     28 C         -56.1537  -28.4340   16.3094 C.2       12 UNK         0.5020 
     29 O         -55.1660  -29.1729   16.2356 O.2       12 UNK        -0.5489 
     30 CA        -56.1268  -27.2218   17.2471 C.3       11 UNK         0.0294 
     31 CB        -56.9740  -27.4974   18.5071 C.3       11 UNK        -0.2019 
     32 N         -54.7415  -26.9482   17.6163 N.am      11 UNK        -0.4493 
     33 C         -54.2906  -25.8394   18.2147 C.2       11 UNK         0.4932 
     34 O         -55.0060  -24.8850   18.5216 O.2       11 UNK        -0.5029 
     35 CA        -52.7873  -25.7823   18.5333 C.3       10 UNK         0.0280 
     36 CB        -52.5047  -26.4170   19.9049 C.3       10 UNK        -0.1976 
     37 N         -51.9578  -26.4313   17.5150 N.am      10 UNK        -0.4242 
     38 C         -51.7157  -25.9188   16.3014 C.2       10 UNK         0.5072 
     39 O         -52.1756  -24.8477   15.9002 O.2       10 UNK        -0.5224 
     40 CA        -50.8106  -26.7516   15.3766 C.3       9 UNK         0.0343 
     41 CB        -51.5965  -27.2420   14.1537 C.3       9 UNK        -0.2003 
     42 N         -49.6387  -25.9981   14.9279 N.am      9 UNK        -0.4272 
     43 C         -48.6777  -25.5325   15.7385 C.2       9 UNK         0.4988 
     44 O         -48.6496  -25.7352   16.9536 O.2       9 UNK        -0.5108 
     45 CA        -47.5360  -24.7265   15.0984 C.3       8 UNK         0.0248 
     46 CB        -46.3717  -25.6606   14.7322 C.3       8 UNK        -0.2001 
     47 N         -47.9369  -23.9447   13.9237 N.am      8 UNK        -0.4140 
     48 C         -48.7312  -22.8644   13.9693 C.2       8 UNK         0.5028 
     49 O         -49.2260  -22.4229   15.0072 O.2       8 UNK        -0.5428 
     50 CA        -49.0016  -22.1288   12.6449 C.3       7 UNK         0.0264 
     51 CB        -47.8245  -21.2070   12.2860 C.3       7 UNK        -0.1988 
     52 N         -49.2709  -23.0295   11.5242 N.am      7 UNK        -0.4454 
     53 C         -50.3910  -23.7546   11.3756 C.2       7 UNK         0.5027 
     54 O         -51.3434  -23.7170   12.1545 O.2       7 UNK        -0.5083 
     55 CA        -50.4470  -24.6858   10.1438 C.3       6 UNK         0.0844 
     56 C56       -50.8712  -23.8568    8.9004 C.3       14 UNK        -0.0967 
     57 S57       -50.8382  -24.7600    7.3164 S.3       14 UNK        -0.2604 
     58 C58       -52.5921  -24.8476    6.8270 C.3       14 UNK         0.0134 
     59 N         -49.1845  -25.4218    9.9742 N.am      6 UNK        -0.4116 
     60 C         -48.6367  -26.2242   10.9040 C.2       5 UNK         0.5034 
     61 O         -49.1706  -26.5010   11.9782 O.2       5 UNK        -0.5045 
     62 CA        -47.2208  -26.7529   10.6319 C.3       5 UNK         0.0224 
     63 CB        -47.2537  -28.0395    9.7921 C.3       5 UNK        -0.1978 
     64 N         -46.3781  -25.7441    9.9869 N.am      5 UNK        -0.4737 
     65 C         -45.8828  -24.6680   10.6142 C.2       4 UNK         0.5027 
     66 O         -46.0552  -24.4407   11.8093 O.2       4 UNK        -0.5211 
     67 CA        -45.0992  -23.6520    9.7661 C.3       4 UNK         0.0297 
     68 CB        -43.6281  -24.0771    9.6392 C.3       4 UNK        -0.1993 
     69 N         -45.6723  -23.4623    8.4332 N.am      4 UNK        -0.4486 
     70 C         -46.8873  -22.9490    8.1951 C.2       3 UNK         0.4961 
     71 O         -47.6294  -22.5087    9.0739 O.2       3 UNK        -0.5105 
     72 CA        -47.3762  -22.9859    6.7346 C.3       3 UNK         0.0299 
     73 CB        -46.9478  -21.7096    5.9939 C.3       3 UNK        -0.1972 
     74 N         -46.9363  -24.1675    5.9757 N.am      3 UNK        -0.4305 
     75 C         -47.1509  -25.4399    6.3417 C.2       2 UNK         0.5006 
     76 O         -47.6859  -25.7619    7.4030 O.2       2 UNK        -0.5106 
     77 CA        -46.6135  -26.5350    5.4064 C.3       2 UNK         0.0296 
     78 CB        -45.1254  -26.7950    5.6931 C.3       2 UNK        -0.2002 
     79 N         -47.3495  -27.7887    5.5812 N.am      2 UNK        -0.4032 
     80 C         -48.6147  -28.0010    5.2009 C.2       1 UNK         0.5000 
     81 O         -49.2668  -27.1922    4.5373 O.2       1 UNK        -0.5238 
     82 H82       -45.6382  -32.0148    5.3053 H         1 UNK         0.0889 
     83 H83       -47.2035  -32.7055    4.8711 H         1 UNK         0.0889 
     84 H84       -46.6008  -32.8569    6.5226 H         1 UNK         0.0889 
     85 H85       -48.7552  -31.1480    4.6693 H         1 UNK         0.3028 
     86 H86       -50.0841  -29.4644    4.8790 H         1 UNK         0.0864 
     87 H87       -50.3335  -28.2779    7.2169 H         1 UNK         0.0720 
     88 H88       -49.1554  -29.3989    7.7819 H         1 UNK         0.0720 
     89 H89       -52.3556  -29.6840    5.3204 H         1 UNK         0.0814 
     90 H90       -53.4027  -30.6428    6.3222 H         1 UNK         0.0814 
     91 H91       -51.9120  -27.2843    5.8875 H         1 UNK         0.1469 
     92 H92       -54.6613  -25.3705    8.5566 H         1 UNK         0.1381 
     93 H93       -54.6579  -29.6463    8.1805 H         1 UNK         0.1206 
     94 H94       -56.8288  -27.0808    8.9639 H         1 UNK         0.0813 
     95 H95       -56.3025  -28.6378    9.5459 H         1 UNK         0.0813 
     96 H96       -53.7990  -27.3781   12.4456 H         1 UNK         0.0638 
     97 H97       -53.5794  -28.1017   10.8780 H         1 UNK         0.0638 
     98 H98       -55.2178  -29.8694   11.4069 H         1 UNK         0.0568 
     99 H99       -54.1300  -29.9896   14.7444 H         1 UNK         0.3450 
    100 H100      -52.6934  -30.9241   14.3945 H         1 UNK         0.3450 
    101 H101      -55.9658  -28.2187   13.6476 H         1 UNK         0.2987 
    102 H102      -58.6108  -29.5141   14.3167 H         1 UNK         0.0766 
    103 H103      -58.6414  -30.7669   16.4901 H         1 UNK         0.0798 
    104 H104      -57.0102  -31.3549   16.1716 H         1 UNK         0.0798 
    105 H105      -58.3435  -31.8333   15.1304 H         1 UNK         0.0798 
    106 H106      -58.0204  -27.9243   15.7365 H         1 UNK         0.3198 
    107 H107      -56.5256  -26.3575   16.7116 H         1 UNK         0.0843 
    108 H108      -56.5817  -28.3415   19.0758 H         1 UNK         0.0831 
    109 H109      -58.0072  -27.7318   18.2483 H         1 UNK         0.0831 
    110 H110      -57.0030  -26.6335   19.1710 H         1 UNK         0.0831 
    111 H111      -54.0986  -27.6882   17.3598 H         1 UNK         0.3133 
    112 H112      -52.4994  -24.7298   18.5851 H         1 UNK         0.0566 
    113 H113      -51.4553  -26.3138   20.1817 H         1 UNK         0.0814 
    114 H114      -53.0928  -25.9331   20.6862 H         1 UNK         0.0814 
    115 H115      -52.7547  -27.4787   19.9207 H         1 UNK         0.0814 
    116 H116      -51.5270  -27.3089   17.7689 H         1 UNK         0.3091 
    117 H117      -50.4540  -27.6274   15.9227 H         1 UNK         0.0702 
    118 H118      -52.5118  -27.7479   14.4614 H         1 UNK         0.0785 
    119 H119      -51.8786  -26.4121   13.5039 H         1 UNK         0.0785 
    120 H120      -51.0146  -27.9485   13.5613 H         1 UNK         0.0785 
    121 H121      -49.5639  -25.8263   13.9311 H         1 UNK         0.2998 
    122 H122      -47.1748  -24.0243   15.8528 H         1 UNK         0.0697 
    123 H123      -46.6531  -26.3639   13.9481 H         1 UNK         0.0825 
    124 H124      -46.0508  -26.2449   15.5957 H         1 UNK         0.0825 
    125 H125      -45.5052  -25.0978   14.3850 H         1 UNK         0.0825 
    126 H126      -47.4952  -24.1944   13.0421 H         1 UNK         0.3029 
    127 H127      -49.8858  -21.5043   12.7914 H         1 UNK         0.0897 
    128 H128      -48.0397  -20.6195   11.3931 H         1 UNK         0.0792 
    129 H129      -46.9102  -21.7718   12.1001 H         1 UNK         0.0792 
    130 H130      -47.6170  -20.5051   13.0948 H         1 UNK         0.0792 
    131 H131      -48.5652  -23.0732   10.7946 H         1 UNK         0.3086 
    132 H132      -51.2221  -25.4328   10.3284 H         1 UNK         0.0583 
    133 H133      -51.8690  -23.4443    9.0590 H         1 UNK         0.1020 
    134 H134      -50.2177  -22.9917    8.7762 H         1 UNK         0.1020 
    135 H135      -53.1555  -24.0173    7.2545 H         1 UNK         0.0694 
    136 H136      -52.6537  -24.7286    5.7444 H         1 UNK         0.0694 
    137 H137      -48.6988  -25.3007    9.0904 H         1 UNK         0.2989 
    138 H138      -46.7731  -27.0003   11.5967 H         1 UNK         0.1055 
    139 H139      -47.8459  -28.8111   10.2859 H         1 UNK         0.0806 
    140 H140      -46.2527  -28.4448    9.6441 H         1 UNK         0.0806 
    141 H141      -47.6936  -27.8761    8.8098 H         1 UNK         0.0806 
    142 H142      -46.3043  -25.8013    8.9787 H         1 UNK         0.3061 
    143 H143      -45.1346  -22.6915   10.2850 H         1 UNK         0.0734 
    144 H144      -43.0411  -23.3257    9.1107 H         1 UNK         0.0832 
    145 H145      -43.1751  -24.2058   10.6234 H         1 UNK         0.0832 
    146 H146      -43.5233  -25.0233    9.1068 H         1 UNK         0.0832 
    147 H147      -45.1340  -23.7976    7.6481 H         1 UNK         0.3156 
    148 H148      -48.4667  -23.0086    6.7610 H         1 UNK         0.0589 
    149 H149      -45.8637  -21.6435    5.8937 H         1 UNK         0.0808 
    150 H150      -47.3822  -21.6646    4.9951 H         1 UNK         0.0808 
    151 H151      -47.2804  -20.8186    6.5289 H         1 UNK         0.0808 
    152 H152      -46.4716  -23.9900    5.0966 H         1 UNK         0.3098 
    153 H153      -46.7287  -26.2051    4.3720 H         1 UNK         0.0720 
    154 H154      -44.9653  -27.1278    6.7199 H         1 UNK         0.0791 
    155 H155      -44.5300  -25.8933    5.5442 H         1 UNK         0.0791 
    156 H156      -44.7227  -27.5598    5.0286 H         1 UNK         0.0791 
    157 H157      -46.9182  -28.5097    6.1551 H         1 UNK         0.3028 
@<TRIPOS>BOND
     1    1    2 1    
     2    1   82 1    
     3    1   83 1    
     4    1   84 1    
     5    2    3 2    
     6    2    4 am   BACKBONE|DICT|INTERRES
     7    4    5 1    
     8    4   85 1    
     9    5    6 1    
    10    5   80 1    
    11    5   86 1    
    12    6    7 1    
    13    6   87 1    
    14    6   88 1    
    15    7    8 1    
    16    8    9 1    
    17    8   89 1    
    18    8   90 1    
    19    9   10 ar   
    20    9   14 ar   
    21   10   11 ar   
    22   10   91 1    
    23   11   12 ar   
    24   11   58 1    
    25   12   13 ar   
    26   12   92 1    
    27   13   14 ar   
    28   13   15 1    
    29   14   93 1    
    30   15   16 1    
    31   15   94 1    
    32   15   95 1    
    33   16   17 1    
    34   17   18 1    
    35   17   96 1    
    36   17   97 1    
    37   18   19 1    
    38   18   22 1    
    39   18   98 1    
    40   19   20 am   BACKBONE|DICT|INTERRES
    41   19   21 2    
    42   20   99 1    
    43   20  100 1    
    44   22   23 am   BACKBONE|DICT|INTERRES
    45   22  101 1    
    46   23   24 2    
    47   23   25 1    
    48   25   26 1    
    49   25   27 1    
    50   25  102 1    
    51   26  103 1    
    52   26  104 1    
    53   26  105 1    
    54   27   28 am   BACKBONE|DICT|INTERRES
    55   27  106 1    
    56   28   29 2    
    57   28   30 1    
    58   30   31 1    
    59   30   32 1    
    60   30  107 1    
    61   31  108 1    
    62   31  109 1    
    63   31  110 1    
    64   32   33 am   BACKBONE|DICT|INTERRES
    65   32  111 1    
    66   33   34 2    
    67   33   35 1    
    68   35   36 1    
    69   35   37 1    
    70   35  112 1    
    71   36  113 1    
    72   36  114 1    
    73   36  115 1    
    74   37   38 am   BACKBONE|DICT|INTERRES
    75   37  116 1    
    76   38   39 2    
    77   38   40 1    
    78   40   41 1    
    79   40   42 1    
    80   40  117 1    
    81   41  118 1    
    82   41  119 1    
    83   41  120 1    
    84   42   43 am   BACKBONE|DICT|INTERRES
    85   42  121 1    
    86   43   44 2    
    87   43   45 1    
    88   45   46 1    
    89   45   47 1    
    90   45  122 1    
    91   46  123 1    
    92   46  124 1    
    93   46  125 1    
    94   47   48 am   BACKBONE|DICT|INTERRES
    95   47  126 1    
    96   48   49 2    
    97   48   50 1    
    98   50   51 1    
    99   50   52 1    
   100   50  127 1    
   101   51  128 1    
   102   51  129 1    
   103   51  130 1    
   104   52   53 am   BACKBONE|DICT|INTERRES
   105   52  131 1    
   106   53   54 2    
   107   53   55 1    
   108   55   56 1    
   109   55   59 1    
   110   55  132 1    
   111   56   57 1    
   112   56  133 1    
   113   56  134 1    
   114   57   58 1    
   115   58  135 1    
   116   58  136 1    
   117   59   60 am   BACKBONE|DICT|INTERRES
   118   59  137 1    
   119   60   61 2    
   120   60   62 1    
   121   62   63 1    
   122   62   64 1    
   123   62  138 1    
   124   63  139 1    
   125   63  140 1    
   126   63  141 1    
   127   64   65 am   BACKBONE|DICT|INTERRES
   128   64  142 1    
   129   65   66 2    
   130   65   67 1    
   131   67   68 1    
   132   67   69 1    
   133   67  143 1    
   134   68  144 1    
   135   68  145 1    
   136   68  146 1    
   137   69   70 am   BACKBONE|DICT|INTERRES
   138   69  147 1    
   139   70   71 2    
   140   70   72 1    
   141   72   73 1    
   142   72   74 1    
   143   72  148 1    
   144   73  149 1    
   145   73  150 1    
   146   73  151 1    
   147   74   75 am   BACKBONE|DICT|INTERRES
   148   74  152 1    
   149   75   76 2    
   150   75   77 1    
   151   77   78 1    
   152   77   79 1    
   153   77  153 1    
   154   78  154 1    
   155   78  155 1    
   156   78  156 1    
   157   79   80 am   BACKBONE|DICT|INTERRES
   158   79  157 1    
   159   80   81 2    
@<TRIPOS>SUBSTRUCTURE
     1 UNK         1 GROUP             0       ****    0 ROOT    
