@<TRIPOS>MOLECULE
3R207
157   159    1
SMALL
USER_CHARGES


@<TRIPOS>ATOM
      1 CA        -49.1906  -30.3660    1.7736 C.3       0 UNK        -0.1975 
      2 C         -48.7208  -29.6512    3.0323 C.2       0 UNK         0.4852 
      3 O         -47.5219  -29.4128    3.1834 O.2       0 UNK        -0.5216 
      4 N         -49.6585  -29.3140    3.9293 N.am      1 UNK        -0.4461 
      5 CA        -49.4476  -28.6051    5.1975 C.3       1 UNK         0.0864 
      6 C6        -48.6402  -29.4255    6.2457 C.3       14 UNK        -0.0898 
      7 S7        -49.5698  -30.8764    6.8464 S.3       14 UNK        -0.2598 
      8 C8        -49.4093  -30.7034    8.6597 C.3       14 UNK         0.0286 
      9 C9        -50.5127  -29.8751    9.3203 C.ar      14 UNK        -0.0844 
     10 C10       -50.9574  -28.6643    8.7755 C.ar      14 UNK        -0.0881 
     11 C11       -51.9676  -27.9220    9.3951 C.ar      14 UNK        -0.0643 
     12 C12       -52.5184  -28.3846   10.5920 C.ar      14 UNK        -0.0930 
     13 C13       -52.0800  -29.5856   11.1557 C.ar      14 UNK        -0.0827 
     14 C14       -51.0808  -30.3252   10.5168 C.ar      14 UNK        -0.1249 
     15 C15       -52.6854  -30.0720   12.4609 C.3       14 UNK         0.0141 
     16 S16       -54.4224  -30.5690   12.2456 S.3       14 UNK        -0.2313 
     17 C17       -54.9665  -30.6337   13.9836 C.3       14 UNK        -0.0915 
     18 CA        -56.4607  -30.2562   14.1602 C.3       13 UNK         0.0968 
     19 C         -56.9199  -30.5235   15.6244 C.2       13 UNK         0.5732 
     20 N         -57.3026  -29.5160   16.4009 N.am      13 UNK        -0.7310 
     21 O         -56.9373  -31.6720   16.0615 O.2       13 UNK        -0.5035 
     22 N         -56.7699  -28.8992   13.6662 N.am      13 UNK        -0.4233 
     23 C         -58.0070  -28.5008   13.3280 C.2       13 UNK         0.4989 
     24 O         -58.9752  -29.2629   13.3079 O.2       13 UNK        -0.4996 
     25 CA        -58.2484  -27.0169   12.9843 C.3       12 UNK         0.0216 
     26 CB        -59.2151  -26.3812   13.9997 C.3       12 UNK        -0.1964 
     27 N         -57.0288  -26.2109   12.9411 N.am      12 UNK        -0.4276 
     28 C         -56.2434  -26.0555   11.8685 C.2       12 UNK         0.5020 
     29 O         -56.4772  -26.5528   10.7668 O.2       12 UNK        -0.5489 
     30 CA        -54.9716  -25.2050   12.0587 C.3       11 UNK         0.0294 
     31 CB        -55.1966  -23.7740   11.5448 C.3       11 UNK        -0.2019 
     32 N         -54.4609  -25.1516   13.4361 N.am      11 UNK        -0.4493 
     33 C         -54.0665  -26.2208   14.1379 C.2       11 UNK         0.4932 
     34 O         -54.1954  -27.3802   13.7452 O.2       11 UNK        -0.5029 
     35 CA        -53.4504  -25.9781   15.5140 C.3       10 UNK         0.0280 
     36 CB        -54.4478  -26.3132   16.6366 C.3       10 UNK        -0.1976 
     37 N         -52.2866  -26.8497   15.5916 N.am      10 UNK        -0.4242 
     38 C         -51.1695  -26.6093   16.2824 C.2       10 UNK         0.5072 
     39 O         -51.0588  -25.6860   17.0912 O.2       10 UNK        -0.5224 
     40 CA        -49.9748  -27.5524   16.0335 C.3       9 UNK         0.0343 
     41 CB        -50.2555  -28.6806   15.0173 C.3       9 UNK        -0.2003 
     42 N         -48.8372  -26.7689   15.5562 N.am      9 UNK        -0.4272 
     43 C         -47.9072  -26.2026   16.3360 C.2       9 UNK         0.4988 
     44 O         -47.8198  -26.3812   17.5520 O.2       9 UNK        -0.5108 
     45 CA        -46.8963  -25.2755   15.6401 C.3       8 UNK         0.0248 
     46 CB        -45.7588  -26.0940   15.0081 C.3       8 UNK        -0.2001 
     47 N         -47.5145  -24.4113   14.6287 N.am      8 UNK        -0.4140 
     48 C         -48.3718  -23.4159   14.9048 C.2       8 UNK         0.5028 
     49 O         -48.6872  -23.0814   16.0473 O.2       8 UNK        -0.5428 
     50 CA        -48.9727  -22.6468   13.7153 C.3       7 UNK         0.0264 
     51 CB        -48.0216  -21.5291   13.2580 C.3       7 UNK        -0.1988 
     52 N         -49.2973  -23.5057   12.5760 N.am      7 UNK        -0.4454 
     53 C         -50.2897  -24.4084   12.5518 C.2       7 UNK         0.5027 
     54 O         -51.0878  -24.5739   13.4727 O.2       7 UNK        -0.5083 
     55 CA        -50.3944  -25.2880   11.2879 C.3       6 UNK         0.0844 
     56 C56       -51.2171  -24.5604   10.1937 C.3       14 UNK        -0.0967 
     57 S57       -51.2066  -25.3776    8.5621 S.3       14 UNK        -0.2604 
     58 C58       -52.4934  -26.6507    8.7414 C.3       14 UNK         0.0134 
     59 N         -49.0749  -25.7283   10.8260 N.am      6 UNK        -0.4116 
     60 C         -48.2313  -26.4908   11.5363 C.2       5 UNK         0.5034 
     61 O         -48.4792  -26.9416   12.6547 O.2       5 UNK        -0.5045 
     62 CA        -46.8480  -26.7350   10.9193 C.3       5 UNK         0.0224 
     63 CB        -46.8960  -27.8918    9.9098 C.3       5 UNK        -0.1978 
     64 N         -46.3270  -25.5238   10.2801 N.am      5 UNK        -0.4737 
     65 C         -45.8893  -24.4547   10.9622 C.2       4 UNK         0.5027 
     66 O         -45.8429  -24.4061   12.1902 O.2       4 UNK        -0.5211 
     67 CA        -45.4730  -23.2168   10.1491 C.3       4 UNK         0.0297 
     68 CB        -44.0044  -23.3300    9.7118 C.3       4 UNK        -0.1993 
     69 N         -46.3173  -22.9878    8.9753 N.am      4 UNK        -0.4486 
     70 C         -47.6314  -22.7270    9.0186 C.2       3 UNK         0.4961 
     71 O         -48.2670  -22.5884   10.0630 O.2       3 UNK        -0.5105 
     72 CA        -48.3737  -22.6548    7.6722 C.3       3 UNK         0.0299 
     73 CB        -48.4304  -21.2033    7.1711 C.3       3 UNK        -0.1972 
     74 N         -47.8174  -23.5161    6.6195 N.am      3 UNK        -0.4305 
     75 C         -47.6559  -24.8434    6.7140 C.2       2 UNK         0.5006 
     76 O         -47.8715  -25.4929    7.7403 O.2       2 UNK        -0.5106 
     77 CA        -47.0986  -25.5603    5.4758 C.3       2 UNK         0.0296 
     78 CB        -45.5672  -25.6631    5.5660 C.3       2 UNK        -0.2002 
     79 N         -47.6638  -26.9053    5.3885 N.am      2 UNK        -0.4032 
     80 C         -48.9015  -27.1804    4.9542 C.2       1 UNK         0.5000 
     81 O         -49.6271  -26.3532    4.3967 O.2       1 UNK        -0.5238 
     82 H82       -48.7092  -31.3403    1.6945 H         1 UNK         0.0889 
     83 H83       -48.9278  -29.7831    0.8912 H         1 UNK         0.0889 
     84 H84       -50.2695  -30.5201    1.7694 H         1 UNK         0.0889 
     85 H85       -50.6242  -29.5277    3.7227 H         1 UNK         0.3028 
     86 H86       -50.4473  -28.4479    5.6044 H         1 UNK         0.0864 
     87 H87       -48.3883  -28.8047    7.1063 H         1 UNK         0.0720 
     88 H88       -47.6905  -29.7717    5.8352 H         1 UNK         0.0720 
     89 H89       -48.4361  -30.2830    8.9118 H         1 UNK         0.0814 
     90 H90       -49.4111  -31.7118    9.0763 H         1 UNK         0.0814 
     91 H91       -50.5290  -28.2882    7.8616 H         1 UNK         0.1469 
     92 H92       -53.3033  -27.8260   11.0829 H         1 UNK         0.1381 
     93 H93       -50.7427  -31.2538   10.9561 H         1 UNK         0.1206 
     94 H94       -52.1214  -30.9132   12.8665 H         1 UNK         0.0813 
     95 H95       -52.6119  -29.2723   13.1950 H         1 UNK         0.0813 
     96 H96       -54.3441  -29.9751   14.5915 H         1 UNK         0.0638 
     97 H97       -54.7782  -31.6475   14.3420 H         1 UNK         0.0638 
     98 H98       -57.0312  -30.9585   13.5493 H         1 UNK         0.0568 
     99 H99       -57.2975  -28.5717   16.0544 H         1 UNK         0.3450 
    100 H100      -57.6017  -29.7081   17.3437 H         1 UNK         0.3450 
    101 H101      -55.9904  -28.2505   13.6297 H         1 UNK         0.2987 
    102 H102      -58.7271  -26.9910   12.0030 H         1 UNK         0.0766 
    103 H103      -60.1636  -26.9196   14.0305 H         1 UNK         0.0798 
    104 H104      -59.4436  -25.3481   13.7365 H         1 UNK         0.0798 
    105 H105      -58.8048  -26.3877   15.0102 H         1 UNK         0.0798 
    106 H106      -56.7483  -25.7585   13.7990 H         1 UNK         0.3198 
    107 H107      -54.1925  -25.6639   11.4493 H         1 UNK         0.0843 
    108 H108      -55.9537  -23.2499   12.1294 H         1 UNK         0.0831 
    109 H109      -55.5339  -23.7810   10.5072 H         1 UNK         0.0831 
    110 H110      -54.2783  -23.1876   11.5799 H         1 UNK         0.0831 
    111 H111      -54.3180  -24.2334   13.8329 H         1 UNK         0.3133 
    112 H112      -53.1368  -24.9346   15.5913 H         1 UNK         0.0566 
    113 H113      -54.7834  -27.3499   16.5821 H         1 UNK         0.0814 
    114 H114      -55.3318  -25.6774   16.5775 H         1 UNK         0.0814 
    115 H115      -54.0024  -26.1585   17.6194 H         1 UNK         0.0814 
    116 H116      -52.3048  -27.6131   14.9285 H         1 UNK         0.3091 
    117 H117      -49.7287  -28.0188   16.9895 H         1 UNK         0.0702 
    118 H118      -49.3830  -29.3242   14.9031 H         1 UNK         0.0785 
    119 H119      -50.4982  -28.2892   14.0280 H         1 UNK         0.0785 
    120 H120      -51.0773  -29.3188   15.3449 H         1 UNK         0.0785 
    121 H121      -48.8004  -26.5962   14.5554 H         1 UNK         0.2998 
    122 H122      -46.4598  -24.6301   16.4053 H         1 UNK         0.0697 
    123 H123      -44.9875  -25.4456   14.5923 H         1 UNK         0.0825 
    124 H124      -46.1220  -26.7392   14.2079 H         1 UNK         0.0825 
    125 H125      -45.2784  -26.7330   15.7502 H         1 UNK         0.0825 
    126 H126      -47.2322  -24.5627   13.6655 H         1 UNK         0.3029 
    127 H127      -49.9006  -22.1840   14.0586 H         1 UNK         0.0897 
    128 H128      -47.0794  -21.9297   12.8824 H         1 UNK         0.0792 
    129 H129      -47.7853  -20.8552   14.0826 H         1 UNK         0.0792 
    130 H130      -48.4681  -20.9284   12.4653 H         1 UNK         0.0792 
    131 H131      -48.7458  -23.3691   11.7317 H         1 UNK         0.3086 
    132 H132      -50.9410  -26.1890   11.5723 H         1 UNK         0.0583 
    133 H133      -52.2497  -24.4303   10.5200 H         1 UNK         0.1020 
    134 H134      -50.8307  -23.5514   10.0367 H         1 UNK         0.1020 
    135 H135      -53.3460  -26.2437    9.2857 H         1 UNK         0.0694 
    136 H136      -52.8644  -26.9049    7.7476 H         1 UNK         0.0694 
    137 H137      -48.7976  -25.4280    9.8997 H         1 UNK         0.2989 
    138 H138      -46.1664  -27.0171   11.7248 H         1 UNK         0.1055 
    139 H139      -45.9232  -28.0611    9.4484 H         1 UNK         0.0806 
    140 H140      -47.6199  -27.7083    9.1161 H         1 UNK         0.0806 
    141 H141      -47.1867  -28.8185   10.4059 H         1 UNK         0.0806 
    142 H142      -46.4365  -25.4575    9.2746 H         1 UNK         0.3061 
    143 H143      -45.5697  -22.3465   10.8017 H         1 UNK         0.0734 
    144 H144      -43.8467  -24.1695    9.0333 H         1 UNK         0.0832 
    145 H145      -43.6675  -22.4227    9.2100 H         1 UNK         0.0832 
    146 H146      -43.3530  -23.4817   10.5738 H         1 UNK         0.0832 
    147 H147      -45.8816  -23.0836    8.0701 H         1 UNK         0.3156 
    148 H148      -49.3967  -22.9897    7.8526 H         1 UNK         0.0589 
    149 H149      -49.0507  -21.1142    6.2790 H         1 UNK         0.0808 
    150 H150      -47.4382  -20.8182    6.9325 H         1 UNK         0.0808 
    151 H151      -48.8614  -20.5463    7.9282 H         1 UNK         0.0808 
    152 H152      -47.5929  -23.0650    5.7440 H         1 UNK         0.3098 
    153 H153      -47.3657  -24.9989    4.5779 H         1 UNK         0.0720 
    154 H154      -45.1088  -24.6739    5.5991 H         1 UNK         0.0791 
    155 H155      -45.1540  -26.1806    4.6999 H         1 UNK         0.0791 
    156 H156      -45.2486  -26.2005    6.4606 H         1 UNK         0.0791 
    157 H157      -47.1358  -27.6410    5.8329 H         1 UNK         0.3028 
@<TRIPOS>BOND
     1    1    2 1    
     2    1   82 1    
     3    1   83 1    
     4    1   84 1    
     5    2    3 2    
     6    2    4 am   BACKBONE|DICT|INTERRES
     7    4    5 1    
     8    4   85 1    
     9    5    6 1    
    10    5   80 1    
    11    5   86 1    
    12    6    7 1    
    13    6   87 1    
    14    6   88 1    
    15    7    8 1    
    16    8    9 1    
    17    8   89 1    
    18    8   90 1    
    19    9   10 ar   
    20    9   14 ar   
    21   10   11 ar   
    22   10   91 1    
    23   11   12 ar   
    24   11   58 1    
    25   12   13 ar   
    26   12   92 1    
    27   13   14 ar   
    28   13   15 1    
    29   14   93 1    
    30   15   16 1    
    31   15   94 1    
    32   15   95 1    
    33   16   17 1    
    34   17   18 1    
    35   17   96 1    
    36   17   97 1    
    37   18   19 1    
    38   18   22 1    
    39   18   98 1    
    40   19   20 am   BACKBONE|DICT|INTERRES
    41   19   21 2    
    42   20   99 1    
    43   20  100 1    
    44   22   23 am   BACKBONE|DICT|INTERRES
    45   22  101 1    
    46   23   24 2    
    47   23   25 1    
    48   25   26 1    
    49   25   27 1    
    50   25  102 1    
    51   26  103 1    
    52   26  104 1    
    53   26  105 1    
    54   27   28 am   BACKBONE|DICT|INTERRES
    55   27  106 1    
    56   28   29 2    
    57   28   30 1    
    58   30   31 1    
    59   30   32 1    
    60   30  107 1    
    61   31  108 1    
    62   31  109 1    
    63   31  110 1    
    64   32   33 am   BACKBONE|DICT|INTERRES
    65   32  111 1    
    66   33   34 2    
    67   33   35 1    
    68   35   36 1    
    69   35   37 1    
    70   35  112 1    
    71   36  113 1    
    72   36  114 1    
    73   36  115 1    
    74   37   38 am   BACKBONE|DICT|INTERRES
    75   37  116 1    
    76   38   39 2    
    77   38   40 1    
    78   40   41 1    
    79   40   42 1    
    80   40  117 1    
    81   41  118 1    
    82   41  119 1    
    83   41  120 1    
    84   42   43 am   BACKBONE|DICT|INTERRES
    85   42  121 1    
    86   43   44 2    
    87   43   45 1    
    88   45   46 1    
    89   45   47 1    
    90   45  122 1    
    91   46  123 1    
    92   46  124 1    
    93   46  125 1    
    94   47   48 am   BACKBONE|DICT|INTERRES
    95   47  126 1    
    96   48   49 2    
    97   48   50 1    
    98   50   51 1    
    99   50   52 1    
   100   50  127 1    
   101   51  128 1    
   102   51  129 1    
   103   51  130 1    
   104   52   53 am   BACKBONE|DICT|INTERRES
   105   52  131 1    
   106   53   54 2    
   107   53   55 1    
   108   55   56 1    
   109   55   59 1    
   110   55  132 1    
   111   56   57 1    
   112   56  133 1    
   113   56  134 1    
   114   57   58 1    
   115   58  135 1    
   116   58  136 1    
   117   59   60 am   BACKBONE|DICT|INTERRES
   118   59  137 1    
   119   60   61 2    
   120   60   62 1    
   121   62   63 1    
   122   62   64 1    
   123   62  138 1    
   124   63  139 1    
   125   63  140 1    
   126   63  141 1    
   127   64   65 am   BACKBONE|DICT|INTERRES
   128   64  142 1    
   129   65   66 2    
   130   65   67 1    
   131   67   68 1    
   132   67   69 1    
   133   67  143 1    
   134   68  144 1    
   135   68  145 1    
   136   68  146 1    
   137   69   70 am   BACKBONE|DICT|INTERRES
   138   69  147 1    
   139   70   71 2    
   140   70   72 1    
   141   72   73 1    
   142   72   74 1    
   143   72  148 1    
   144   73  149 1    
   145   73  150 1    
   146   73  151 1    
   147   74   75 am   BACKBONE|DICT|INTERRES
   148   74  152 1    
   149   75   76 2    
   150   75   77 1    
   151   77   78 1    
   152   77   79 1    
   153   77  153 1    
   154   78  154 1    
   155   78  155 1    
   156   78  156 1    
   157   79   80 am   BACKBONE|DICT|INTERRES
   158   79  157 1    
   159   80   81 2    
@<TRIPOS>SUBSTRUCTURE
     1 UNK         1 GROUP             0       ****    0 ROOT    
