@<TRIPOS>MOLECULE
3R207
157   159    1
SMALL
USER_CHARGES


@<TRIPOS>ATOM
      1 CA        -46.6818  -30.2482    7.4180 C.3       0 UNK        -0.1975 
      2 C         -47.4312  -29.6030    6.2639 C.2       0 UNK         0.4852 
      3 O         -46.7989  -29.0729    5.3493 O.2       0 UNK        -0.5216 
      4 N         -48.7693  -29.6661    6.2815 N.am      1 UNK        -0.4461 
      5 CA        -49.6345  -29.1530    5.2147 C.3       1 UNK         0.0864 
      6 C6        -51.0785  -29.7284    5.2448 C.3       14 UNK        -0.0898 
      7 S7        -51.1747  -31.4893    5.7362 S.3       14 UNK        -0.2598 
      8 C8        -52.4406  -31.4766    7.0536 C.3       14 UNK         0.0286 
      9 C9        -52.1401  -30.4833    8.1710 C.ar      14 UNK        -0.0844 
     10 C10       -51.1481  -30.7522    9.1198 C.ar      14 UNK        -0.0881 
     11 C11       -50.8807  -29.8360   10.1429 C.ar      14 UNK        -0.0643 
     12 C12       -51.6096  -28.6448   10.2071 C.ar      14 UNK        -0.0930 
     13 C13       -52.6013  -28.3626    9.2649 C.ar      14 UNK        -0.0827 
     14 C14       -52.8698  -29.2927    8.2583 C.ar      14 UNK        -0.1249 
     15 C15       -53.3650  -27.0441    9.3134 C.3       14 UNK         0.0141 
     16 S16       -54.2370  -26.7855   10.8912 S.3       14 UNK        -0.2313 
     17 C17       -55.4516  -28.1499   10.8962 C.3       14 UNK        -0.0915 
     18 CA        -56.9269  -27.6594   11.0093 C.3       13 UNK         0.0968 
     19 C         -57.9510  -28.8324   10.9216 C.2       13 UNK         0.5732 
     20 N         -59.0643  -28.7965   11.6445 N.am      13 UNK        -0.7310 
     21 O         -57.7567  -29.7755   10.1579 O.2       13 UNK        -0.5035 
     22 N         -57.1524  -26.7249   12.1303 N.am      13 UNK        -0.4233 
     23 C         -56.9395  -26.9832   13.4263 C.2       13 UNK         0.4989 
     24 O         -56.5724  -28.0726   13.8719 O.2       13 UNK        -0.4996 
     25 CA        -57.1817  -25.8251   14.3985 C.3       12 UNK         0.0216 
     26 CB        -58.5091  -25.9964   15.1563 C.3       12 UNK        -0.1964 
     27 N         -56.0697  -25.8062   15.3406 N.am      12 UNK        -0.4276 
     28 C         -55.4577  -24.7171   15.8132 C.2       12 UNK         0.5020 
     29 O         -55.8605  -23.5701   15.6132 O.2       12 UNK        -0.5489 
     30 CA        -54.1606  -24.9222   16.6175 C.3       11 UNK         0.0294 
     31 CB        -54.4443  -25.0840   18.1236 C.3       11 UNK        -0.2019 
     32 N         -53.2945  -25.9908   16.0976 N.am      11 UNK        -0.4493 
     33 C         -53.4747  -27.3194   16.1300 C.2       11 UNK         0.4932 
     34 O         -54.4517  -27.8670   16.6405 O.2       11 UNK        -0.5029 
     35 CA        -52.4054  -28.1871   15.4469 C.3       10 UNK         0.0280 
     36 CB        -52.7479  -28.3792   13.9613 C.3       10 UNK        -0.1976 
     37 N         -51.0521  -27.6412   15.5664 N.am      10 UNK        -0.4242 
     38 C         -50.3444  -27.5858   16.7032 C.2       10 UNK         0.5072 
     39 O         -50.7453  -28.0171   17.7853 O.2       10 UNK        -0.5224 
     40 CA        -48.9507  -26.9389   16.6208 C.3       9 UNK         0.0343 
     41 CB        -47.9211  -27.9262   16.0470 C.3       9 UNK        -0.2003 
     42 N         -48.9468  -25.7044   15.8324 N.am      9 UNK        -0.4272 
     43 C         -49.5290  -24.5599   16.2212 C.2       9 UNK         0.4988 
     44 O         -50.0821  -24.4072   17.3107 O.2       9 UNK        -0.5108 
     45 CA        -49.5026  -23.3854   15.2276 C.3       8 UNK         0.0248 
     46 CB        -48.1651  -22.6333   15.3170 C.3       8 UNK        -0.2001 
     47 N         -49.7476  -23.7926   13.8421 N.am      8 UNK        -0.4140 
     48 C         -50.8827  -24.3529   13.4002 C.2       8 UNK         0.5028 
     49 O         -51.8714  -24.5444   14.1069 O.2       8 UNK        -0.5428 
     50 CA        -50.8986  -24.8402   11.9407 C.3       7 UNK         0.0264 
     51 CB        -51.1621  -23.6808   10.9685 C.3       7 UNK        -0.1988 
     52 N         -49.6728  -25.5465   11.5566 N.am      7 UNK        -0.4454 
     53 C         -49.2218  -26.6548   12.1646 C.2       7 UNK         0.5027 
     54 O         -49.7967  -27.2005   13.1045 O.2       7 UNK        -0.5083 
     55 CA        -47.8860  -27.2273   11.6656 C.3       6 UNK         0.0844 
     56 C56       -48.0697  -28.0399   10.3544 C.3       14 UNK        -0.0967 
     57 S57       -48.1290  -29.8428   10.6405 S.3       14 UNK        -0.2604 
     58 C58       -49.8348  -30.1477   11.2033 C.3       14 UNK         0.0134 
     59 N         -46.8907  -26.1592   11.5501 N.am      6 UNK        -0.4116 
     60 C         -46.3598  -25.5103   12.5985 C.2       5 UNK         0.5034 
     61 O         -46.6040  -25.7841   13.7737 O.2       5 UNK        -0.5045 
     62 CA        -45.4359  -24.3224   12.2823 C.3       5 UNK         0.0224 
     63 CB        -43.9970  -24.8043   12.0385 C.3       5 UNK        -0.1978 
     64 N         -45.8935  -23.5379   11.1323 N.am      5 UNK        -0.4737 
     65 C         -47.0458  -22.8538   11.0936 C.2       4 UNK         0.5027 
     66 O         -47.8206  -22.7681   12.0440 O.2       4 UNK        -0.5211 
     67 CA        -47.4221  -22.1955    9.7572 C.3       4 UNK         0.0297 
     68 CB        -46.8840  -20.7575    9.6980 C.3       4 UNK        -0.1993 
     69 N         -46.9600  -22.9439    8.5837 N.am      4 UNK        -0.4486 
     70 C         -47.3394  -24.1891    8.2675 C.2       3 UNK         0.4961 
     71 O         -48.1017  -24.8779    8.9523 O.2       3 UNK        -0.5105 
     72 CA        -46.7392  -24.7701    6.9857 C.3       3 UNK         0.0299 
     73 CB        -45.8422  -25.9815    7.2909 C.3       3 UNK        -0.1972 
     74 N         -47.8310  -25.1780    6.1112 N.am      3 UNK        -0.4305 
     75 C         -47.8948  -24.9751    4.7908 C.2       2 UNK         0.5006 
     76 O         -47.0035  -24.4251    4.1403 O.2       2 UNK        -0.5106 
     77 CA        -49.1623  -25.4932    4.0779 C.3       2 UNK         0.0296 
     78 CB        -49.2187  -25.0860    2.5930 C.3       2 UNK        -0.2002 
     79 N         -49.2808  -26.9510    4.1746 N.am      2 UNK        -0.4032 
     80 C         -49.6573  -27.6144    5.2751 C.2       1 UNK         0.5000 
     81 O         -50.0006  -27.0551    6.3209 O.2       1 UNK        -0.5238 
     82 H82       -47.3314  -30.8953    8.0064 H         1 UNK         0.0889 
     83 H83       -46.2638  -29.4847    8.0724 H         1 UNK         0.0889 
     84 H84       -45.8613  -30.8569    7.0392 H         1 UNK         0.0889 
     85 H85       -49.2526  -30.0853    7.0632 H         1 UNK         0.3028 
     86 H86       -49.1878  -29.4600    4.2662 H         1 UNK         0.0864 
     87 H87       -51.5266  -29.6350    4.2542 H         1 UNK         0.0720 
     88 H88       -51.7184  -29.1364    5.8963 H         1 UNK         0.0720 
     89 H89       -52.5197  -32.4796    7.4751 H         1 UNK         0.0814 
     90 H90       -53.4116  -31.2627    6.6040 H         1 UNK         0.0814 
     91 H91       -50.5878  -31.6758    9.0653 H         1 UNK         0.1469 
     92 H92       -51.4185  -27.9366   10.9989 H         1 UNK         0.1381 
     93 H93       -53.6374  -29.0810    7.5266 H         1 UNK         0.1206 
     94 H94       -54.0855  -26.9774    8.4968 H         1 UNK         0.0813 
     95 H95       -52.6579  -26.2266    9.1660 H         1 UNK         0.0813 
     96 H96       -55.3223  -28.7374    9.9861 H         1 UNK         0.0638 
     97 H97       -55.2022  -28.8215   11.7186 H         1 UNK         0.0638 
     98 H98       -57.1263  -27.0697   10.1141 H         1 UNK         0.0568 
     99 H99       -59.2446  -28.0272   12.2684 H         1 UNK         0.3450 
    100 H100      -59.7248  -29.5539   11.5701 H         1 UNK         0.3450 
    101 H101      -57.4729  -25.8054   11.8636 H         1 UNK         0.2987 
    102 H102      -57.2058  -24.8888   13.8364 H         1 UNK         0.0766 
    103 H103      -58.6753  -25.1739   15.8522 H         1 UNK         0.0798 
    104 H104      -58.5304  -26.9262   15.7266 H         1 UNK         0.0798 
    105 H105      -59.3540  -26.0144   14.4669 H         1 UNK         0.0798 
    106 H106      -55.6689  -26.7157   15.5588 H         1 UNK         0.3198 
    107 H107      -53.5775  -24.0077   16.4952 H         1 UNK         0.0843 
    108 H108      -55.0664  -25.9541   18.3341 H         1 UNK         0.0831 
    109 H109      -54.9707  -24.2115   18.5125 H         1 UNK         0.0831 
    110 H110      -53.5193  -25.1854   18.6914 H         1 UNK         0.0831 
    111 H111      -52.5209  -25.6431   15.5337 H         1 UNK         0.3133 
    112 H112      -52.4173  -29.1674   15.9276 H         1 UNK         0.0566 
    113 H113      -52.0636  -29.0785   13.4817 H         1 UNK         0.0814 
    114 H114      -53.7567  -28.7756   13.8377 H         1 UNK         0.0814 
    115 H115      -52.6988  -27.4365   13.4154 H         1 UNK         0.0814 
    116 H116      -50.6127  -27.3193   14.7044 H         1 UNK         0.3091 
    117 H117      -48.6422  -26.6876   17.6379 H         1 UNK         0.0702 
    118 H118      -47.8921  -28.8449   16.6342 H         1 UNK         0.0785 
    119 H119      -48.1525  -28.2034   15.0182 H         1 UNK         0.0785 
    120 H120      -46.9172  -27.5015   16.0590 H         1 UNK         0.0785 
    121 H121      -48.4784  -25.7381   14.9345 H         1 UNK         0.2998 
    122 H122      -50.3001  -22.6958   15.5115 H         1 UNK         0.0697 
    123 H123      -47.3284  -23.2605   15.0069 H         1 UNK         0.0825 
    124 H124      -47.9679  -22.3048   16.3383 H         1 UNK         0.0825 
    125 H125      -48.1674  -21.7448   14.6853 H         1 UNK         0.0825 
    126 H126      -49.0020  -23.6064   13.1732 H         1 UNK         0.3029 
    127 H127      -51.7208  -25.5512   11.8484 H         1 UNK         0.0897 
    128 H128      -51.2070  -24.0293    9.9365 H         1 UNK         0.0792 
    129 H129      -50.3890  -22.9155   11.0324 H         1 UNK         0.0792 
    130 H130      -52.1156  -23.1997   11.1907 H         1 UNK         0.0792 
    131 H131      -49.1464  -25.1702   10.7746 H         1 UNK         0.3086 
    132 H132      -47.5174  -27.9015   12.4424 H         1 UNK         0.0583 
    133 H133      -48.9320  -27.7190    9.7655 H         1 UNK         0.1020 
    134 H134      -47.2145  -27.8755    9.6994 H         1 UNK         0.1020 
    135 H135      -49.9191  -31.1977   11.4868 H         1 UNK         0.0694 
    136 H136      -50.0259  -29.5833   12.1152 H         1 UNK         0.0694 
    137 H137      -46.6952  -25.8177   10.6202 H         1 UNK         0.2989 
    138 H138      -45.4361  -23.6672   13.1565 H         1 UNK         0.1055 
    139 H139      -43.6291  -25.3777   12.8908 H         1 UNK         0.0806 
    140 H140      -43.3159  -23.9647   11.8983 H         1 UNK         0.0806 
    141 H141      -43.9259  -25.4458   11.1592 H         1 UNK         0.0806 
    142 H142      -45.3117  -23.5430   10.3070 H         1 UNK         0.3061 
    143 H143      -48.5119  -22.1527    9.7093 H         1 UNK         0.0734 
    144 H144      -47.2221  -20.2425    8.7986 H         1 UNK         0.0832 
    145 H145      -47.2346  -20.1757   10.5519 H         1 UNK         0.0832 
    146 H146      -45.7937  -20.7310    9.7124 H         1 UNK         0.0832 
    147 H147      -46.3281  -22.4596    7.9615 H         1 UNK         0.3156 
    148 H148      -46.1338  -24.0016    6.5002 H         1 UNK         0.0589 
    149 H149      -46.4086  -26.7987    7.7371 H         1 UNK         0.0808 
    150 H150      -45.3764  -26.3639    6.3823 H         1 UNK         0.0808 
    151 H151      -45.0407  -25.7166    7.9815 H         1 UNK         0.0808 
    152 H152      -48.6110  -25.6496    6.5643 H         1 UNK         0.3098 
    153 H153      -50.0211  -25.0378    4.5761 H         1 UNK         0.0720 
    154 H154      -50.1512  -25.4073    2.1286 H         1 UNK         0.0791 
    155 H155      -48.3940  -25.5160    2.0229 H         1 UNK         0.0791 
    156 H156      -49.1614  -24.0022    2.4829 H         1 UNK         0.0791 
    157 H157      -48.9687  -27.4789    3.3719 H         1 UNK         0.3028 
@<TRIPOS>BOND
     1    1    2 1    
     2    1   82 1    
     3    1   83 1    
     4    1   84 1    
     5    2    3 2    
     6    2    4 am   BACKBONE|DICT|INTERRES
     7    4    5 1    
     8    4   85 1    
     9    5    6 1    
    10    5   80 1    
    11    5   86 1    
    12    6    7 1    
    13    6   87 1    
    14    6   88 1    
    15    7    8 1    
    16    8    9 1    
    17    8   89 1    
    18    8   90 1    
    19    9   10 ar   
    20    9   14 ar   
    21   10   11 ar   
    22   10   91 1    
    23   11   12 ar   
    24   11   58 1    
    25   12   13 ar   
    26   12   92 1    
    27   13   14 ar   
    28   13   15 1    
    29   14   93 1    
    30   15   16 1    
    31   15   94 1    
    32   15   95 1    
    33   16   17 1    
    34   17   18 1    
    35   17   96 1    
    36   17   97 1    
    37   18   19 1    
    38   18   22 1    
    39   18   98 1    
    40   19   20 am   BACKBONE|DICT|INTERRES
    41   19   21 2    
    42   20   99 1    
    43   20  100 1    
    44   22   23 am   BACKBONE|DICT|INTERRES
    45   22  101 1    
    46   23   24 2    
    47   23   25 1    
    48   25   26 1    
    49   25   27 1    
    50   25  102 1    
    51   26  103 1    
    52   26  104 1    
    53   26  105 1    
    54   27   28 am   BACKBONE|DICT|INTERRES
    55   27  106 1    
    56   28   29 2    
    57   28   30 1    
    58   30   31 1    
    59   30   32 1    
    60   30  107 1    
    61   31  108 1    
    62   31  109 1    
    63   31  110 1    
    64   32   33 am   BACKBONE|DICT|INTERRES
    65   32  111 1    
    66   33   34 2    
    67   33   35 1    
    68   35   36 1    
    69   35   37 1    
    70   35  112 1    
    71   36  113 1    
    72   36  114 1    
    73   36  115 1    
    74   37   38 am   BACKBONE|DICT|INTERRES
    75   37  116 1    
    76   38   39 2    
    77   38   40 1    
    78   40   41 1    
    79   40   42 1    
    80   40  117 1    
    81   41  118 1    
    82   41  119 1    
    83   41  120 1    
    84   42   43 am   BACKBONE|DICT|INTERRES
    85   42  121 1    
    86   43   44 2    
    87   43   45 1    
    88   45   46 1    
    89   45   47 1    
    90   45  122 1    
    91   46  123 1    
    92   46  124 1    
    93   46  125 1    
    94   47   48 am   BACKBONE|DICT|INTERRES
    95   47  126 1    
    96   48   49 2    
    97   48   50 1    
    98   50   51 1    
    99   50   52 1    
   100   50  127 1    
   101   51  128 1    
   102   51  129 1    
   103   51  130 1    
   104   52   53 am   BACKBONE|DICT|INTERRES
   105   52  131 1    
   106   53   54 2    
   107   53   55 1    
   108   55   56 1    
   109   55   59 1    
   110   55  132 1    
   111   56   57 1    
   112   56  133 1    
   113   56  134 1    
   114   57   58 1    
   115   58  135 1    
   116   58  136 1    
   117   59   60 am   BACKBONE|DICT|INTERRES
   118   59  137 1    
   119   60   61 2    
   120   60   62 1    
   121   62   63 1    
   122   62   64 1    
   123   62  138 1    
   124   63  139 1    
   125   63  140 1    
   126   63  141 1    
   127   64   65 am   BACKBONE|DICT|INTERRES
   128   64  142 1    
   129   65   66 2    
   130   65   67 1    
   131   67   68 1    
   132   67   69 1    
   133   67  143 1    
   134   68  144 1    
   135   68  145 1    
   136   68  146 1    
   137   69   70 am   BACKBONE|DICT|INTERRES
   138   69  147 1    
   139   70   71 2    
   140   70   72 1    
   141   72   73 1    
   142   72   74 1    
   143   72  148 1    
   144   73  149 1    
   145   73  150 1    
   146   73  151 1    
   147   74   75 am   BACKBONE|DICT|INTERRES
   148   74  152 1    
   149   75   76 2    
   150   75   77 1    
   151   77   78 1    
   152   77   79 1    
   153   77  153 1    
   154   78  154 1    
   155   78  155 1    
   156   78  156 1    
   157   79   80 am   BACKBONE|DICT|INTERRES
   158   79  157 1    
   159   80   81 2    
@<TRIPOS>SUBSTRUCTURE
     1 UNK         1 GROUP             0       ****    0 ROOT    
