@<TRIPOS>MOLECULE
3R207
157   159    1
SMALL
USER_CHARGES


@<TRIPOS>ATOM
      1 CA        -50.9133  -32.9092    6.1253 C.3       0 UNK        -0.1975 
      2 C         -50.6518  -31.4241    6.3228 C.2       0 UNK         0.4852 
      3 O         -50.4877  -30.9830    7.4614 O.2       0 UNK        -0.5216 
      4 N         -50.6009  -30.6570    5.2238 N.am      1 UNK        -0.4461 
      5 CA        -50.4060  -29.1981    5.1339 C.3       1 UNK         0.0864 
      6 C6        -51.4578  -28.3662    5.9153 C.3       14 UNK        -0.0898 
      7 S7        -53.1627  -28.6720    5.3454 S.3       14 UNK        -0.2598 
      8 C8        -53.7639  -26.9739    5.0644 C.3       14 UNK         0.0286 
      9 C9        -53.8579  -26.1744    6.3586 C.ar      14 UNK        -0.0844 
     10 C10       -53.0811  -25.0255    6.5442 C.ar      14 UNK        -0.0881 
     11 C11       -53.1794  -24.2810    7.7248 C.ar      14 UNK        -0.0643 
     12 C12       -54.0509  -24.7094    8.7330 C.ar      14 UNK        -0.0930 
     13 C13       -54.8412  -25.8514    8.5552 C.ar      14 UNK        -0.0827 
     14 C14       -54.7458  -26.5714    7.3620 C.ar      14 UNK        -0.1249 
     15 C15       -55.8297  -26.2816    9.6316 C.3       14 UNK         0.0141 
     16 S16       -55.1183  -27.4965   10.7853 S.3       14 UNK        -0.2313 
     17 C17       -55.4927  -29.0848    9.9647 C.3       14 UNK        -0.0915 
     18 CA        -54.7943  -30.3215   10.6038 C.3       13 UNK         0.0968 
     19 C         -53.3095  -30.4922   10.1665 C.2       13 UNK         0.5732 
     20 N         -53.0640  -30.6525    8.8726 N.am      13 UNK        -0.7310 
     21 O         -52.3835  -30.4879   10.9762 O.2       13 UNK        -0.5035 
     22 N         -54.9714  -30.3458   12.0614 N.am      13 UNK        -0.4233 
     23 C         -54.8810  -31.4254   12.8422 C.2       13 UNK         0.4989 
     24 O         -54.7578  -32.5757   12.4159 O.2       13 UNK        -0.4996 
     25 CA        -54.9247  -31.1608   14.3610 C.3       12 UNK         0.0216 
     26 CB        -55.2264  -32.4357   15.1714 C.3       12 UNK        -0.1964 
     27 N         -53.6729  -30.5730   14.8489 N.am      12 UNK        -0.4276 
     28 C         -53.2636  -29.3174   14.6227 C.2       12 UNK         0.5020 
     29 O         -53.9243  -28.4956   13.9828 O.2       12 UNK        -0.5489 
     30 CA        -51.8826  -28.9415   15.1979 C.3       11 UNK         0.0294 
     31 CB        -50.7611  -29.6693   14.4349 C.3       11 UNK        -0.2019 
     32 N         -51.6201  -27.4996   15.1571 N.am      11 UNK        -0.4493 
     33 C         -52.2730  -26.5721   15.8705 C.2       11 UNK         0.4932 
     34 O         -53.1175  -26.8383   16.7294 O.2       11 UNK        -0.5029 
     35 CA        -51.9012  -25.1038   15.5779 C.3       10 UNK         0.0280 
     36 CB        -52.6319  -24.0928   16.4871 C.3       10 UNK        -0.1976 
     37 N         -50.4539  -24.8629   15.5906 N.am      10 UNK        -0.4242 
     38 C         -49.6067  -25.0632   16.6127 C.2       10 UNK         0.5072 
     39 O         -49.9577  -25.4679   17.7221 O.2       10 UNK        -0.5224 
     40 CA        -48.1156  -24.7557   16.3958 C.3       9 UNK         0.0343 
     41 CB        -47.3165  -26.0467   16.1400 C.3       9 UNK        -0.2003 
     42 N         -47.8582  -23.7632   15.3441 N.am      9 UNK        -0.4272 
     43 C         -46.7950  -22.9430   15.3407 C.2       9 UNK         0.4988 
     44 O         -45.8914  -22.9941   16.1768 O.2       9 UNK        -0.5108 
     45 CA        -46.7092  -21.8704   14.2360 C.3       8 UNK         0.0248 
     46 CB        -45.8293  -22.3673   13.0777 C.3       8 UNK        -0.2001 
     47 N         -48.0133  -21.4583   13.7131 N.am      8 UNK        -0.4140 
     48 C         -48.9652  -20.8330   14.4205 C.2       8 UNK         0.5028 
     49 O         -48.7901  -20.4146   15.5658 O.2       8 UNK        -0.5428 
     50 CA        -50.3554  -20.6524   13.7709 C.3       7 UNK         0.0264 
     51 CB        -50.6411  -19.1607   13.5255 C.3       7 UNK        -0.1988 
     52 N         -50.6130  -21.3891   12.5231 N.am      7 UNK        -0.4454 
     53 C         -50.5031  -22.7122   12.3333 C.2       7 UNK         0.5027 
     54 O         -50.0465  -23.4781   13.1885 O.2       7 UNK        -0.5083 
     55 CA        -50.9651  -23.2490   10.9605 C.3       6 UNK         0.0844 
     56 C56       -50.3039  -22.5058    9.7672 C.3       14 UNK        -0.0967 
     57 S57       -50.6094  -23.2945    8.1420 S.3       14 UNK        -0.2604 
     58 C58       -52.3859  -22.9873    7.8788 C.3       14 UNK         0.0134 
     59 N         -50.7218  -24.6812   10.8837 N.am      6 UNK        -0.4116 
     60 C         -51.5518  -25.6416   11.2977 C.2       5 UNK         0.5034 
     61 O         -52.6363  -25.4321   11.8397 O.2       5 UNK        -0.5045 
     62 CA        -51.0628  -27.0791   11.0588 C.3       5 UNK         0.0224 
     63 CB        -51.4624  -27.5284    9.6445 C.3       5 UNK        -0.1978 
     64 N         -49.6051  -27.1893   11.1931 N.am      5 UNK        -0.4737 
     65 C         -48.9407  -26.9910   12.3411 C.2       4 UNK         0.5027 
     66 O         -49.5024  -26.8307   13.4226 O.2       4 UNK        -0.5211 
     67 CA        -47.4018  -26.9407   12.2928 C.3       4 UNK         0.0297 
     68 CB        -46.8102  -28.2733   12.7795 C.3       4 UNK        -0.1993 
     69 N         -46.8489  -26.6212   10.9753 N.am      4 UNK        -0.4486 
     70 C         -47.0237  -25.4660   10.3172 C.2       3 UNK         0.4961 
     71 O         -47.6384  -24.5027   10.7723 O.2       3 UNK        -0.5105 
     72 CA        -46.4569  -25.3891    8.8864 C.3       3 UNK         0.0299 
     73 CB        -45.0625  -24.7431    8.9003 C.3       3 UNK        -0.1972 
     74 N         -46.3938  -26.6804    8.1840 N.am      3 UNK        -0.4305 
     75 C         -47.4464  -27.4814    7.9649 C.2       2 UNK         0.5006 
     76 O         -48.5787  -27.2448    8.3880 O.2       2 UNK        -0.5106 
     77 CA        -47.1801  -28.7918    7.2068 C.3       2 UNK         0.0296 
     78 CB        -46.6639  -29.8724    8.1714 C.3       2 UNK        -0.2002 
     79 N         -48.4100  -29.2725    6.5784 N.am      2 UNK        -0.4032 
     80 C         -48.9794  -28.7316    5.4953 C.2       1 UNK         0.5000 
     81 O         -48.4262  -27.8870    4.7875 O.2       1 UNK        -0.5238 
     82 H82       -51.0455  -33.1652    5.0743 H         1 UNK         0.0889 
     83 H83       -51.8148  -33.2032    6.6623 H         1 UNK         0.0889 
     84 H84       -50.0789  -33.4914    6.5153 H         1 UNK         0.0889 
     85 H85       -50.7226  -31.1083    4.3278 H         1 UNK         0.3028 
     86 H86       -50.5324  -28.9607    4.0761 H         1 UNK         0.0864 
     87 H87       -51.4139  -28.5804    6.9830 H         1 UNK         0.0720 
     88 H88       -51.2390  -27.3009    5.8202 H         1 UNK         0.0720 
     89 H89       -54.7524  -27.0222    4.6059 H         1 UNK         0.0814 
     90 H90       -53.1151  -26.4778    4.3409 H         1 UNK         0.0814 
     91 H91       -52.4053  -24.6986    5.7658 H         1 UNK         0.1469 
     92 H92       -54.1295  -24.1445    9.6518 H         1 UNK         0.1381 
     93 H93       -55.3615  -27.4467    7.2096 H         1 UNK         0.1206 
     94 H94       -56.1474  -25.4098   10.2053 H         1 UNK         0.0813 
     95 H95       -56.7349  -26.6876    9.1776 H         1 UNK         0.0813 
     96 H96       -55.2559  -29.0082    8.9037 H         1 UNK         0.0638 
     97 H97       -56.5735  -29.2240   10.0135 H         1 UNK         0.0638 
     98 H98       -55.3053  -31.2045   10.2153 H         1 UNK         0.0568 
     99 H99       -53.8080  -30.6490    8.1947 H         1 UNK         0.3450 
    100 H100      -52.1039  -30.7550    8.5610 H         1 UNK         0.3450 
    101 H101      -54.9263  -29.4391   12.5175 H         1 UNK         0.2987 
    102 H102      -55.7348  -30.4521   14.5476 H         1 UNK         0.0766 
    103 H103      -55.3357  -32.2146   16.2333 H         1 UNK         0.0798 
    104 H104      -54.4388  -33.1827   15.0631 H         1 UNK         0.0798 
    105 H105      -56.1589  -32.8956   14.8409 H         1 UNK         0.0798 
    106 H106      -53.0588  -31.1944   15.3556 H         1 UNK         0.3198 
    107 H107      -51.8556  -29.2528   16.2442 H         1 UNK         0.0843 
    108 H108      -50.7832  -29.4355   13.3697 H         1 UNK         0.0831 
    109 H109      -50.8515  -30.7518   14.5289 H         1 UNK         0.0831 
    110 H110      -49.7771  -29.3949   14.8161 H         1 UNK         0.0831 
    111 H111      -50.9162  -27.1874   14.4878 H         1 UNK         0.3133 
    112 H112      -52.2255  -24.9114   14.5543 H         1 UNK         0.0566 
    113 H113      -52.3808  -23.0666   16.2189 H         1 UNK         0.0814 
    114 H114      -53.7135  -24.1968   16.3935 H         1 UNK         0.0814 
    115 H115      -52.3814  -24.2369   17.5385 H         1 UNK         0.0814 
    116 H116      -50.0882  -24.5682   14.6888 H         1 UNK         0.3091 
    117 H117      -47.7685  -24.3345   17.3422 H         1 UNK         0.0702 
    118 H118      -46.2482  -25.8498   16.0513 H         1 UNK         0.0785 
    119 H119      -47.6442  -26.5471   15.2320 H         1 UNK         0.0785 
    120 H120      -47.4479  -26.7529   16.9608 H         1 UNK         0.0785 
    121 H121      -48.5606  -23.6473   14.6219 H         1 UNK         0.2998 
    122 H122      -46.2348  -20.9882   14.6710 H         1 UNK         0.0697 
    123 H123      -46.2400  -23.2668   12.6193 H         1 UNK         0.0825 
    124 H124      -44.8262  -22.6130   13.4291 H         1 UNK         0.0825 
    125 H125      -45.7234  -21.6101   12.3007 H         1 UNK         0.0825 
    126 H126      -48.2541  -21.7887   12.7900 H         1 UNK         0.3029 
    127 H127      -51.0780  -21.0182   14.5035 H         1 UNK         0.0897 
    128 H128      -51.6675  -18.9997   13.1950 H         1 UNK         0.0792 
    129 H129      -50.5060  -18.5779   14.4381 H         1 UNK         0.0792 
    130 H130      -49.9736  -18.7422   12.7712 H         1 UNK         0.0792 
    131 H131      -50.9853  -20.8330   11.7670 H         1 UNK         0.3086 
    132 H132      -52.0421  -23.0801   10.9059 H         1 UNK         0.0583 
    133 H133      -50.6428  -21.4701    9.7131 H         1 UNK         0.1020 
    134 H134      -49.2212  -22.4609    9.9019 H         1 UNK         0.1020 
    135 H135      -52.7922  -22.3838    8.6913 H         1 UNK         0.0694 
    136 H136      -52.5034  -22.3871    6.9754 H         1 UNK         0.0694 
    137 H137      -49.8098  -24.9482   10.5379 H         1 UNK         0.2989 
    138 H138      -51.5396  -27.7341   11.7913 H         1 UNK         0.1055 
    139 H139      -52.5444  -27.5857    9.5401 H         1 UNK         0.0806 
    140 H140      -51.0586  -28.5131    9.4100 H         1 UNK         0.0806 
    141 H141      -51.1124  -26.8315    8.8817 H         1 UNK         0.0806 
    142 H142      -49.0837  -27.2952   10.3275 H         1 UNK         0.3061 
    143 H143      -47.0854  -26.1497   12.9757 H         1 UNK         0.0734 
    144 H144      -45.7243  -28.2217   12.8588 H         1 UNK         0.0832 
    145 H145      -47.1928  -28.5338   13.7674 H         1 UNK         0.0832 
    146 H146      -47.0625  -29.0953   12.1083 H         1 UNK         0.0832 
    147 H147      -46.3338  -27.3536   10.5101 H         1 UNK         0.3156 
    148 H148      -47.1258  -24.7431    8.3136 H         1 UNK         0.0589 
    149 H149      -44.3354  -25.3612    9.4285 H         1 UNK         0.0808 
    150 H150      -44.6914  -24.5748    7.8891 H         1 UNK         0.0808 
    151 H151      -45.0877  -23.7727    9.3987 H         1 UNK         0.0808 
    152 H152      -45.4920  -26.9527    7.8187 H         1 UNK         0.3098 
    153 H153      -46.4316  -28.6120    6.4324 H         1 UNK         0.0720 
    154 H154      -46.4749  -30.8106    7.6491 H         1 UNK         0.0791 
    155 H155      -47.3793  -30.0739    8.9705 H         1 UNK         0.0791 
    156 H156      -45.7264  -29.5696    8.6392 H         1 UNK         0.0791 
    157 H157      -48.9851  -29.9151    7.1180 H         1 UNK         0.3028 
@<TRIPOS>BOND
     1    1    2 1    
     2    1   82 1    
     3    1   83 1    
     4    1   84 1    
     5    2    3 2    
     6    2    4 am   BACKBONE|DICT|INTERRES
     7    4    5 1    
     8    4   85 1    
     9    5    6 1    
    10    5   80 1    
    11    5   86 1    
    12    6    7 1    
    13    6   87 1    
    14    6   88 1    
    15    7    8 1    
    16    8    9 1    
    17    8   89 1    
    18    8   90 1    
    19    9   10 ar   
    20    9   14 ar   
    21   10   11 ar   
    22   10   91 1    
    23   11   12 ar   
    24   11   58 1    
    25   12   13 ar   
    26   12   92 1    
    27   13   14 ar   
    28   13   15 1    
    29   14   93 1    
    30   15   16 1    
    31   15   94 1    
    32   15   95 1    
    33   16   17 1    
    34   17   18 1    
    35   17   96 1    
    36   17   97 1    
    37   18   19 1    
    38   18   22 1    
    39   18   98 1    
    40   19   20 am   BACKBONE|DICT|INTERRES
    41   19   21 2    
    42   20   99 1    
    43   20  100 1    
    44   22   23 am   BACKBONE|DICT|INTERRES
    45   22  101 1    
    46   23   24 2    
    47   23   25 1    
    48   25   26 1    
    49   25   27 1    
    50   25  102 1    
    51   26  103 1    
    52   26  104 1    
    53   26  105 1    
    54   27   28 am   BACKBONE|DICT|INTERRES
    55   27  106 1    
    56   28   29 2    
    57   28   30 1    
    58   30   31 1    
    59   30   32 1    
    60   30  107 1    
    61   31  108 1    
    62   31  109 1    
    63   31  110 1    
    64   32   33 am   BACKBONE|DICT|INTERRES
    65   32  111 1    
    66   33   34 2    
    67   33   35 1    
    68   35   36 1    
    69   35   37 1    
    70   35  112 1    
    71   36  113 1    
    72   36  114 1    
    73   36  115 1    
    74   37   38 am   BACKBONE|DICT|INTERRES
    75   37  116 1    
    76   38   39 2    
    77   38   40 1    
    78   40   41 1    
    79   40   42 1    
    80   40  117 1    
    81   41  118 1    
    82   41  119 1    
    83   41  120 1    
    84   42   43 am   BACKBONE|DICT|INTERRES
    85   42  121 1    
    86   43   44 2    
    87   43   45 1    
    88   45   46 1    
    89   45   47 1    
    90   45  122 1    
    91   46  123 1    
    92   46  124 1    
    93   46  125 1    
    94   47   48 am   BACKBONE|DICT|INTERRES
    95   47  126 1    
    96   48   49 2    
    97   48   50 1    
    98   50   51 1    
    99   50   52 1    
   100   50  127 1    
   101   51  128 1    
   102   51  129 1    
   103   51  130 1    
   104   52   53 am   BACKBONE|DICT|INTERRES
   105   52  131 1    
   106   53   54 2    
   107   53   55 1    
   108   55   56 1    
   109   55   59 1    
   110   55  132 1    
   111   56   57 1    
   112   56  133 1    
   113   56  134 1    
   114   57   58 1    
   115   58  135 1    
   116   58  136 1    
   117   59   60 am   BACKBONE|DICT|INTERRES
   118   59  137 1    
   119   60   61 2    
   120   60   62 1    
   121   62   63 1    
   122   62   64 1    
   123   62  138 1    
   124   63  139 1    
   125   63  140 1    
   126   63  141 1    
   127   64   65 am   BACKBONE|DICT|INTERRES
   128   64  142 1    
   129   65   66 2    
   130   65   67 1    
   131   67   68 1    
   132   67   69 1    
   133   67  143 1    
   134   68  144 1    
   135   68  145 1    
   136   68  146 1    
   137   69   70 am   BACKBONE|DICT|INTERRES
   138   69  147 1    
   139   70   71 2    
   140   70   72 1    
   141   72   73 1    
   142   72   74 1    
   143   72  148 1    
   144   73  149 1    
   145   73  150 1    
   146   73  151 1    
   147   74   75 am   BACKBONE|DICT|INTERRES
   148   74  152 1    
   149   75   76 2    
   150   75   77 1    
   151   77   78 1    
   152   77   79 1    
   153   77  153 1    
   154   78  154 1    
   155   78  155 1    
   156   78  156 1    
   157   79   80 am   BACKBONE|DICT|INTERRES
   158   79  157 1    
   159   80   81 2    
@<TRIPOS>SUBSTRUCTURE
     1 UNK         1 GROUP             0       ****    0 ROOT    
