@<TRIPOS>MOLECULE
3R207
157   159    1
SMALL
USER_CHARGES


@<TRIPOS>ATOM
      1 CA        -46.0021  -31.0891    5.6518 C.3       0 UNK        -0.1975 
      2 C         -46.9767  -30.1065    5.0199 C.2       0 UNK         0.4852 
      3 O         -46.9512  -29.9146    3.8038 O.2       0 UNK        -0.5216 
      4 N         -47.8333  -29.4806    5.8384 N.am      1 UNK        -0.4461 
      5 CA        -48.8606  -28.5177    5.4131 C.3       1 UNK         0.0864 
      6 C6        -49.8755  -28.2156    6.5440 C.3       14 UNK        -0.0898 
      7 S7        -50.5999  -29.6929    7.3340 S.3       14 UNK        -0.2598 
      8 C8        -50.7513  -29.1352    9.0651 C.3       14 UNK         0.0286 
      9 C9        -51.9431  -28.2079    9.2698 C.ar      14 UNK        -0.0844 
     10 C10       -51.8848  -26.8758    8.8509 C.ar      14 UNK        -0.0881 
     11 C11       -52.9649  -26.0136    9.0481 C.ar      14 UNK        -0.0643 
     12 C12       -54.1113  -26.4902    9.6916 C.ar      14 UNK        -0.0930 
     13 C13       -54.1905  -27.8241   10.1079 C.ar      14 UNK        -0.0827 
     14 C14       -53.1047  -28.6781    9.8895 C.ar      14 UNK        -0.1249 
     15 C15       -55.4639  -28.3467   10.7579 C.3       14 UNK         0.0141 
     16 S16       -55.3461  -28.3537   12.5729 S.3       14 UNK        -0.2313 
     17 C17       -54.7981  -30.0618   12.9171 C.3       14 UNK        -0.0915 
     18 CA        -55.9676  -30.9728   13.3775 C.3       13 UNK         0.0968 
     19 C         -55.5115  -32.4538   13.5203 C.2       13 UNK         0.5732 
     20 N         -55.5949  -33.0688   14.6943 N.am      13 UNK        -0.7310 
     21 O         -55.0829  -33.0608   12.5418 O.2       13 UNK        -0.5035 
     22 N         -56.6359  -30.4203   14.5660 N.am      13 UNK        -0.4233 
     23 C         -57.9116  -30.6373   14.9093 C.2       13 UNK         0.4989 
     24 O         -58.6707  -31.3876   14.2947 O.2       13 UNK        -0.4996 
     25 CA        -58.4385  -29.8833   16.1466 C.3       12 UNK         0.0216 
     26 CB        -58.4554  -30.8104   17.3733 C.3       12 UNK        -0.1964 
     27 N         -57.6763  -28.6695   16.4689 N.am      12 UNK        -0.4276 
     28 C         -57.6559  -27.5551   15.7233 C.2       12 UNK         0.5020 
     29 O         -58.3244  -27.4103   14.6985 O.2       12 UNK        -0.5489 
     30 CA        -56.7263  -26.4165   16.1701 C.3       11 UNK         0.0294 
     31 CB        -55.8785  -26.7239   17.4245 C.3       11 UNK        -0.2019 
     32 N         -55.8477  -26.0803   15.0528 N.am      11 UNK        -0.4493 
     33 C         -55.3668  -24.8630   14.7811 C.2       11 UNK         0.4932 
     34 O         -55.6284  -23.8584   15.4463 O.2       11 UNK        -0.5029 
     35 CA        -54.4201  -24.7732   13.5668 C.3       10 UNK         0.0280 
     36 CB        -53.8507  -23.3555   13.3502 C.3       10 UNK        -0.1976 
     37 N         -53.3337  -25.7622   13.6191 N.am      10 UNK        -0.4242 
     38 C         -52.4086  -25.9097   14.5818 C.2       10 UNK         0.5072 
     39 O         -52.3577  -25.2216   15.6036 O.2       10 UNK        -0.5224 
     40 CA        -51.3549  -27.0140   14.3889 C.3       9 UNK         0.0343 
     41 CB        -51.4458  -27.7664   13.0441 C.3       9 UNK        -0.2003 
     42 N         -50.0309  -26.4078   14.5016 N.am      9 UNK        -0.4272 
     43 C         -49.0243  -26.8482   15.2676 C.2       9 UNK         0.4988 
     44 O         -49.1169  -27.8272   16.0104 O.2       9 UNK        -0.5108 
     45 CA        -47.6764  -26.0986   15.1995 C.3       8 UNK         0.0248 
     46 CB        -46.5319  -27.0609   14.8334 C.3       8 UNK        -0.2001 
     47 N         -47.6870  -25.0043   14.2270 N.am      8 UNK        -0.4140 
     48 C         -47.8945  -23.7117   14.5129 C.2       8 UNK         0.5028 
     49 O         -48.0217  -23.2766   15.6580 O.2       8 UNK        -0.5428 
     50 CA        -48.0013  -22.7317   13.3251 C.3       7 UNK         0.0264 
     51 CB        -46.6762  -21.9789   13.1252 C.3       7 UNK        -0.1988 
     52 N         -48.3975  -23.3578   12.0576 N.am      7 UNK        -0.4454 
     53 C         -49.5560  -24.0020   11.8553 C.2       7 UNK         0.5027 
     54 O         -50.4272  -24.1013   12.7173 O.2       7 UNK        -0.5083 
     55 CA        -49.7396  -24.7315   10.5081 C.3       6 UNK         0.0844 
     56 C56       -50.3158  -23.8053    9.4101 C.3       14 UNK        -0.0967 
     57 S57       -52.0877  -23.4391    9.6694 S.3       14 UNK        -0.2604 
     58 C58       -52.9091  -24.5859    8.5186 C.3       14 UNK         0.0134 
     59 N         -48.5171  -25.4156   10.0722 N.am      6 UNK        -0.4116 
     60 C         -47.9085  -26.4010   10.7504 C.2       5 UNK         0.5034 
     61 O         -48.3492  -26.8938   11.7860 O.2       5 UNK        -0.5045 
     62 CA        -46.5474  -26.8768   10.2228 C.3       5 UNK         0.0224 
     63 CB        -46.7098  -27.9281    9.1132 C.3       5 UNK        -0.1978 
     64 N         -45.7429  -25.7513    9.7432 N.am      5 UNK        -0.4737 
     65 C         -45.1046  -24.8940   10.5530 C.2       4 UNK         0.5027 
     66 O         -45.0544  -25.0220   11.7757 O.2       4 UNK        -0.5211 
     67 CA        -44.4297  -23.6765    9.8953 C.3       4 UNK         0.0297 
     68 CB        -42.9740  -24.0047    9.5281 C.3       4 UNK        -0.1993 
     69 N         -45.1360  -23.1959    8.7039 N.am      4 UNK        -0.4486 
     70 C         -46.3589  -22.6457    8.7124 C.2       3 UNK         0.4961 
     71 O         -47.0113  -22.4446    9.7356 O.2       3 UNK        -0.5105 
     72 CA        -46.9871  -22.3275    7.3423 C.3       3 UNK         0.0299 
     73 CB        -46.5666  -20.9279    6.8681 C.3       3 UNK        -0.1972 
     74 N         -46.6669  -23.3198    6.3073 N.am      3 UNK        -0.4305 
     75 C         -46.9655  -24.6233    6.3927 C.2       2 UNK         0.5006 
     76 O         -47.5608  -25.1190    7.3541 O.2       2 UNK        -0.5106 
     77 CA        -46.4464  -25.5260    5.2594 C.3       2 UNK         0.0296 
     78 CB        -44.9180  -25.6798    5.3532 C.3       2 UNK        -0.2002 
     79 N         -47.0494  -26.8549    5.3506 N.am      2 UNK        -0.4032 
     80 C         -48.2742  -27.1770    4.9136 C.2       1 UNK         0.5000 
     81 O         -48.9560  -26.4484    4.1895 O.2       1 UNK        -0.5238 
     82 H82       -46.1520  -32.0851    5.2360 H         1 UNK         0.0889 
     83 H83       -46.1273  -31.1508    6.7327 H         1 UNK         0.0889 
     84 H84       -44.9762  -30.7848    5.4463 H         1 UNK         0.0889 
     85 H85       -47.8422  -29.7167    6.8203 H         1 UNK         0.3028 
     86 H86       -49.4043  -28.9635    4.5774 H         1 UNK         0.0864 
     87 H87       -49.3897  -27.6148    7.3139 H         1 UNK         0.0720 
     88 H88       -50.6993  -27.6109    6.1590 H         1 UNK         0.0720 
     89 H89       -49.8349  -28.6386    9.3864 H         1 UNK         0.0814 
     90 H90       -50.8500  -30.0153    9.7024 H         1 UNK         0.0814 
     91 H91       -50.9973  -26.5007    8.3666 H         1 UNK         0.1469 
     92 H92       -54.9520  -25.8276    9.8463 H         1 UNK         0.1381 
     93 H93       -53.1624  -29.7110   10.2017 H         1 UNK         0.1206 
     94 H94       -56.3107  -27.7212   10.4717 H         1 UNK         0.0813 
     95 H95       -55.6958  -29.3470   10.3892 H         1 UNK         0.0813 
     96 H96       -54.3163  -30.4708   12.0286 H         1 UNK         0.0638 
     97 H97       -54.0258  -30.0223   13.6871 H         1 UNK         0.0638 
     98 H98       -56.7011  -30.9787   12.5688 H         1 UNK         0.0568 
     99 H99       -55.3008  -34.0297   14.7694 H         1 UNK         0.3450 
    100 H100      -55.9515  -32.5843   15.5015 H         1 UNK         0.3450 
    101 H101      -56.0818  -29.8013   15.1359 H         1 UNK         0.2987 
    102 H102      -59.4668  -29.5862   15.9291 H         1 UNK         0.0766 
    103 H103      -58.9099  -30.3207   18.2349 H         1 UNK         0.0798 
    104 H104      -57.4510  -31.1271   17.6572 H         1 UNK         0.0798 
    105 H105      -59.0368  -31.7119   17.1736 H         1 UNK         0.0798 
    106 H106      -57.1084  -28.6969   17.3039 H         1 UNK         0.3198 
    107 H107      -57.3732  -25.5645   16.3904 H         1 UNK         0.0843 
    108 H108      -55.2021  -27.5650   17.2669 H         1 UNK         0.0831 
    109 H109      -56.5067  -26.9467   18.2879 H         1 UNK         0.0831 
    110 H110      -55.2660  -25.8642   17.6983 H         1 UNK         0.0831 
    111 H111      -55.6494  -26.8335   14.4052 H         1 UNK         0.3133 
    112 H112      -55.0188  -25.0228   12.6894 H         1 UNK         0.0566 
    113 H113      -53.2118  -23.3176   12.4685 H         1 UNK         0.0814 
    114 H114      -54.6507  -22.6291   13.2040 H         1 UNK         0.0814 
    115 H115      -53.2575  -23.0228   14.2026 H         1 UNK         0.0814 
    116 H116      -53.2878  -26.3935   12.8309 H         1 UNK         0.3091 
    117 H117      -51.5121  -27.7336   15.1946 H         1 UNK         0.0702 
    118 H118      -52.3888  -28.3017   12.9465 H         1 UNK         0.0785 
    119 H119      -51.3501  -27.0946   12.1909 H         1 UNK         0.0785 
    120 H120      -50.6520  -28.5089   12.9588 H         1 UNK         0.0785 
    121 H121      -49.9090  -25.5558   13.9630 H         1 UNK         0.2998 
    122 H122      -47.4779  -25.7046   16.1981 H         1 UNK         0.0697 
    123 H123      -46.6975  -27.5344   13.8651 H         1 UNK         0.0825 
    124 H124      -46.4353  -27.8567   15.5730 H         1 UNK         0.0825 
    125 H125      -45.5745  -26.5411   14.7913 H         1 UNK         0.0825 
    126 H126      -47.6108  -25.2785   13.2557 H         1 UNK         0.3029 
    127 H127      -48.7725  -22.0021   13.5811 H         1 UNK         0.0897 
    128 H128      -46.7594  -21.2288   12.3384 H         1 UNK         0.0792 
    129 H129      -45.8650  -22.6564   12.8580 H         1 UNK         0.0792 
    130 H130      -46.3801  -21.4598   14.0378 H         1 UNK         0.0792 
    131 H131      -47.7611  -23.2423   11.2715 H         1 UNK         0.3086 
    132 H132      -50.4665  -25.5222   10.6933 H         1 UNK         0.0583 
    133 H133      -49.7652  -22.8636    9.3671 H         1 UNK         0.1020 
    134 H134      -50.1902  -24.2562    8.4247 H         1 UNK         0.1020 
    135 H135      -53.9219  -24.2223    8.3387 H         1 UNK         0.0694 
    136 H136      -52.4085  -24.5614    7.5495 H         1 UNK         0.0694 
    137 H137      -48.1014  -25.1060    9.1983 H         1 UNK         0.2989 
    138 H138      -46.0209  -27.3500   11.0554 H         1 UNK         0.1055 
    139 H139      -47.2724  -28.7894    9.4755 H         1 UNK         0.0806 
    140 H140      -45.7417  -28.2953    8.7723 H         1 UNK         0.0806 
    141 H141      -47.2407  -27.5308    8.2509 H         1 UNK         0.0806 
    142 H142      -45.7886  -25.5446    8.7555 H         1 UNK         0.3061 
    143 H143      -44.4235  -22.8681   10.6298 H         1 UNK         0.0734 
    144 H144      -42.4551  -23.1290    9.1377 H         1 UNK         0.0832 
    145 H145      -42.4189  -24.3431   10.4043 H         1 UNK         0.0832 
    146 H146      -42.9125  -24.7953    8.7792 H         1 UNK         0.0832 
    147 H147      -44.6713  -23.3156    7.8159 H         1 UNK         0.3156 
    148 H148      -48.0713  -22.3297    7.4721 H         1 UNK         0.0589 
    149 H149      -46.8138  -20.1729    7.6161 H         1 UNK         0.0808 
    150 H150      -45.4930  -20.8659    6.6857 H         1 UNK         0.0808 
    151 H151      -47.0810  -20.6488    5.9484 H         1 UNK         0.0808 
    152 H152      -46.1747  -22.9840    5.4914 H         1 UNK         0.3098 
    153 H153      -46.7056  -25.0727    4.3003 H         1 UNK         0.0720 
    154 H154      -44.4129  -24.7209    5.2312 H         1 UNK         0.0791 
    155 H155      -44.5403  -26.3391    4.5712 H         1 UNK         0.0791 
    156 H156      -44.6085  -26.0928    6.3144 H         1 UNK         0.0791 
    157 H157      -46.5817  -27.5185    5.9484 H         1 UNK         0.3028 
@<TRIPOS>BOND
     1    1    2 1    
     2    1   82 1    
     3    1   83 1    
     4    1   84 1    
     5    2    3 2    
     6    2    4 am   BACKBONE|DICT|INTERRES
     7    4    5 1    
     8    4   85 1    
     9    5    6 1    
    10    5   80 1    
    11    5   86 1    
    12    6    7 1    
    13    6   87 1    
    14    6   88 1    
    15    7    8 1    
    16    8    9 1    
    17    8   89 1    
    18    8   90 1    
    19    9   10 ar   
    20    9   14 ar   
    21   10   11 ar   
    22   10   91 1    
    23   11   12 ar   
    24   11   58 1    
    25   12   13 ar   
    26   12   92 1    
    27   13   14 ar   
    28   13   15 1    
    29   14   93 1    
    30   15   16 1    
    31   15   94 1    
    32   15   95 1    
    33   16   17 1    
    34   17   18 1    
    35   17   96 1    
    36   17   97 1    
    37   18   19 1    
    38   18   22 1    
    39   18   98 1    
    40   19   20 am   BACKBONE|DICT|INTERRES
    41   19   21 2    
    42   20   99 1    
    43   20  100 1    
    44   22   23 am   BACKBONE|DICT|INTERRES
    45   22  101 1    
    46   23   24 2    
    47   23   25 1    
    48   25   26 1    
    49   25   27 1    
    50   25  102 1    
    51   26  103 1    
    52   26  104 1    
    53   26  105 1    
    54   27   28 am   BACKBONE|DICT|INTERRES
    55   27  106 1    
    56   28   29 2    
    57   28   30 1    
    58   30   31 1    
    59   30   32 1    
    60   30  107 1    
    61   31  108 1    
    62   31  109 1    
    63   31  110 1    
    64   32   33 am   BACKBONE|DICT|INTERRES
    65   32  111 1    
    66   33   34 2    
    67   33   35 1    
    68   35   36 1    
    69   35   37 1    
    70   35  112 1    
    71   36  113 1    
    72   36  114 1    
    73   36  115 1    
    74   37   38 am   BACKBONE|DICT|INTERRES
    75   37  116 1    
    76   38   39 2    
    77   38   40 1    
    78   40   41 1    
    79   40   42 1    
    80   40  117 1    
    81   41  118 1    
    82   41  119 1    
    83   41  120 1    
    84   42   43 am   BACKBONE|DICT|INTERRES
    85   42  121 1    
    86   43   44 2    
    87   43   45 1    
    88   45   46 1    
    89   45   47 1    
    90   45  122 1    
    91   46  123 1    
    92   46  124 1    
    93   46  125 1    
    94   47   48 am   BACKBONE|DICT|INTERRES
    95   47  126 1    
    96   48   49 2    
    97   48   50 1    
    98   50   51 1    
    99   50   52 1    
   100   50  127 1    
   101   51  128 1    
   102   51  129 1    
   103   51  130 1    
   104   52   53 am   BACKBONE|DICT|INTERRES
   105   52  131 1    
   106   53   54 2    
   107   53   55 1    
   108   55   56 1    
   109   55   59 1    
   110   55  132 1    
   111   56   57 1    
   112   56  133 1    
   113   56  134 1    
   114   57   58 1    
   115   58  135 1    
   116   58  136 1    
   117   59   60 am   BACKBONE|DICT|INTERRES
   118   59  137 1    
   119   60   61 2    
   120   60   62 1    
   121   62   63 1    
   122   62   64 1    
   123   62  138 1    
   124   63  139 1    
   125   63  140 1    
   126   63  141 1    
   127   64   65 am   BACKBONE|DICT|INTERRES
   128   64  142 1    
   129   65   66 2    
   130   65   67 1    
   131   67   68 1    
   132   67   69 1    
   133   67  143 1    
   134   68  144 1    
   135   68  145 1    
   136   68  146 1    
   137   69   70 am   BACKBONE|DICT|INTERRES
   138   69  147 1    
   139   70   71 2    
   140   70   72 1    
   141   72   73 1    
   142   72   74 1    
   143   72  148 1    
   144   73  149 1    
   145   73  150 1    
   146   73  151 1    
   147   74   75 am   BACKBONE|DICT|INTERRES
   148   74  152 1    
   149   75   76 2    
   150   75   77 1    
   151   77   78 1    
   152   77   79 1    
   153   77  153 1    
   154   78  154 1    
   155   78  155 1    
   156   78  156 1    
   157   79   80 am   BACKBONE|DICT|INTERRES
   158   79  157 1    
   159   80   81 2    
@<TRIPOS>SUBSTRUCTURE
     1 UNK         1 GROUP             0       ****    0 ROOT    
