@<TRIPOS>MOLECULE
3R207
157   159    1
SMALL
USER_CHARGES


@<TRIPOS>ATOM
      1 CA        -45.4906  -29.0489    5.2397 C.3       0 UNK        -0.1975 
      2 C         -46.3713  -29.6031    6.3583 C.2       0 UNK         0.4852 
      3 O         -45.8760  -30.3673    7.1848 O.2       0 UNK        -0.5216 
      4 N         -47.6711  -29.2769    6.4275 N.am      1 UNK        -0.4461 
      5 CA        -48.4291  -28.3533    5.5710 C.3       1 UNK         0.0864 
      6 C6        -49.9482  -28.3948    5.8805 C.3       14 UNK        -0.0898 
      7 S7        -50.6191  -30.0933    5.8404 S.3       14 UNK        -0.2598 
      8 C8        -52.3537  -29.8366    6.3342 C.3       14 UNK         0.0286 
      9 C9        -52.4836  -29.2613    7.7382 C.ar      14 UNK        -0.0844 
     10 C10       -52.9453  -27.9557    7.9195 C.ar      14 UNK        -0.0881 
     11 C11       -53.0670  -27.4144    9.2021 C.ar      14 UNK        -0.0643 
     12 C12       -52.7332  -28.1947   10.3132 C.ar      14 UNK        -0.0930 
     13 C13       -52.2782  -29.5058   10.1462 C.ar      14 UNK        -0.0827 
     14 C14       -52.1539  -30.0328    8.8563 C.ar      14 UNK        -0.1249 
     15 C15       -51.8957  -30.3503   11.3519 C.3       14 UNK         0.0141 
     16 S16       -53.1327  -31.6479   11.6741 S.3       14 UNK        -0.2313 
     17 C17       -53.8350  -31.1759   13.2897 C.3       14 UNK        -0.0915 
     18 CA        -55.3025  -30.6927   13.1735 C.3       13 UNK         0.0968 
     19 C         -55.9997  -30.7046   14.5610 C.2       13 UNK         0.5732 
     20 N         -56.5843  -31.8293   14.9504 N.am      13 UNK        -0.7310 
     21 O         -55.9823  -29.7234   15.3011 O.2       13 UNK        -0.5035 
     22 N         -55.3830  -29.3731   12.5361 N.am      13 UNK        -0.4233 
     23 C         -56.4989  -28.8420   12.0274 C.2       13 UNK         0.4989 
     24 O         -57.5689  -29.4468   11.9324 O.2       13 UNK        -0.4996 
     25 CA        -56.4030  -27.3700   11.5881 C.3       12 UNK         0.0216 
     26 CB        -57.5745  -26.9387   10.6866 C.3       12 UNK        -0.1964 
     27 N         -56.3415  -26.4847   12.7539 N.am      12 UNK        -0.4276 
     28 C         -55.2534  -26.2854   13.5073 C.2       12 UNK         0.5020 
     29 O         -54.1452  -26.7625   13.2451 O.2       12 UNK        -0.5489 
     30 CA        -55.4429  -25.4460   14.7776 C.3       11 UNK         0.0294 
     31 CB        -56.2403  -26.2405   15.8331 C.3       11 UNK        -0.2019 
     32 N         -54.1223  -25.0977   15.2928 N.am      11 UNK        -0.4493 
     33 C         -53.8383  -24.2650   16.3019 C.2       11 UNK         0.4932 
     34 O         -54.6921  -23.6161   16.9087 O.2       11 UNK        -0.5029 
     35 CA        -52.3515  -24.1183   16.6904 C.3       10 UNK         0.0280 
     36 CB        -52.1462  -23.7747   18.1811 C.3       10 UNK        -0.1976 
     37 N         -51.5326  -25.2674   16.2836 N.am      10 UNK        -0.4242 
     38 C         -51.5935  -26.5276   16.7399 C.2       10 UNK         0.5072 
     39 O         -52.3125  -26.8936   17.6704 O.2       10 UNK        -0.5224 
     40 CA        -50.7252  -27.5726   16.0173 C.3       9 UNK         0.0343 
     41 CB        -51.5542  -28.3126   14.9568 C.3       9 UNK        -0.2003 
     42 N         -49.5282  -27.0082   15.3865 N.am      9 UNK        -0.4272 
     43 C         -48.4317  -26.6353   16.0624 C.2       9 UNK         0.4988 
     44 O         -48.3106  -26.7412   17.2836 O.2       9 UNK        -0.5108 
     45 CA        -47.2706  -26.0475   15.2425 C.3       8 UNK         0.0248 
     46 CB        -46.5148  -27.1573   14.4939 C.3       8 UNK        -0.2001 
     47 N         -47.7008  -25.0137   14.2984 N.am      8 UNK        -0.4140 
     48 C         -48.2086  -23.8238   14.6528 C.2       8 UNK         0.5028 
     49 O         -48.3363  -23.4496   15.8189 O.2       8 UNK        -0.5428 
     50 CA        -48.6739  -22.8967   13.5168 C.3       7 UNK         0.0264 
     51 CB        -47.4891  -22.1149   12.9272 C.3       7 UNK        -0.1988 
     52 N         -49.3736  -23.6090   12.4459 N.am      7 UNK        -0.4454 
     53 C         -50.5342  -24.2641   12.6006 C.2       7 UNK         0.5027 
     54 O         -51.1625  -24.3054   13.6563 O.2       7 UNK        -0.5083 
     55 CA        -51.0654  -25.0332   11.3800 C.3       6 UNK         0.0844 
     56 C56       -51.7602  -24.0568   10.3969 C.3       14 UNK        -0.0967 
     57 S57       -52.2911  -24.8028    8.8215 S.3       14 UNK        -0.2604 
     58 C58       -53.5583  -25.9850    9.3669 C.3       14 UNK         0.0134 
     59 N         -50.0092  -25.8432   10.7683 N.am      6 UNK        -0.4116 
     60 C         -49.3856  -26.8671   11.3713 C.2       5 UNK         0.5034 
     61 O         -49.6642  -27.2796   12.4968 O.2       5 UNK        -0.5045 
     62 CA        -48.2076  -27.5021   10.6156 C.3       5 UNK         0.0224 
     63 CB        -48.6902  -28.6311    9.6985 C.3       5 UNK        -0.1978 
     64 N         -47.4395  -26.5185    9.8465 N.am      5 UNK        -0.4737 
     65 C         -46.7225  -25.5385   10.4158 C.2       4 UNK         0.5027 
     66 O         -46.5947  -25.4008   11.6320 O.2       4 UNK        -0.5211 
     67 CA        -46.1009  -24.5049    9.4704 C.3       4 UNK         0.0297 
     68 CB        -44.8192  -25.0542    8.8244 C.3       4 UNK        -0.1993 
     69 N         -47.0404  -24.0972    8.4273 N.am      4 UNK        -0.4486 
     70 C         -48.1518  -23.3756    8.6219 C.2       3 UNK         0.4961 
     71 O         -48.5025  -22.9741    9.7319 O.2       3 UNK        -0.5105 
     72 CA        -49.0584  -23.0828    7.4061 C.3       3 UNK         0.0299 
     73 CB        -49.1494  -21.5693    7.1267 C.3       3 UNK        -0.1972 
     74 N         -48.7354  -23.8448    6.1885 N.am      3 UNK        -0.4305 
     75 C         -47.6438  -23.7515    5.4138 C.2       2 UNK         0.5006 
     76 O         -46.7660  -22.9027    5.5732 O.2       2 UNK        -0.5106 
     77 CA        -47.4751  -24.8200    4.3110 C.3       2 UNK         0.0296 
     78 CB        -45.9924  -25.0194    3.9274 C.3       2 UNK        -0.2002 
     79 N         -48.0820  -26.1326    4.5947 N.am      2 UNK        -0.4032 
     80 C         -47.8922  -26.9095    5.6742 C.2       1 UNK         0.5000 
     81 O         -47.3263  -26.5388    6.7078 O.2       1 UNK        -0.5238 
     82 H82       -44.6159  -29.6836    5.0993 H         1 UNK         0.0889 
     83 H83       -45.1383  -28.0495    5.4940 H         1 UNK         0.0889 
     84 H84       -46.0153  -29.0062    4.2866 H         1 UNK         0.0889 
     85 H85       -48.2196  -29.6921    7.1652 H         1 UNK         0.3028 
     86 H86       -48.2947  -28.6891    4.5412 H         1 UNK         0.0864 
     87 H87       -50.1564  -27.9564    6.8567 H         1 UNK         0.0720 
     88 H88       -50.5041  -27.7973    5.1556 H         1 UNK         0.0720 
     89 H89       -52.8764  -30.7931    6.2923 H         1 UNK         0.0814 
     90 H90       -52.8408  -29.1918    5.6011 H         1 UNK         0.0814 
     91 H91       -53.2009  -27.3494    7.0611 H         1 UNK         0.1469 
     92 H92       -52.8181  -27.7814   11.3076 H         1 UNK         0.1381 
     93 H93       -51.7968  -31.0448    8.7220 H         1 UNK         0.1206 
     94 H94       -50.9359  -30.8320   11.1626 H         1 UNK         0.0813 
     95 H95       -51.7447  -29.7202   12.2287 H         1 UNK         0.0813 
     96 H96       -53.7748  -32.0658   13.9193 H         1 UNK         0.0638 
     97 H97       -53.2159  -30.4246   13.7795 H         1 UNK         0.0638 
     98 H98       -55.8412  -31.3975   12.5364 H         1 UNK         0.0568 
     99 H99       -57.0290  -31.8604   15.8544 H         1 UNK         0.3450 
    100 H100      -56.5945  -32.6453   14.3585 H         1 UNK         0.3450 
    101 H101      -54.5900  -28.7579   12.6711 H         1 UNK         0.2987 
    102 H102      -55.4871  -27.2673   11.0076 H         1 UNK         0.0766 
    103 H103      -57.4442  -25.9166   10.3306 H         1 UNK         0.0798 
    104 H104      -58.5314  -26.9938   11.2073 H         1 UNK         0.0798 
    105 H105      -57.6443  -27.5800    9.8069 H         1 UNK         0.0798 
    106 H106      -57.2180  -26.0835   13.0561 H         1 UNK         0.3198 
    107 H107      -55.9740  -24.5287   14.5160 H         1 UNK         0.0843 
    108 H108      -57.2000  -26.5790   15.4413 H         1 UNK         0.0831 
    109 H109      -56.4542  -25.6382   16.7157 H         1 UNK         0.0831 
    110 H110      -55.6930  -27.1257   16.1600 H         1 UNK         0.0831 
    111 H111      -53.3656  -25.5596   14.7997 H         1 UNK         0.3133 
    112 H112      -51.9764  -23.2738   16.1108 H         1 UNK         0.0566 
    113 H113      -51.0874  -23.6845   18.4242 H         1 UNK         0.0814 
    114 H114      -52.6170  -22.8231   18.4305 H         1 UNK         0.0814 
    115 H115      -52.5797  -24.5303   18.8366 H         1 UNK         0.0814 
    116 H116      -50.9661  -25.0941   15.4586 H         1 UNK         0.3091 
    117 H117      -50.4088  -28.3035   16.7646 H         1 UNK         0.0702 
    118 H118      -52.4765  -28.7096   15.3837 H         1 UNK         0.0785 
    119 H119      -51.8321  -27.6541   14.1335 H         1 UNK         0.0785 
    120 H120      -50.9981  -29.1518   14.5393 H         1 UNK         0.0785 
    121 H121      -49.5372  -26.9382   14.3713 H         1 UNK         0.2998 
    122 H122      -46.5739  -25.5820   15.9428 H         1 UNK         0.0697 
    123 H123      -47.1504  -27.6575   13.7632 H         1 UNK         0.0825 
    124 H124      -46.1527  -27.9182   15.1864 H         1 UNK         0.0825 
    125 H125      -45.6477  -26.7600   13.9659 H         1 UNK         0.0825 
    126 H126      -47.5556  -25.2056   13.3103 H         1 UNK         0.3029 
    127 H127      -49.3753  -22.1783   13.9466 H         1 UNK         0.0897 
    128 H128      -47.8219  -21.3999   12.1745 H         1 UNK         0.0792 
    129 H129      -46.7607  -22.7770   12.4579 H         1 UNK         0.0792 
    130 H130      -46.9679  -21.5520   13.7026 H         1 UNK         0.0792 
    131 H131      -48.9464  -23.5768   11.5233 H         1 UNK         0.3086 
    132 H132      -51.8211  -25.7262   11.7528 H         1 UNK         0.0583 
    133 H133      -52.6345  -23.6073   10.8724 H         1 UNK         0.1020 
    134 H134      -51.1027  -23.2223   10.1478 H         1 UNK         0.1020 
    135 H135      -53.8418  -25.7807   10.3999 H         1 UNK         0.0694 
    136 H136      -54.4591  -25.8413    8.7685 H         1 UNK         0.0694 
    137 H137      -49.7129  -25.5720    9.8439 H         1 UNK         0.2989 
    138 H138      -47.5387  -27.9383   11.3604 H         1 UNK         0.1055 
    139 H139      -49.2096  -29.3987   10.2718 H         1 UNK         0.0806 
    140 H140      -47.8520  -29.1165    9.2005 H         1 UNK         0.0806 
    141 H141      -49.3839  -28.2676    8.9422 H         1 UNK         0.0806 
    142 H142      -47.4773  -26.5687    8.8330 H         1 UNK         0.3061 
    143 H143      -45.8407  -23.6224   10.0589 H         1 UNK         0.0734 
    144 H144      -44.3389  -24.3031    8.1971 H         1 UNK         0.0832 
    145 H145      -44.0965  -25.3515    9.5855 H         1 UNK         0.0832 
    146 H146      -45.0194  -25.9294    8.2044 H         1 UNK         0.0832 
    147 H147      -46.8629  -24.4521    7.4965 H         1 UNK         0.3156 
    148 H148      -50.0553  -23.4126    7.6926 H         1 UNK         0.0589 
    149 H149      -48.1766  -21.1359    6.8939 H         1 UNK         0.0808 
    150 H150      -49.8210  -21.3582    6.2946 H         1 UNK         0.0808 
    151 H151      -49.5363  -21.0378    7.9972 H         1 UNK         0.0808 
    152 H152      -49.3823  -24.5899    5.9713 H         1 UNK         0.3098 
    153 H153      -47.9931  -24.4260    3.4354 H         1 UNK         0.0720 
    154 H154      -45.8835  -25.7489    3.1249 H         1 UNK         0.0791 
    155 H155      -45.4013  -25.3652    4.7765 H         1 UNK         0.0791 
    156 H156      -45.5450  -24.0889    3.5752 H         1 UNK         0.0791 
    157 H157      -48.6131  -26.5217    3.8271 H         1 UNK         0.3028 
@<TRIPOS>BOND
     1    1    2 1    
     2    1   82 1    
     3    1   83 1    
     4    1   84 1    
     5    2    3 2    
     6    2    4 am   BACKBONE|DICT|INTERRES
     7    4    5 1    
     8    4   85 1    
     9    5    6 1    
    10    5   80 1    
    11    5   86 1    
    12    6    7 1    
    13    6   87 1    
    14    6   88 1    
    15    7    8 1    
    16    8    9 1    
    17    8   89 1    
    18    8   90 1    
    19    9   10 ar   
    20    9   14 ar   
    21   10   11 ar   
    22   10   91 1    
    23   11   12 ar   
    24   11   58 1    
    25   12   13 ar   
    26   12   92 1    
    27   13   14 ar   
    28   13   15 1    
    29   14   93 1    
    30   15   16 1    
    31   15   94 1    
    32   15   95 1    
    33   16   17 1    
    34   17   18 1    
    35   17   96 1    
    36   17   97 1    
    37   18   19 1    
    38   18   22 1    
    39   18   98 1    
    40   19   20 am   BACKBONE|DICT|INTERRES
    41   19   21 2    
    42   20   99 1    
    43   20  100 1    
    44   22   23 am   BACKBONE|DICT|INTERRES
    45   22  101 1    
    46   23   24 2    
    47   23   25 1    
    48   25   26 1    
    49   25   27 1    
    50   25  102 1    
    51   26  103 1    
    52   26  104 1    
    53   26  105 1    
    54   27   28 am   BACKBONE|DICT|INTERRES
    55   27  106 1    
    56   28   29 2    
    57   28   30 1    
    58   30   31 1    
    59   30   32 1    
    60   30  107 1    
    61   31  108 1    
    62   31  109 1    
    63   31  110 1    
    64   32   33 am   BACKBONE|DICT|INTERRES
    65   32  111 1    
    66   33   34 2    
    67   33   35 1    
    68   35   36 1    
    69   35   37 1    
    70   35  112 1    
    71   36  113 1    
    72   36  114 1    
    73   36  115 1    
    74   37   38 am   BACKBONE|DICT|INTERRES
    75   37  116 1    
    76   38   39 2    
    77   38   40 1    
    78   40   41 1    
    79   40   42 1    
    80   40  117 1    
    81   41  118 1    
    82   41  119 1    
    83   41  120 1    
    84   42   43 am   BACKBONE|DICT|INTERRES
    85   42  121 1    
    86   43   44 2    
    87   43   45 1    
    88   45   46 1    
    89   45   47 1    
    90   45  122 1    
    91   46  123 1    
    92   46  124 1    
    93   46  125 1    
    94   47   48 am   BACKBONE|DICT|INTERRES
    95   47  126 1    
    96   48   49 2    
    97   48   50 1    
    98   50   51 1    
    99   50   52 1    
   100   50  127 1    
   101   51  128 1    
   102   51  129 1    
   103   51  130 1    
   104   52   53 am   BACKBONE|DICT|INTERRES
   105   52  131 1    
   106   53   54 2    
   107   53   55 1    
   108   55   56 1    
   109   55   59 1    
   110   55  132 1    
   111   56   57 1    
   112   56  133 1    
   113   56  134 1    
   114   57   58 1    
   115   58  135 1    
   116   58  136 1    
   117   59   60 am   BACKBONE|DICT|INTERRES
   118   59  137 1    
   119   60   61 2    
   120   60   62 1    
   121   62   63 1    
   122   62   64 1    
   123   62  138 1    
   124   63  139 1    
   125   63  140 1    
   126   63  141 1    
   127   64   65 am   BACKBONE|DICT|INTERRES
   128   64  142 1    
   129   65   66 2    
   130   65   67 1    
   131   67   68 1    
   132   67   69 1    
   133   67  143 1    
   134   68  144 1    
   135   68  145 1    
   136   68  146 1    
   137   69   70 am   BACKBONE|DICT|INTERRES
   138   69  147 1    
   139   70   71 2    
   140   70   72 1    
   141   72   73 1    
   142   72   74 1    
   143   72  148 1    
   144   73  149 1    
   145   73  150 1    
   146   73  151 1    
   147   74   75 am   BACKBONE|DICT|INTERRES
   148   74  152 1    
   149   75   76 2    
   150   75   77 1    
   151   77   78 1    
   152   77   79 1    
   153   77  153 1    
   154   78  154 1    
   155   78  155 1    
   156   78  156 1    
   157   79   80 am   BACKBONE|DICT|INTERRES
   158   79  157 1    
   159   80   81 2    
@<TRIPOS>SUBSTRUCTURE
     1 UNK         1 GROUP             0       ****    0 ROOT    
