@<TRIPOS>MOLECULE
3R207
157   159    1
SMALL
USER_CHARGES


@<TRIPOS>ATOM
      1 CA        -47.1720  -33.5823    6.0919 C.3       0 UNK        -0.1975 
      2 C         -47.3397  -32.0914    6.3463 C.2       0 UNK         0.4852 
      3 O         -46.3735  -31.4214    6.7134 O.2       0 UNK        -0.5216 
      4 N         -48.5556  -31.5663    6.1465 N.am      1 UNK        -0.4461 
      5 CA        -48.9179  -30.1704    6.4037 C.3       1 UNK         0.0864 
      6 C6        -50.2439  -29.8078    5.6850 C.3       14 UNK        -0.0898 
      7 S7        -50.8244  -28.0974    5.9741 S.3       14 UNK        -0.2598 
      8 C8        -52.4051  -28.4411    6.8130 C.3       14 UNK         0.0286 
      9 C9        -53.0315  -27.2001    7.4343 C.ar      14 UNK        -0.0844 
     10 C10       -53.3276  -26.0781    6.6516 C.ar      14 UNK        -0.0881 
     11 C11       -53.9288  -24.9526    7.2240 C.ar      14 UNK        -0.0643 
     12 C12       -54.2717  -24.9709    8.5785 C.ar      14 UNK        -0.0930 
     13 C13       -53.9690  -26.0784    9.3723 C.ar      14 UNK        -0.0827 
     14 C14       -53.3433  -27.1878    8.7977 C.ar      14 UNK        -0.1249 
     15 C15       -54.2842  -26.0469   10.8576 C.3       14 UNK         0.0141 
     16 S16       -56.0287  -26.4292   11.2061 S.3       14 UNK        -0.2313 
     17 C17       -56.0667  -28.2384   10.9685 C.3       14 UNK        -0.0915 
     18 CA        -56.4850  -29.0192   12.2428 C.3       13 UNK         0.0968 
     19 C         -56.5843  -30.5422   11.9287 C.2       13 UNK         0.5732 
     20 N         -55.6848  -31.3890   12.4192 N.am      13 UNK        -0.7310 
     21 O         -57.5010  -30.9620   11.2265 O.2       13 UNK        -0.5035 
     22 N         -55.6281  -28.6968   13.3940 N.am      13 UNK        -0.4233 
     23 C         -55.8909  -29.0302   14.6647 C.2       13 UNK         0.4989 
     24 O         -56.9673  -29.5046   15.0326 O.2       13 UNK        -0.4996 
     25 CA        -54.7640  -28.8079   15.6982 C.3       12 UNK         0.0216 
     26 CB        -54.7780  -29.8744   16.8140 C.3       12 UNK        -0.1964 
     27 N         -53.4134  -28.6937   15.1190 N.am      12 UNK        -0.4276 
     28 C         -52.7809  -29.6064   14.3635 C.2       12 UNK         0.5020 
     29 O         -53.2858  -30.6803   14.0310 O.2       12 UNK        -0.5489 
     30 CA        -51.3785  -29.2639   13.8364 C.3       11 UNK         0.0294 
     31 CB        -51.4398  -28.8541   12.3570 C.3       11 UNK        -0.2019 
     32 N         -50.6749  -28.2233   14.5910 N.am      11 UNK        -0.4493 
     33 C         -50.0086  -28.4507   15.7319 C.2       11 UNK         0.4932 
     34 O         -50.0180  -29.5274   16.3289 O.2       11 UNK        -0.5029 
     35 CA        -49.1670  -27.2930   16.2856 C.3       10 UNK         0.0280 
     36 CB        -47.9281  -27.0552   15.4056 C.3       10 UNK        -0.1976 
     37 N         -49.9518  -26.0634   16.3605 N.am      10 UNK        -0.4242 
     38 C         -50.5109  -25.5821   17.4802 C.2       10 UNK         0.5072 
     39 O         -50.3816  -26.0996   18.5907 O.2       10 UNK        -0.5224 
     40 CA        -51.3607  -24.3012   17.3544 C.3       9 UNK         0.0343 
     41 CB        -50.5309  -23.0678   17.7463 C.3       9 UNK        -0.2003 
     42 N         -51.9286  -24.0910   16.0201 N.am      9 UNK        -0.4272 
     43 C         -52.8105  -24.9088   15.4290 C.2       9 UNK         0.4988 
     44 O         -53.2815  -25.9087   15.9664 O.2       9 UNK        -0.5108 
     45 CA        -53.1845  -24.6024   13.9706 C.3       8 UNK         0.0248 
     46 CB        -54.4263  -23.6981   13.9178 C.3       8 UNK        -0.2001 
     47 N         -52.0989  -23.9987   13.1878 N.am      8 UNK        -0.4140 
     48 C         -50.8797  -24.5229   13.0042 C.2       8 UNK         0.5028 
     49 O         -50.5370  -25.6207   13.4536 O.2       8 UNK        -0.5428 
     50 CA        -49.8719  -23.6538   12.2274 C.3       7 UNK         0.0264 
     51 CB        -48.4219  -24.0976   12.4887 C.3       7 UNK        -0.1988 
     52 N         -50.1246  -23.6317   10.7822 N.am      7 UNK        -0.4454 
     53 C         -51.1646  -23.0268   10.1844 C.2       7 UNK         0.5027 
     54 O         -52.0213  -22.3932   10.8061 O.2       7 UNK        -0.5083 
     55 CA        -51.2653  -23.1586    8.6458 C.3       6 UNK         0.0844 
     56 C56       -52.3494  -22.2398    8.0120 C.3       14 UNK        -0.0967 
     57 S57       -52.6754  -22.6707    6.2646 S.3       14 UNK        -0.2604 
     58 C58       -54.1761  -23.7014    6.3940 C.3       14 UNK         0.0134 
     59 N         -49.9624  -23.0541    7.9834 N.am      6 UNK        -0.4116 
     60 C         -49.1366  -21.9991    7.9828 C.2       5 UNK         0.5034 
     61 O         -49.3681  -20.9269    8.5452 O.2       5 UNK        -0.5045 
     62 CA        -47.7987  -22.2025    7.2447 C.3       5 UNK         0.0224 
     63 CB        -47.4189  -20.9590    6.4209 C.3       5 UNK        -0.1978 
     64 N         -46.6861  -22.5394    8.1421 N.am      5 UNK        -0.4737 
     65 C         -46.6697  -23.5312    9.0421 C.2       4 UNK         0.5027 
     66 O         -47.6267  -24.2813    9.2634 O.2       4 UNK        -0.5211 
     67 CA        -45.3629  -23.7340    9.8213 C.3       4 UNK         0.0297 
     68 CB        -45.0223  -22.5365   10.7287 C.3       4 UNK        -0.1993 
     69 N         -45.5381  -24.9435   10.6125 N.am      4 UNK        -0.4486 
     70 C         -44.5914  -25.7812   11.0371 C.2       3 UNK         0.4961 
     71 O         -43.3836  -25.5598   10.9433 O.2       3 UNK        -0.5105 
     72 CA        -45.0770  -27.1048   11.6630 C.3       3 UNK         0.0299 
     73 CB        -45.0682  -26.9953   13.1961 C.3       3 UNK        -0.1972 
     74 N         -46.4088  -27.5511   11.2194 N.am      3 UNK        -0.4305 
     75 C         -46.7449  -27.8536    9.9561 C.2       2 UNK         0.5006 
     76 O         -45.9760  -27.7420    8.9968 O.2       2 UNK        -0.5106 
     77 CA        -48.1756  -28.3682    9.7281 C.3       2 UNK         0.0296 
     78 CB        -49.2327  -27.2701    9.9564 C.3       2 UNK        -0.2002 
     79 N         -48.2806  -28.8395    8.3518 N.am      2 UNK        -0.4032 
     80 C         -48.9638  -29.9054    7.9251 C.2       1 UNK         0.5000 
     81 O         -49.6230  -30.6487    8.6575 O.2       1 UNK        -0.5238 
     82 H82       -46.8474  -34.0838    7.0032 H         1 UNK         0.0889 
     83 H83       -46.4177  -33.7493    5.3234 H         1 UNK         0.0889 
     84 H84       -48.1009  -34.0471    5.7616 H         1 UNK         0.0889 
     85 H85       -49.3160  -32.1728    5.8744 H         1 UNK         0.3028 
     86 H86       -48.1334  -29.5446    5.9716 H         1 UNK         0.0864 
     87 H87       -51.0277  -30.5121    5.9696 H         1 UNK         0.0720 
     88 H88       -50.1174  -29.9308    4.6082 H         1 UNK         0.0720 
     89 H89       -52.2373  -29.2000    7.5794 H         1 UNK         0.0814 
     90 H90       -53.1053  -28.8730    6.0968 H         1 UNK         0.0814 
     91 H91       -53.0712  -26.0734    5.6009 H         1 UNK         0.1469 
     92 H92       -54.7465  -24.1091    9.0269 H         1 UNK         0.1381 
     93 H93       -53.1042  -28.0452    9.4116 H         1 UNK         0.1206 
     94 H94       -54.0606  -25.0498   11.2354 H         1 UNK         0.0813 
     95 H95       -53.6399  -26.7333   11.4046 H         1 UNK         0.0813 
     96 H96       -55.0928  -28.5858   10.6223 H         1 UNK         0.0638 
     97 H97       -56.7638  -28.4404   10.1531 H         1 UNK         0.0638 
     98 H98       -57.4959  -28.6999   12.5030 H         1 UNK         0.0568 
     99 H99       -55.7695  -32.3697   12.2066 H         1 UNK         0.3450 
    100 H100      -54.9152  -31.0656   12.9980 H         1 UNK         0.3450 
    101 H101      -54.7234  -28.3106   13.1797 H         1 UNK         0.2987 
    102 H102      -54.9827  -27.8476   16.1654 H         1 UNK         0.0766 
    103 H103      -55.7267  -29.8703   17.3520 H         1 UNK         0.0798 
    104 H104      -53.9926  -29.6902   17.5471 H         1 UNK         0.0798 
    105 H105      -54.6351  -30.8790   16.4145 H         1 UNK         0.0798 
    106 H106      -52.9405  -27.8199   15.3282 H         1 UNK         0.3198 
    107 H107      -50.7970  -30.1870   13.8949 H         1 UNK         0.0843 
    108 H108      -51.8248  -27.8434   12.2305 H         1 UNK         0.0831 
    109 H109      -52.0722  -29.5284   11.7770 H         1 UNK         0.0831 
    110 H110      -50.4470  -28.8915   11.9122 H         1 UNK         0.0831 
    111 H111      -50.6113  -27.3031   14.1563 H         1 UNK         0.3133 
    112 H112      -48.8156  -27.5788   17.2793 H         1 UNK         0.0566 
    113 H113      -47.2910  -26.2763   15.8246 H         1 UNK         0.0814 
    114 H114      -48.1966  -26.7560   14.3919 H         1 UNK         0.0814 
    115 H115      -47.3252  -27.9611   15.3312 H         1 UNK         0.0814 
    116 H116      -50.1483  -25.6033   15.4790 H         1 UNK         0.3091 
    117 H117      -52.1918  -24.3931   18.0569 H         1 UNK         0.0702 
    118 H118      -51.1394  -22.1632   17.7482 H         1 UNK         0.0785 
    119 H119      -49.6941  -22.9105   17.0645 H         1 UNK         0.0785 
    120 H120      -50.1170  -23.1788   18.7496 H         1 UNK         0.0785 
    121 H121      -51.5984  -23.2884   15.5045 H         1 UNK         0.2998 
    122 H122      -53.4313  -25.5578   13.5071 H         1 UNK         0.0697 
    123 H123      -54.7560  -23.5222   12.8942 H         1 UNK         0.0825 
    124 H124      -54.2381  -22.7271   14.3777 H         1 UNK         0.0825 
    125 H125      -55.2626  -24.1543   14.4498 H         1 UNK         0.0825 
    126 H126      -52.3053  -23.1309   12.7034 H         1 UNK         0.3029 
    127 H127      -49.9697  -22.6325   12.6020 H         1 UNK         0.0897 
    128 H128      -48.2225  -25.0937   12.0963 H         1 UNK         0.0792 
    129 H129      -48.2030  -24.1188   13.5572 H         1 UNK         0.0792 
    130 H130      -47.7170  -23.4070   12.0317 H         1 UNK         0.0792 
    131 H131      -49.4257  -24.0782   10.1960 H         1 UNK         0.3086 
    132 H132      -51.5728  -24.1920    8.4874 H         1 UNK         0.0583 
    133 H133      -53.2878  -22.2902    8.5651 H         1 UNK         0.1020 
    134 H134      -52.0400  -21.1948    8.0622 H         1 UNK         0.1020 
    135 H135      -54.9875  -23.1097    6.8208 H         1 UNK         0.0694 
    136 H136      -54.4994  -23.9840    5.3911 H         1 UNK         0.0694 
    137 H137      -49.6443  -23.9001    7.5330 H         1 UNK         0.2989 
    138 H138      -47.9179  -23.0346    6.5472 H         1 UNK         0.1055 
    139 H139      -47.2122  -20.0983    7.0584 H         1 UNK         0.0806 
    140 H140      -48.2282  -20.6766    5.7459 H         1 UNK         0.0806 
    141 H141      -46.5369  -21.1418    5.8068 H         1 UNK         0.0806 
    142 H142      -45.8577  -21.9692    8.0501 H         1 UNK         0.3061 
    143 H143      -44.5583  -23.8928    9.1003 H         1 UNK         0.0734 
    144 H144      -45.8280  -22.3049   11.4240 H         1 UNK         0.0832 
    145 H145      -44.1233  -22.7279   11.3147 H         1 UNK         0.0832 
    146 H146      -44.8339  -21.6380   10.1406 H         1 UNK         0.0832 
    147 H147      -46.5046  -25.2451   10.6476 H         1 UNK         0.3156 
    148 H148      -44.3632  -27.8784   11.3727 H         1 UNK         0.0589 
    149 H149      -45.7665  -26.2355   13.5486 H         1 UNK         0.0808 
    150 H150      -44.0780  -26.7183   13.5610 H         1 UNK         0.0808 
    151 H151      -45.3291  -27.9434   13.6665 H         1 UNK         0.0808 
    152 H152      -47.0999  -27.6809   11.9437 H         1 UNK         0.3098 
    153 H153      -48.3489  -29.1967   10.4181 H         1 UNK         0.0720 
    154 H154      -49.2195  -26.9039   10.9826 H         1 UNK         0.0791 
    155 H155      -50.2380  -27.6454    9.7630 H         1 UNK         0.0791 
    156 H156      -49.0754  -26.4187    9.2952 H         1 UNK         0.0791 
    157 H157      -47.6887  -28.3368    7.7025 H         1 UNK         0.3028 
@<TRIPOS>BOND
     1    1    2 1    
     2    1   82 1    
     3    1   83 1    
     4    1   84 1    
     5    2    3 2    
     6    2    4 am   BACKBONE|DICT|INTERRES
     7    4    5 1    
     8    4   85 1    
     9    5    6 1    
    10    5   80 1    
    11    5   86 1    
    12    6    7 1    
    13    6   87 1    
    14    6   88 1    
    15    7    8 1    
    16    8    9 1    
    17    8   89 1    
    18    8   90 1    
    19    9   10 ar   
    20    9   14 ar   
    21   10   11 ar   
    22   10   91 1    
    23   11   12 ar   
    24   11   58 1    
    25   12   13 ar   
    26   12   92 1    
    27   13   14 ar   
    28   13   15 1    
    29   14   93 1    
    30   15   16 1    
    31   15   94 1    
    32   15   95 1    
    33   16   17 1    
    34   17   18 1    
    35   17   96 1    
    36   17   97 1    
    37   18   19 1    
    38   18   22 1    
    39   18   98 1    
    40   19   20 am   BACKBONE|DICT|INTERRES
    41   19   21 2    
    42   20   99 1    
    43   20  100 1    
    44   22   23 am   BACKBONE|DICT|INTERRES
    45   22  101 1    
    46   23   24 2    
    47   23   25 1    
    48   25   26 1    
    49   25   27 1    
    50   25  102 1    
    51   26  103 1    
    52   26  104 1    
    53   26  105 1    
    54   27   28 am   BACKBONE|DICT|INTERRES
    55   27  106 1    
    56   28   29 2    
    57   28   30 1    
    58   30   31 1    
    59   30   32 1    
    60   30  107 1    
    61   31  108 1    
    62   31  109 1    
    63   31  110 1    
    64   32   33 am   BACKBONE|DICT|INTERRES
    65   32  111 1    
    66   33   34 2    
    67   33   35 1    
    68   35   36 1    
    69   35   37 1    
    70   35  112 1    
    71   36  113 1    
    72   36  114 1    
    73   36  115 1    
    74   37   38 am   BACKBONE|DICT|INTERRES
    75   37  116 1    
    76   38   39 2    
    77   38   40 1    
    78   40   41 1    
    79   40   42 1    
    80   40  117 1    
    81   41  118 1    
    82   41  119 1    
    83   41  120 1    
    84   42   43 am   BACKBONE|DICT|INTERRES
    85   42  121 1    
    86   43   44 2    
    87   43   45 1    
    88   45   46 1    
    89   45   47 1    
    90   45  122 1    
    91   46  123 1    
    92   46  124 1    
    93   46  125 1    
    94   47   48 am   BACKBONE|DICT|INTERRES
    95   47  126 1    
    96   48   49 2    
    97   48   50 1    
    98   50   51 1    
    99   50   52 1    
   100   50  127 1    
   101   51  128 1    
   102   51  129 1    
   103   51  130 1    
   104   52   53 am   BACKBONE|DICT|INTERRES
   105   52  131 1    
   106   53   54 2    
   107   53   55 1    
   108   55   56 1    
   109   55   59 1    
   110   55  132 1    
   111   56   57 1    
   112   56  133 1    
   113   56  134 1    
   114   57   58 1    
   115   58  135 1    
   116   58  136 1    
   117   59   60 am   BACKBONE|DICT|INTERRES
   118   59  137 1    
   119   60   61 2    
   120   60   62 1    
   121   62   63 1    
   122   62   64 1    
   123   62  138 1    
   124   63  139 1    
   125   63  140 1    
   126   63  141 1    
   127   64   65 am   BACKBONE|DICT|INTERRES
   128   64  142 1    
   129   65   66 2    
   130   65   67 1    
   131   67   68 1    
   132   67   69 1    
   133   67  143 1    
   134   68  144 1    
   135   68  145 1    
   136   68  146 1    
   137   69   70 am   BACKBONE|DICT|INTERRES
   138   69  147 1    
   139   70   71 2    
   140   70   72 1    
   141   72   73 1    
   142   72   74 1    
   143   72  148 1    
   144   73  149 1    
   145   73  150 1    
   146   73  151 1    
   147   74   75 am   BACKBONE|DICT|INTERRES
   148   74  152 1    
   149   75   76 2    
   150   75   77 1    
   151   77   78 1    
   152   77   79 1    
   153   77  153 1    
   154   78  154 1    
   155   78  155 1    
   156   78  156 1    
   157   79   80 am   BACKBONE|DICT|INTERRES
   158   79  157 1    
   159   80   81 2    
@<TRIPOS>SUBSTRUCTURE
     1 UNK         1 GROUP             0       ****    0 ROOT    
