@<TRIPOS>MOLECULE
3R207
157   159    1
SMALL
USER_CHARGES


@<TRIPOS>ATOM
      1 CA        -45.7401  -29.1132    6.1350 C.3       0 UNK        -0.1975 
      2 C         -46.9245  -28.3405    5.5734 C.2       0 UNK         0.4852 
      3 O         -46.7319  -27.4165    4.7822 O.2       0 UNK        -0.5216 
      4 N         -48.1470  -28.7138    5.9756 N.am      1 UNK        -0.4461 
      5 CA        -49.3934  -28.0246    5.6275 C.3       1 UNK         0.0864 
      6 C6        -50.6204  -28.8738    6.0412 C.3       14 UNK        -0.0898 
      7 S7        -52.2155  -28.1999    5.4470 S.3       14 UNK        -0.2598 
      8 C8        -53.4353  -29.0701    6.4885 C.3       14 UNK         0.0286 
      9 C9        -53.1769  -28.8709    7.9753 C.ar      14 UNK        -0.0844 
     10 C10       -53.4860  -27.6578    8.5983 C.ar      14 UNK        -0.0881 
     11 C11       -53.1910  -27.4607    9.9518 C.ar      14 UNK        -0.0643 
     12 C12       -52.6067  -28.5011   10.6852 C.ar      14 UNK        -0.0930 
     13 C13       -52.2948  -29.7171   10.0719 C.ar      14 UNK        -0.0827 
     14 C14       -52.5946  -29.8988    8.7210 C.ar      14 UNK        -0.1249 
     15 C15       -51.5826  -30.8230   10.8363 C.3       14 UNK         0.0141 
     16 S16       -52.7308  -32.1263   11.3848 S.3       14 UNK        -0.2313 
     17 C17       -53.1181  -31.6091   13.0898 C.3       14 UNK        -0.0915 
     18 CA        -54.6172  -31.2869   13.3133 C.3       13 UNK         0.0968 
     19 C         -54.8686  -31.0224   14.8264 C.2       13 UNK         0.5732 
     20 N         -54.9185  -29.7736   15.2749 N.am      13 UNK        -0.7310 
     21 O         -55.0150  -31.9661   15.5997 O.2       13 UNK        -0.5035 
     22 N         -55.0719  -30.2016   12.4335 N.am      13 UNK        -0.4233 
     23 C         -56.3392  -29.7960   12.3002 C.2       13 UNK         0.4989 
     24 O         -57.3123  -30.3873   12.7724 O.2       13 UNK        -0.4996 
     25 CA        -56.5394  -28.4624   11.5571 C.3       12 UNK         0.0216 
     26 CB        -57.7991  -28.4830   10.6737 C.3       12 UNK        -0.1964 
     27 N         -56.6162  -27.3259   12.4845 N.am      12 UNK        -0.4276 
     28 C         -55.6539  -26.9541   13.3395 C.2       12 UNK         0.5020 
     29 O         -54.5657  -27.5295   13.4467 O.2       12 UNK        -0.5489 
     30 CA        -55.9424  -25.7486   14.2398 C.3       11 UNK         0.0294 
     31 CB        -56.8257  -26.1593   15.4332 C.3       11 UNK        -0.2019 
     32 N         -54.6487  -25.2621   14.7042 N.am      11 UNK        -0.4493 
     33 C         -54.3714  -24.1120   15.3237 C.2       11 UNK         0.4932 
     34 O         -55.2255  -23.2677   15.5983 O.2       11 UNK        -0.5029 
     35 CA        -52.8914  -23.8323   15.6655 C.3       10 UNK         0.0280 
     36 CB        -52.7172  -23.2389   17.0791 C.3       10 UNK        -0.1976 
     37 N         -51.9851  -24.9706   15.4501 N.am      10 UNK        -0.4242 
     38 C         -51.9371  -26.1340   16.1186 C.2       10 UNK         0.5072 
     39 O         -52.6778  -26.4252   17.0580 O.2       10 UNK        -0.5224 
     40 CA        -50.8891  -27.1580   15.6463 C.3       9 UNK         0.0343 
     41 CB        -51.4202  -27.9570   14.4477 C.3       9 UNK        -0.2003 
     42 N         -49.6037  -26.5501   15.2932 N.am      9 UNK        -0.4272 
     43 C         -48.7656  -25.9892   16.1775 C.2       9 UNK         0.4988 
     44 O         -48.9734  -25.9474   17.3908 O.2       9 UNK        -0.5108 
     45 CA        -47.4712  -25.3752   15.6197 C.3       8 UNK         0.0248 
     46 CB        -46.4138  -26.4658   15.3840 C.3       8 UNK        -0.2001 
     47 N         -47.6905  -24.6179   14.3855 N.am      8 UNK        -0.4140 
     48 C         -48.3580  -23.4559   14.3220 C.2       8 UNK         0.5028 
     49 O         -48.7979  -22.8630   15.3078 O.2       8 UNK        -0.5428 
     50 CA        -48.6006  -22.8600   12.9235 C.3       7 UNK         0.0264 
     51 CB        -47.3689  -22.0771   12.4439 C.3       7 UNK        -0.1988 
     52 N         -48.9748  -23.8633   11.9221 N.am      7 UNK        -0.4454 
     53 C         -50.0812  -24.6201   11.9903 C.2       7 UNK         0.5027 
     54 O         -50.9100  -24.5325   12.8965 O.2       7 UNK        -0.5083 
     55 CA        -50.2735  -25.7004   10.9090 C.3       6 UNK         0.0844 
     56 C56       -50.9809  -25.1662    9.6420 C.3       14 UNK        -0.0967 
     57 S57       -52.7314  -24.6828    9.8299 S.3       14 UNK        -0.2604 
     58 C58       -53.5046  -26.1299   10.6303 C.3       14 UNK         0.0134 
     59 N         -49.0205  -26.3753   10.5726 N.am      6 UNK        -0.4116 
     60 C         -48.3341  -27.1558   11.4172 C.2       5 UNK         0.5034 
     61 O         -48.6892  -27.4048   12.5701 O.2       5 UNK        -0.5045 
     62 CA        -46.9996  -27.7102   10.8955 C.3       5 UNK         0.0224 
     63 CB        -47.2286  -28.7684    9.8027 C.3       5 UNK        -0.1978 
     64 N         -46.1162  -26.6541   10.3903 N.am      5 UNK        -0.4737 
     65 C         -45.6210  -25.6579   11.1394 C.2       4 UNK         0.5027 
     66 O         -45.8442  -25.5291   12.3416 O.2       4 UNK        -0.5211 
     67 CA        -44.7526  -24.6063   10.4278 C.3       4 UNK         0.0297 
     68 CB        -43.2890  -25.0721   10.3746 C.3       4 UNK        -0.1993 
     69 N         -45.2012  -24.2499    9.0773 N.am      4 UNK        -0.4486 
     70 C         -46.4243  -23.8141    8.7447 C.2       3 UNK         0.4961 
     71 O         -47.3614  -23.7290    9.5426 O.2       3 UNK        -0.5105 
     72 CA        -46.6567  -23.4206    7.2779 C.3       3 UNK         0.0299 
     73 CB        -45.5689  -23.9089    6.2972 C.3       3 UNK        -0.1972 
     74 N         -47.9471  -23.9666    6.8918 N.am      3 UNK        -0.4305 
     75 C         -48.8327  -23.4498    6.0419 C.2       2 UNK         0.5006 
     76 O         -48.6437  -22.4168    5.3965 O.2       2 UNK        -0.5106 
     77 CA        -50.1526  -24.2377    5.8982 C.3       2 UNK         0.0296 
     78 CB        -51.1271  -23.5854    4.8999 C.3       2 UNK        -0.2002 
     79 N         -49.9566  -25.6410    5.5166 N.am      2 UNK        -0.4032 
     80 C         -49.4294  -26.6200    6.2679 C.2       1 UNK         0.5000 
     81 O         -48.9964  -26.4584    7.4158 O.2       1 UNK        -0.5238 
     82 H82       -45.0914  -28.4445    6.7002 H         1 UNK         0.0889 
     83 H83       -45.1575  -29.5487    5.3237 H         1 UNK         0.0889 
     84 H84       -46.0552  -29.9198    6.7968 H         1 UNK         0.0889 
     85 H85       -48.2391  -29.4720    6.6354 H         1 UNK         0.3028 
     86 H86       -49.4057  -27.9114    4.5412 H         1 UNK         0.0864 
     87 H87       -50.5256  -29.8864    5.6459 H         1 UNK         0.0720 
     88 H88       -50.6367  -28.9715    7.1266 H         1 UNK         0.0720 
     89 H89       -53.4259  -30.1314    6.2349 H         1 UNK         0.0814 
     90 H90       -54.4344  -28.7080    6.2423 H         1 UNK         0.0814 
     91 H91       -53.9293  -26.8563    8.0233 H         1 UNK         0.1469 
     92 H92       -52.3768  -28.3591   11.7307 H         1 UNK         0.1381 
     93 H93       -52.3436  -30.8352    8.2413 H         1 UNK         0.1206 
     94 H94       -50.8359  -31.2791   10.1845 H         1 UNK         0.0813 
     95 H95       -51.0223  -30.4162   11.6794 H         1 UNK         0.0813 
     96 H96       -52.5044  -30.7509   13.3680 H         1 UNK         0.0638 
     97 H97       -52.8051  -32.4247   13.7447 H         1 UNK         0.0638 
     98 H98       -55.1956  -32.1748   13.0514 H         1 UNK         0.0568 
     99 H99       -54.7757  -28.9965   14.6367 H         1 UNK         0.3450 
    100 H100      -55.0765  -29.6055   16.2548 H         1 UNK         0.3450 
    101 H101      -54.3429  -29.6226   12.0435 H         1 UNK         0.2987 
    102 H102      -55.6825  -28.3067   10.9007 H         1 UNK         0.0766 
    103 H103      -57.8803  -27.5742   10.0771 H         1 UNK         0.0798 
    104 H104      -58.7100  -28.5794   11.2660 H         1 UNK         0.0798 
    105 H105      -57.7722  -29.3232    9.9785 H         1 UNK         0.0798 
    106 H106      -57.4875  -26.8153   12.4903 H         1 UNK         0.3198 
    107 H107      -56.4307  -24.9679   13.6533 H         1 UNK         0.0843 
    108 H108      -56.3437  -26.9251   16.0428 H         1 UNK         0.0831 
    109 H109      -57.7814  -26.5629   15.0969 H         1 UNK         0.0831 
    110 H110      -57.0464  -25.3098   16.0794 H         1 UNK         0.0831 
    111 H111      -53.8927  -25.9023   14.4891 H         1 UNK         0.3133 
    112 H112      -52.5658  -23.0723   14.9538 H         1 UNK         0.0566 
    113 H113      -51.6692  -23.0267   17.2918 H         1 UNK         0.0814 
    114 H114      -53.2637  -22.3005   17.1799 H         1 UNK         0.0814 
    115 H115      -53.0882  -23.9131   17.8514 H         1 UNK         0.0814 
    116 H116      -51.3778  -24.8677   14.6377 H         1 UNK         0.3091 
    117 H117      -50.7137  -27.8569   16.4669 H         1 UNK         0.0702 
    118 H118      -51.6280  -27.3041   13.6004 H         1 UNK         0.0785 
    119 H119      -52.3471  -28.4715   14.7028 H         1 UNK         0.0785 
    120 H120      -50.7067  -28.7145   14.1231 H         1 UNK         0.0785 
    121 H121      -49.3252  -26.5997   14.3179 H         1 UNK         0.2998 
    122 H122      -47.0809  -24.6855   16.3711 H         1 UNK         0.0697 
    123 H123      -46.7220  -27.1663   14.6067 H         1 UNK         0.0825 
    124 H124      -46.2352  -27.0418   16.2929 H         1 UNK         0.0825 
    125 H125      -45.4601  -26.0327   15.0822 H         1 UNK         0.0825 
    126 H126      -47.2912  -25.0078   13.5352 H         1 UNK         0.3029 
    127 H127      -49.4344  -22.1597   13.0076 H         1 UNK         0.0897 
    128 H128      -47.5497  -21.6025   11.4792 H         1 UNK         0.0792 
    129 H129      -46.4978  -22.7234   12.3418 H         1 UNK         0.0792 
    130 H130      -47.1087  -21.2883   13.1509 H         1 UNK         0.0792 
    131 H131      -48.3524  -23.9671   11.1224 H         1 UNK         0.3086 
    132 H132      -50.9028  -26.4671   11.3557 H         1 UNK         0.0583 
    133 H133      -50.4260  -24.3239    9.2255 H         1 UNK         0.1020 
    134 H134      -50.9746  -25.9408    8.8755 H         1 UNK         0.1020 
    135 H135      -53.1961  -26.1432   11.6760 H         1 UNK         0.0694 
    136 H136      -54.5850  -25.9838   10.6332 H         1 UNK         0.0694 
    137 H137      -48.6645  -26.2323    9.6360 H         1 UNK         0.2989 
    138 H138      -46.4967  -28.1914   11.7376 H         1 UNK         0.1055 
    139 H139      -47.8893  -29.5602   10.1593 H         1 UNK         0.0806 
    140 H140      -46.2916  -29.2397    9.5058 H         1 UNK         0.0806 
    141 H141      -47.6864  -28.3404    8.9108 H         1 UNK         0.0806 
    142 H142      -45.8905  -26.6695    9.4068 H         1 UNK         0.3061 
    143 H143      -44.7917  -23.6952   11.0269 H         1 UNK         0.0734 
    144 H144      -42.6361  -24.2916    9.9835 H         1 UNK         0.0832 
    145 H145      -42.9243  -25.3251   11.3714 H         1 UNK         0.0832 
    146 H146      -43.1678  -25.9579    9.7498 H         1 UNK         0.0832 
    147 H147      -44.5048  -24.2955    8.3476 H         1 UNK         0.3156 
    148 H148      -46.7022  -22.3303    7.2451 H         1 UNK         0.0589 
    149 H149      -45.4583  -24.9942    6.3203 H         1 UNK         0.0808 
    150 H150      -45.8156  -23.6300    5.2725 H         1 UNK         0.0808 
    151 H151      -44.5988  -23.4620    6.5176 H         1 UNK         0.0808 
    152 H152      -48.2127  -24.8325    7.3587 H         1 UNK         0.3098 
    153 H153      -50.6364  -24.2244    6.8754 H         1 UNK         0.0720 
    154 H154      -52.0788  -24.1167    4.8696 H         1 UNK         0.0791 
    155 H155      -50.7181  -23.5682    3.8888 H         1 UNK         0.0791 
    156 H156      -51.3449  -22.5543    5.1821 H         1 UNK         0.0791 
    157 H157      -50.2713  -25.8836    4.5883 H         1 UNK         0.3028 
@<TRIPOS>BOND
     1    1    2 1    
     2    1   82 1    
     3    1   83 1    
     4    1   84 1    
     5    2    3 2    
     6    2    4 am   BACKBONE|DICT|INTERRES
     7    4    5 1    
     8    4   85 1    
     9    5    6 1    
    10    5   80 1    
    11    5   86 1    
    12    6    7 1    
    13    6   87 1    
    14    6   88 1    
    15    7    8 1    
    16    8    9 1    
    17    8   89 1    
    18    8   90 1    
    19    9   10 ar   
    20    9   14 ar   
    21   10   11 ar   
    22   10   91 1    
    23   11   12 ar   
    24   11   58 1    
    25   12   13 ar   
    26   12   92 1    
    27   13   14 ar   
    28   13   15 1    
    29   14   93 1    
    30   15   16 1    
    31   15   94 1    
    32   15   95 1    
    33   16   17 1    
    34   17   18 1    
    35   17   96 1    
    36   17   97 1    
    37   18   19 1    
    38   18   22 1    
    39   18   98 1    
    40   19   20 am   BACKBONE|DICT|INTERRES
    41   19   21 2    
    42   20   99 1    
    43   20  100 1    
    44   22   23 am   BACKBONE|DICT|INTERRES
    45   22  101 1    
    46   23   24 2    
    47   23   25 1    
    48   25   26 1    
    49   25   27 1    
    50   25  102 1    
    51   26  103 1    
    52   26  104 1    
    53   26  105 1    
    54   27   28 am   BACKBONE|DICT|INTERRES
    55   27  106 1    
    56   28   29 2    
    57   28   30 1    
    58   30   31 1    
    59   30   32 1    
    60   30  107 1    
    61   31  108 1    
    62   31  109 1    
    63   31  110 1    
    64   32   33 am   BACKBONE|DICT|INTERRES
    65   32  111 1    
    66   33   34 2    
    67   33   35 1    
    68   35   36 1    
    69   35   37 1    
    70   35  112 1    
    71   36  113 1    
    72   36  114 1    
    73   36  115 1    
    74   37   38 am   BACKBONE|DICT|INTERRES
    75   37  116 1    
    76   38   39 2    
    77   38   40 1    
    78   40   41 1    
    79   40   42 1    
    80   40  117 1    
    81   41  118 1    
    82   41  119 1    
    83   41  120 1    
    84   42   43 am   BACKBONE|DICT|INTERRES
    85   42  121 1    
    86   43   44 2    
    87   43   45 1    
    88   45   46 1    
    89   45   47 1    
    90   45  122 1    
    91   46  123 1    
    92   46  124 1    
    93   46  125 1    
    94   47   48 am   BACKBONE|DICT|INTERRES
    95   47  126 1    
    96   48   49 2    
    97   48   50 1    
    98   50   51 1    
    99   50   52 1    
   100   50  127 1    
   101   51  128 1    
   102   51  129 1    
   103   51  130 1    
   104   52   53 am   BACKBONE|DICT|INTERRES
   105   52  131 1    
   106   53   54 2    
   107   53   55 1    
   108   55   56 1    
   109   55   59 1    
   110   55  132 1    
   111   56   57 1    
   112   56  133 1    
   113   56  134 1    
   114   57   58 1    
   115   58  135 1    
   116   58  136 1    
   117   59   60 am   BACKBONE|DICT|INTERRES
   118   59  137 1    
   119   60   61 2    
   120   60   62 1    
   121   62   63 1    
   122   62   64 1    
   123   62  138 1    
   124   63  139 1    
   125   63  140 1    
   126   63  141 1    
   127   64   65 am   BACKBONE|DICT|INTERRES
   128   64  142 1    
   129   65   66 2    
   130   65   67 1    
   131   67   68 1    
   132   67   69 1    
   133   67  143 1    
   134   68  144 1    
   135   68  145 1    
   136   68  146 1    
   137   69   70 am   BACKBONE|DICT|INTERRES
   138   69  147 1    
   139   70   71 2    
   140   70   72 1    
   141   72   73 1    
   142   72   74 1    
   143   72  148 1    
   144   73  149 1    
   145   73  150 1    
   146   73  151 1    
   147   74   75 am   BACKBONE|DICT|INTERRES
   148   74  152 1    
   149   75   76 2    
   150   75   77 1    
   151   77   78 1    
   152   77   79 1    
   153   77  153 1    
   154   78  154 1    
   155   78  155 1    
   156   78  156 1    
   157   79   80 am   BACKBONE|DICT|INTERRES
   158   79  157 1    
   159   80   81 2    
@<TRIPOS>SUBSTRUCTURE
     1 UNK         1 GROUP             0       ****    0 ROOT    
