@<TRIPOS>MOLECULE
3R207
157   159    1
SMALL
USER_CHARGES


@<TRIPOS>ATOM
      1 CA        -45.7846  -32.2091    5.0049 C.3       0 UNK        -0.1975 
      2 C         -46.8220  -31.1776    5.4222 C.2       0 UNK         0.4852 
      3 O         -46.8388  -30.7678    6.5836 O.2       0 UNK        -0.5216 
      4 N         -47.6717  -30.7455    4.4784 N.am      1 UNK        -0.4461 
      5 CA        -48.7877  -29.7905    4.6120 C.3       1 UNK         0.0864 
      6 C6        -49.8581  -30.1925    5.6601 C.3       14 UNK        -0.0898 
      7 S7        -50.5151  -31.8847    5.4511 S.3       14 UNK        -0.2598 
      8 C8        -52.2988  -31.6621    5.7960 C.3       14 UNK         0.0286 
      9 C9        -52.6064  -30.8162    7.0324 C.ar      14 UNK        -0.0844 
     10 C10       -51.8404  -30.9185    8.1997 C.ar      14 UNK        -0.0881 
     11 C11       -52.0887  -30.0823    9.2916 C.ar      14 UNK        -0.0643 
     12 C12       -53.1400  -29.1643    9.2307 C.ar      14 UNK        -0.0930 
     13 C13       -53.9382  -29.0779    8.0867 C.ar      14 UNK        -0.0827 
     14 C14       -53.6640  -29.9025    6.9920 C.ar      14 UNK        -0.1249 
     15 C15       -55.0756  -28.0714    8.0123 C.3       14 UNK         0.0141 
     16 S16       -56.6557  -28.7816    8.5780 S.3       14 UNK        -0.2313 
     17 C17       -56.5161  -28.5915   10.3874 C.3       14 UNK        -0.0915 
     18 CA        -56.8344  -27.1411   10.8476 C.3       13 UNK         0.0968 
     19 C         -58.3413  -26.9196   11.1644 C.2       13 UNK         0.5732 
     20 N         -59.2076  -27.0574   10.1704 N.am      13 UNK        -0.7310 
     21 O         -58.7387  -26.6372   12.2939 O.2       13 UNK        -0.5035 
     22 N         -55.9587  -26.7329   11.9536 N.am      13 UNK        -0.4233 
     23 C         -55.5802  -25.4754   12.1966 C.2       13 UNK         0.4989 
     24 O         -55.8169  -24.5367   11.4346 O.2       13 UNK        -0.4996 
     25 CA        -54.8055  -25.1812   13.4954 C.3       12 UNK         0.0216 
     26 CB        -55.7578  -24.6295   14.5739 C.3       12 UNK        -0.1964 
     27 N         -53.9759  -26.2617   14.0541 N.am      12 UNK        -0.4276 
     28 C         -54.3421  -27.4579   14.5434 C.2       12 UNK         0.5020 
     29 O         -55.4618  -27.9508   14.4074 O.2       12 UNK        -0.5489 
     30 CA        -53.2795  -28.2126   15.3616 C.3       11 UNK         0.0294 
     31 CB        -52.4224  -29.1175   14.4617 C.3       11 UNK        -0.2019 
     32 N         -52.4220  -27.2731   16.0905 N.am      11 UNK        -0.4493 
     33 C         -52.7869  -26.6373   17.2138 C.2       11 UNK         0.4932 
     34 O         -53.7991  -26.9231   17.8554 O.2       11 UNK        -0.5029 
     35 CA        -51.9116  -25.4506   17.6656 C.3       10 UNK         0.0280 
     36 CB        -51.9790  -25.1943   19.1866 C.3       10 UNK        -0.1976 
     37 N         -50.5243  -25.5199   17.1932 N.am      10 UNK        -0.4242 
     38 C         -49.5874  -26.4159   17.5420 C.2       10 UNK         0.5072 
     39 O         -49.7769  -27.3203   18.3566 O.2       10 UNK        -0.5224 
     40 CA        -48.2075  -26.3182   16.8605 C.3       9 UNK         0.0343 
     41 CB        -47.9512  -27.5685   16.0017 C.3       9 UNK        -0.2003 
     42 N         -48.0341  -25.1282   16.0226 N.am      9 UNK        -0.4272 
     43 C         -47.8450  -23.8800   16.4714 C.2       9 UNK         0.4988 
     44 O         -47.7342  -23.5901   17.6628 O.2       9 UNK        -0.5108 
     45 CA        -47.8147  -22.7599   15.4137 C.3       8 UNK         0.0248 
     46 CB        -46.4016  -22.6026   14.8306 C.3       8 UNK        -0.2001 
     47 N         -48.7826  -22.9513   14.3251 N.am      8 UNK        -0.4140 
     48 C         -50.1129  -23.0149   14.4924 C.2       8 UNK         0.5028 
     49 O         -50.6710  -22.9127   15.5848 O.2       8 UNK        -0.5428 
     50 CA        -50.9660  -23.3018   13.2464 C.3       7 UNK         0.0264 
     51 CB        -51.0821  -22.0628   12.3452 C.3       7 UNK        -0.1988 
     52 N         -50.4583  -24.4415   12.4803 N.am      7 UNK        -0.4454 
     53 C         -50.4327  -25.7018   12.9359 C.2       7 UNK         0.5027 
     54 O         -50.9518  -26.0417   14.0008 O.2       7 UNK        -0.5083 
     55 CA        -49.6802  -26.7565   12.0969 C.3       6 UNK         0.0844 
     56 C56       -50.6097  -27.4335   11.0647 C.3       14 UNK        -0.0967 
     57 S57       -49.8380  -28.9498   10.4024 S.3       14 UNK        -0.2604 
     58 C58       -51.1968  -30.1551   10.5202 C.3       14 UNK         0.0134 
     59 N         -48.4675  -26.2122   11.4760 N.am      6 UNK        -0.4116 
     60 C         -47.4079  -25.7499   12.1536 C.2       5 UNK         0.5034 
     61 O         -47.3076  -25.7877   13.3777 O.2       5 UNK        -0.5045 
     62 CA        -46.3021  -25.0690   11.3365 C.3       5 UNK         0.0224 
     63 CB        -45.3329  -26.1030   10.7420 C.3       5 UNK        -0.1978 
     64 N         -46.8650  -24.2262   10.2795 N.am      5 UNK        -0.4737 
     65 C         -47.4904  -23.0629   10.5115 C.2       4 UNK         0.5027 
     66 O         -47.6015  -22.5634   11.6312 O.2       4 UNK        -0.5211 
     67 CA        -48.1331  -22.3586    9.3035 C.3       4 UNK         0.0297 
     68 CB        -47.1033  -21.4692    8.5898 C.3       4 UNK        -0.1993 
     69 N         -48.7257  -23.2929    8.3420 N.am      4 UNK        -0.4486 
     70 C         -49.7790  -24.0813    8.6006 C.2       3 UNK         0.4961 
     71 O         -50.3955  -24.0685    9.6644 O.2       3 UNK        -0.5105 
     72 CA        -50.1821  -25.0938    7.5130 C.3       3 UNK         0.0299 
     73 CB        -51.1937  -24.4690    6.5404 C.3       3 UNK        -0.1972 
     74 N         -49.0520  -25.6491    6.7591 N.am      3 UNK        -0.4305 
     75 C         -48.0059  -26.2901    7.2978 C.2       2 UNK         0.5006 
     76 O         -47.8587  -26.4570    8.5098 O.2       2 UNK        -0.5106 
     77 CA        -46.9635  -26.8435    6.3128 C.3       2 UNK         0.0296 
     78 CB        -45.5784  -27.0096    6.9642 C.3       2 UNK        -0.2002 
     79 N         -47.4057  -28.1380    5.8041 N.am      2 UNK        -0.4032 
     80 C         -48.3392  -28.3347    4.8659 C.2       1 UNK         0.5000 
     81 O         -48.8582  -27.4187    4.2242 O.2       1 UNK        -0.5238 
     82 H82       -44.7806  -31.8191    5.1697 H         1 UNK         0.0889 
     83 H83       -45.8759  -32.4786    3.9529 H         1 UNK         0.0889 
     84 H84       -45.9001  -33.1158    5.5981 H         1 UNK         0.0889 
     85 H85       -47.5653  -31.1184    3.5450 H         1 UNK         0.3028 
     86 H86       -49.2782  -29.7894    3.6370 H         1 UNK         0.0864 
     87 H87       -49.4578  -30.1149    6.6729 H         1 UNK         0.0720 
     88 H88       -50.6900  -29.4869    5.6132 H         1 UNK         0.0720 
     89 H89       -52.7591  -32.6433    5.9176 H         1 UNK         0.0814 
     90 H90       -52.7564  -31.2151    4.9120 H         1 UNK         0.0814 
     91 H91       -51.0208  -31.6223    8.2450 H         1 UNK         0.1469 
     92 H92       -53.3291  -28.5099   10.0694 H         1 UNK         0.1381 
     93 H93       -54.2707  -29.8213    6.1001 H         1 UNK         0.1206 
     94 H94       -55.1972  -27.7328    6.9822 H         1 UNK         0.0813 
     95 H95       -54.8321  -27.1798    8.5917 H         1 UNK         0.0813 
     96 H96       -55.5090  -28.8845   10.6812 H         1 UNK         0.0638 
     97 H97       -57.1735  -29.3165   10.8709 H         1 UNK         0.0638 
     98 H98       -56.6137  -26.4666   10.0185 H         1 UNK         0.0568 
     99 H99       -60.1901  -26.9235   10.3507 H         1 UNK         0.3450 
    100 H100      -58.8938  -27.3167    9.2476 H         1 UNK         0.3450 
    101 H101      -55.8204  -27.4068   12.7034 H         1 UNK         0.2987 
    102 H102      -54.1071  -24.3831   13.2434 H         1 UNK         0.0766 
    103 H103      -55.2108  -24.3101   15.4611 H         1 UNK         0.0798 
    104 H104      -56.4930  -25.3738   14.8827 H         1 UNK         0.0798 
    105 H105      -56.3093  -23.7638   14.2043 H         1 UNK         0.0798 
    106 H106      -52.9951  -26.0257   14.1648 H         1 UNK         0.3198 
    107 H107      -53.8014  -28.8473   16.0813 H         1 UNK         0.0843 
    108 H108      -51.8550  -28.5474   13.7281 H         1 UNK         0.0831 
    109 H109      -53.0466  -29.8250   13.9141 H         1 UNK         0.0831 
    110 H110      -51.7133  -29.6997   15.0503 H         1 UNK         0.0831 
    111 H111      -51.6032  -26.9328   15.5943 H         1 UNK         0.3133 
    112 H112      -52.3380  -24.5747   17.1748 H         1 UNK         0.0566 
    113 H113      -51.3583  -24.3455   19.4735 H         1 UNK         0.0814 
    114 H114      -52.9988  -24.9679   19.5002 H         1 UNK         0.0814 
    115 H115      -51.6504  -26.0611   19.7604 H         1 UNK         0.0814 
    116 H116      -50.2730  -24.8089   16.5148 H         1 UNK         0.3091 
    117 H117      -47.4575  -26.2888   17.6534 H         1 UNK         0.0702 
    118 H118      -46.9566  -27.5469   15.5559 H         1 UNK         0.0785 
    119 H119      -48.6788  -27.6554   15.1940 H         1 UNK         0.0785 
    120 H120      -48.0167  -28.4785   16.5996 H         1 UNK         0.0785 
    121 H121      -48.0146  -25.2864   15.0172 H         1 UNK         0.2998 
    122 H122      -48.0772  -21.8278   15.9183 H         1 UNK         0.0697 
    123 H123      -46.0798  -23.5011   14.3040 H         1 UNK         0.0825 
    124 H124      -45.6733  -22.4085   15.6191 H         1 UNK         0.0825 
    125 H125      -46.3514  -21.7687   14.1300 H         1 UNK         0.0825 
    126 H126      -48.4046  -23.0089   13.3830 H         1 UNK         0.3029 
    127 H127      -51.9686  -23.5537   13.5941 H         1 UNK         0.0897 
    128 H128      -51.7393  -22.2524   11.4962 H         1 UNK         0.0792 
    129 H129      -51.4988  -21.2187   12.8962 H         1 UNK         0.0792 
    130 H130      -50.1148  -21.7499   11.9537 H         1 UNK         0.0792 
    131 H131      -50.1199  -24.2515   11.5401 H         1 UNK         0.3086 
    132 H132      -49.3568  -27.5234   12.8040 H         1 UNK         0.0583 
    133 H133      -51.5688  -27.6850   11.5187 H         1 UNK         0.1020 
    134 H134      -50.8369  -26.7583   10.2391 H         1 UNK         0.1020 
    135 H135      -50.7672  -31.1542   10.6074 H         1 UNK         0.0694 
    136 H136      -51.7767  -29.9977   11.4305 H         1 UNK         0.0694 
    137 H137      -48.4380  -26.1944   10.4615 H         1 UNK         0.2989 
    138 H138      -45.7338  -24.4286   12.0148 H         1 UNK         0.1055 
    139 H139      -44.8381  -26.6663   11.5342 H         1 UNK         0.0806 
    140 H140      -44.5531  -25.6243   10.1497 H         1 UNK         0.0806 
    141 H141      -45.8433  -26.8259   10.1061 H         1 UNK         0.0806 
    142 H142      -46.8928  -24.6217    9.3491 H         1 UNK         0.3061 
    143 H143      -48.9321  -21.7178    9.6825 H         1 UNK         0.0734 
    144 H144      -47.5625  -20.8981    7.7828 H         1 UNK         0.0832 
    145 H145      -46.6643  -20.7503    9.2832 H         1 UNK         0.0832 
    146 H146      -46.2853  -22.0537    8.1666 H         1 UNK         0.0832 
    147 H147      -48.2817  -23.3688    7.4385 H         1 UNK         0.3156 
    148 H148      -50.6719  -25.9313    8.0130 H         1 UNK         0.0589 
    149 H149      -50.7553  -23.6478    5.9721 H         1 UNK         0.0808 
    150 H150      -51.5698  -25.2066    5.8310 H         1 UNK         0.0808 
    151 H151      -52.0558  -24.0707    7.0776 H         1 UNK         0.0808 
    152 H152      -49.1159  -25.6149    5.7495 H         1 UNK         0.3098 
    153 H153      -46.8642  -26.1419    5.4818 H         1 UNK         0.0720 
    154 H154      -44.8354  -27.3315    6.2344 H         1 UNK         0.0791 
    155 H155      -45.5948  -27.7464    7.7685 H         1 UNK         0.0791 
    156 H156      -45.2293  -26.0677    7.3892 H         1 UNK         0.0791 
    157 H157      -47.0728  -28.9660    6.2947 H         1 UNK         0.3028 
@<TRIPOS>BOND
     1    1    2 1    
     2    1   82 1    
     3    1   83 1    
     4    1   84 1    
     5    2    3 2    
     6    2    4 am   BACKBONE|DICT|INTERRES
     7    4    5 1    
     8    4   85 1    
     9    5    6 1    
    10    5   80 1    
    11    5   86 1    
    12    6    7 1    
    13    6   87 1    
    14    6   88 1    
    15    7    8 1    
    16    8    9 1    
    17    8   89 1    
    18    8   90 1    
    19    9   10 ar   
    20    9   14 ar   
    21   10   11 ar   
    22   10   91 1    
    23   11   12 ar   
    24   11   58 1    
    25   12   13 ar   
    26   12   92 1    
    27   13   14 ar   
    28   13   15 1    
    29   14   93 1    
    30   15   16 1    
    31   15   94 1    
    32   15   95 1    
    33   16   17 1    
    34   17   18 1    
    35   17   96 1    
    36   17   97 1    
    37   18   19 1    
    38   18   22 1    
    39   18   98 1    
    40   19   20 am   BACKBONE|DICT|INTERRES
    41   19   21 2    
    42   20   99 1    
    43   20  100 1    
    44   22   23 am   BACKBONE|DICT|INTERRES
    45   22  101 1    
    46   23   24 2    
    47   23   25 1    
    48   25   26 1    
    49   25   27 1    
    50   25  102 1    
    51   26  103 1    
    52   26  104 1    
    53   26  105 1    
    54   27   28 am   BACKBONE|DICT|INTERRES
    55   27  106 1    
    56   28   29 2    
    57   28   30 1    
    58   30   31 1    
    59   30   32 1    
    60   30  107 1    
    61   31  108 1    
    62   31  109 1    
    63   31  110 1    
    64   32   33 am   BACKBONE|DICT|INTERRES
    65   32  111 1    
    66   33   34 2    
    67   33   35 1    
    68   35   36 1    
    69   35   37 1    
    70   35  112 1    
    71   36  113 1    
    72   36  114 1    
    73   36  115 1    
    74   37   38 am   BACKBONE|DICT|INTERRES
    75   37  116 1    
    76   38   39 2    
    77   38   40 1    
    78   40   41 1    
    79   40   42 1    
    80   40  117 1    
    81   41  118 1    
    82   41  119 1    
    83   41  120 1    
    84   42   43 am   BACKBONE|DICT|INTERRES
    85   42  121 1    
    86   43   44 2    
    87   43   45 1    
    88   45   46 1    
    89   45   47 1    
    90   45  122 1    
    91   46  123 1    
    92   46  124 1    
    93   46  125 1    
    94   47   48 am   BACKBONE|DICT|INTERRES
    95   47  126 1    
    96   48   49 2    
    97   48   50 1    
    98   50   51 1    
    99   50   52 1    
   100   50  127 1    
   101   51  128 1    
   102   51  129 1    
   103   51  130 1    
   104   52   53 am   BACKBONE|DICT|INTERRES
   105   52  131 1    
   106   53   54 2    
   107   53   55 1    
   108   55   56 1    
   109   55   59 1    
   110   55  132 1    
   111   56   57 1    
   112   56  133 1    
   113   56  134 1    
   114   57   58 1    
   115   58  135 1    
   116   58  136 1    
   117   59   60 am   BACKBONE|DICT|INTERRES
   118   59  137 1    
   119   60   61 2    
   120   60   62 1    
   121   62   63 1    
   122   62   64 1    
   123   62  138 1    
   124   63  139 1    
   125   63  140 1    
   126   63  141 1    
   127   64   65 am   BACKBONE|DICT|INTERRES
   128   64  142 1    
   129   65   66 2    
   130   65   67 1    
   131   67   68 1    
   132   67   69 1    
   133   67  143 1    
   134   68  144 1    
   135   68  145 1    
   136   68  146 1    
   137   69   70 am   BACKBONE|DICT|INTERRES
   138   69  147 1    
   139   70   71 2    
   140   70   72 1    
   141   72   73 1    
   142   72   74 1    
   143   72  148 1    
   144   73  149 1    
   145   73  150 1    
   146   73  151 1    
   147   74   75 am   BACKBONE|DICT|INTERRES
   148   74  152 1    
   149   75   76 2    
   150   75   77 1    
   151   77   78 1    
   152   77   79 1    
   153   77  153 1    
   154   78  154 1    
   155   78  155 1    
   156   78  156 1    
   157   79   80 am   BACKBONE|DICT|INTERRES
   158   79  157 1    
   159   80   81 2    
@<TRIPOS>SUBSTRUCTURE
     1 UNK         1 GROUP             0       ****    0 ROOT    
