@<TRIPOS>MOLECULE
3R207
157   159    1
SMALL
USER_CHARGES


@<TRIPOS>ATOM
      1 CA        -51.7616  -26.3508    3.0296 C.3       0 UNK        -0.1975 
      2 C         -51.2759  -27.7874    2.8474 C.2       0 UNK         0.4852 
      3 O         -51.4344  -28.3417    1.7606 O.2       0 UNK        -0.5216 
      4 N         -50.6993  -28.4383    3.8680 N.am      1 UNK        -0.4461 
      5 CA        -50.3687  -27.9044    5.1955 C.3       1 UNK         0.0864 
      6 C6        -50.0257  -29.0385    6.1936 C.3       14 UNK        -0.0898 
      7 S7        -51.4613  -30.1138    6.5211 S.3       14 UNK        -0.2598 
      8 C8        -52.1648  -29.3246    8.0106 C.3       14 UNK         0.0286 
      9 C9        -51.6882  -29.9101    9.3410 C.ar      14 UNK        -0.0844 
     10 C10       -50.4050  -30.4461    9.5190 C.ar      14 UNK        -0.0881 
     11 C11       -50.0177  -30.9814   10.7528 C.ar      14 UNK        -0.0643 
     12 C12       -50.9211  -30.9741   11.8196 C.ar      14 UNK        -0.0930 
     13 C13       -52.1982  -30.4294   11.6624 C.ar      14 UNK        -0.0827 
     14 C14       -52.5691  -29.8951   10.4258 C.ar      14 UNK        -0.1249 
     15 C15       -53.1702  -30.3871   12.8314 C.3       14 UNK         0.0141 
     16 S16       -54.7099  -31.2933   12.4850 S.3       14 UNK        -0.2313 
     17 C17       -55.8371  -30.5240   13.6973 C.3       14 UNK        -0.0915 
     18 CA        -56.7020  -29.4005   13.0619 C.3       13 UNK         0.0968 
     19 C         -57.8312  -28.9166   14.0181 C.2       13 UNK         0.5732 
     20 N         -58.0281  -27.6197   14.2321 N.am      13 UNK        -0.7310 
     21 O         -58.5693  -29.7362   14.5605 O.2       13 UNK        -0.5035 
     22 N         -55.8651  -28.2963   12.5728 N.am      13 UNK        -0.4233 
     23 C         -55.9027  -27.7756   11.3405 C.2       13 UNK         0.4989 
     24 O         -56.6122  -28.2186   10.4356 O.2       13 UNK        -0.4996 
     25 CA        -54.9851  -26.5657   11.0528 C.3       12 UNK         0.0216 
     26 CB        -55.6057  -25.5913   10.0301 C.3       12 UNK        -0.1964 
     27 N         -54.5354  -25.8321   12.2437 N.am      12 UNK        -0.4276 
     28 C         -55.2926  -25.2566   13.1868 C.2       12 UNK         0.5020 
     29 O         -56.5258  -25.2806   13.1844 O.2       12 UNK        -0.5489 
     30 CA        -54.5316  -24.6052   14.3594 C.3       11 UNK         0.0294 
     31 CB        -55.4831  -24.0545   15.4413 C.3       11 UNK        -0.2019 
     32 N         -53.5294  -25.4786   14.9907 N.am      11 UNK        -0.4493 
     33 C         -53.6870  -26.7456   15.4120 C.2       11 UNK         0.4932 
     34 O         -54.6899  -27.4226   15.1833 O.2       11 UNK        -0.5029 
     35 CA        -52.5483  -27.3639   16.2464 C.3       10 UNK         0.0280 
     36 CB        -52.3400  -28.8582   15.9514 C.3       10 UNK        -0.1976 
     37 N         -51.2757  -26.6647   16.0633 N.am      10 UNK        -0.4242 
     38 C         -50.7388  -25.8089   16.9419 C.2       10 UNK         0.5072 
     39 O         -51.2504  -25.5189   18.0243 O.2       10 UNK        -0.5224 
     40 CA        -49.4137  -25.1411   16.5391 C.3       9 UNK         0.0343 
     41 CB        -48.2266  -26.0602   16.8671 C.3       9 UNK        -0.2003 
     42 N         -49.3489  -24.7380   15.1307 N.am      9 UNK        -0.4272 
     43 C         -50.1798  -23.8654   14.5402 C.2       9 UNK         0.4988 
     44 O         -51.1542  -23.3571   15.0958 O.2       9 UNK        -0.5108 
     45 CA        -49.8817  -23.5104   13.0764 C.3       8 UNK         0.0248 
     46 CB        -48.6663  -22.5774   12.9725 C.3       8 UNK        -0.2001 
     47 N         -49.6741  -24.7060   12.2601 N.am      8 UNK        -0.4140 
     48 C         -50.6674  -25.5236   11.8863 C.2       8 UNK         0.5028 
     49 O         -51.8551  -25.3134   12.1267 O.2       8 UNK        -0.5428 
     50 CA        -50.2722  -26.8174   11.1621 C.3       7 UNK         0.0264 
     51 CB        -50.0311  -26.5589    9.6696 C.3       7 UNK        -0.1988 
     52 N         -49.0912  -27.4514   11.7430 N.am      7 UNK        -0.4454 
     53 C         -49.0219  -27.9320   12.9922 C.2       7 UNK         0.5027 
     54 O         -49.9423  -27.8684   13.8074 O.2       7 UNK        -0.5083 
     55 CA        -47.6755  -28.5439   13.4243 C.3       6 UNK         0.0844 
     56 C56       -47.5823  -30.0473   13.0569 C.3       14 UNK        -0.0967 
     57 S57       -47.3448  -30.3707   11.2693 S.3       14 UNK        -0.2604 
     58 C58       -48.6378  -31.6050   10.9162 C.3       14 UNK         0.0134 
     59 N         -46.5126  -27.7873   12.9489 N.am      6 UNK        -0.4116 
     60 C         -46.2690  -26.4861   13.1592 C.2       5 UNK         0.5034 
     61 O         -47.0165  -25.7417   13.7980 O.2       5 UNK        -0.5045 
     62 CA        -44.9697  -25.9106   12.5598 C.3       5 UNK         0.0224 
     63 CB        -44.2907  -26.8341   11.5202 C.3       5 UNK        -0.1978 
     64 N         -45.1554  -24.5688   11.9930 N.am      5 UNK        -0.4737 
     65 C         -46.0048  -24.2207   11.0174 C.2       4 UNK         0.5027 
     66 O         -46.8187  -24.9901   10.4965 O.2       4 UNK        -0.5211 
     67 CA        -45.9147  -22.7663   10.5341 C.3       4 UNK         0.0297 
     68 CB        -44.5264  -22.4552    9.9382 C.3       4 UNK        -0.1993 
     69 N         -46.9417  -22.5622    9.5201 N.am      4 UNK        -0.4486 
     70 C         -47.4362  -21.3942    9.0964 C.2       3 UNK         0.4961 
     71 O         -47.1037  -20.3057    9.5676 O.2       3 UNK        -0.5105 
     72 CA        -48.4467  -21.4552    7.9325 C.3       3 UNK         0.0299 
     73 CB        -48.4500  -20.1623    7.0952 C.3       3 UNK        -0.1972 
     74 N         -48.1514  -22.5921    7.0536 N.am      3 UNK        -0.4305 
     75 C         -48.8322  -23.7425    7.0285 C.2       2 UNK         0.5006 
     76 O         -49.8689  -23.9483    7.6639 O.2       2 UNK        -0.5106 
     77 CA        -48.2190  -24.8698    6.1897 C.3       2 UNK         0.0296 
     78 CB        -46.9489  -25.4289    6.8649 C.3       2 UNK        -0.2002 
     79 N         -49.2136  -25.9272    6.0460 N.am      2 UNK        -0.4032 
     80 C         -49.2058  -26.8944    5.1235 C.2       1 UNK         0.5000 
     81 O         -48.3305  -27.0186    4.2624 O.2       1 UNK        -0.5238 
     82 H82       -50.9200  -25.6620    3.0929 H         1 UNK         0.0889 
     83 H83       -52.3755  -26.2460    3.9232 H         1 UNK         0.0889 
     84 H84       -52.3724  -26.0473    2.1795 H         1 UNK         0.0889 
     85 H85       -50.3920  -29.3869    3.7105 H         1 UNK         0.3028 
     86 H86       -51.2454  -27.3783    5.5775 H         1 UNK         0.0864 
     87 H87       -49.2142  -29.6580    5.8067 H         1 UNK         0.0720 
     88 H88       -49.6651  -28.6352    7.1405 H         1 UNK         0.0720 
     89 H89       -51.9675  -28.2525    7.9967 H         1 UNK         0.0814 
     90 H90       -53.2489  -29.4290    7.9415 H         1 UNK         0.0814 
     91 H91       -49.7025  -30.4626    8.6986 H         1 UNK         0.1469 
     92 H92       -50.6301  -31.3924   12.7729 H         1 UNK         0.1381 
     93 H93       -53.5589  -29.4764   10.3078 H         1 UNK         0.1206 
     94 H94       -53.3905  -29.3434   13.0553 H         1 UNK         0.0813 
     95 H95       -52.7199  -30.8161   13.7271 H         1 UNK         0.0813 
     96 H96       -55.2681  -30.1433   14.5472 H         1 UNK         0.0638 
     97 H97       -56.4713  -31.3207   14.0898 H         1 UNK         0.0638 
     98 H98       -57.2338  -29.8477   12.2207 H         1 UNK         0.0568 
     99 H99       -58.7710  -27.3344   14.8489 H         1 UNK         0.3450 
    100 H100      -57.4416  -26.9157   13.7942 H         1 UNK         0.3450 
    101 H101      -55.3078  -27.8405   13.2876 H         1 UNK         0.2987 
    102 H102      -54.0808  -26.9798   10.6047 H         1 UNK         0.0766 
    103 H103      -54.9309  -24.7633    9.8127 H         1 UNK         0.0798 
    104 H104      -56.5453  -25.1727   10.3925 H         1 UNK         0.0798 
    105 H105      -55.8149  -26.0915    9.0837 H         1 UNK         0.0798 
    106 H106      -53.5209  -25.7186   12.3241 H         1 UNK         0.3198 
    107 H107      -53.9825  -23.7620   13.9366 H         1 UNK         0.0843 
    108 H108      -56.0663  -24.8509   15.9054 H         1 UNK         0.0831 
    109 H109      -56.1879  -23.3383   15.0168 H         1 UNK         0.0831 
    110 H110      -54.9331  -23.5385   16.2282 H         1 UNK         0.0831 
    111 H111      -52.6442  -25.0279   15.1913 H         1 UNK         0.3133 
    112 H112      -52.8708  -27.2878   17.2865 H         1 UNK         0.0566 
    113 H113      -51.6196  -29.2967   16.6419 H         1 UNK         0.0814 
    114 H114      -53.2668  -29.4241   16.0522 H         1 UNK         0.0814 
    115 H115      -51.9616  -29.0101   14.9434 H         1 UNK         0.0814 
    116 H116      -50.7704  -26.8771   15.2046 H         1 UNK         0.3091 
    117 H117      -49.3120  -24.2330   17.1368 H         1 UNK         0.0702 
    118 H118      -47.2752  -25.5672   16.6663 H         1 UNK         0.0785 
    119 H119      -48.2575  -26.9793   16.2819 H         1 UNK         0.0785 
    120 H120      -48.2297  -26.3428   17.9207 H         1 UNK         0.0785 
    121 H121      -48.5659  -25.1054   14.5931 H         1 UNK         0.2998 
    122 H122      -50.7470  -22.9721   12.6828 H         1 UNK         0.0697 
    123 H123      -47.7475  -23.0658   13.2986 H         1 UNK         0.0825 
    124 H124      -48.8017  -21.6905   13.5931 H         1 UNK         0.0825 
    125 H125      -48.5264  -22.2328   11.9488 H         1 UNK         0.0825 
    126 H126      -48.7209  -24.9676   12.0415 H         1 UNK         0.3029 
    127 H127      -51.1033  -27.5185   11.2612 H         1 UNK         0.0897 
    128 H128      -49.2071  -25.8630    9.5103 H         1 UNK         0.0792 
    129 H129      -49.7927  -27.4827    9.1460 H         1 UNK         0.0792 
    130 H130      -50.9178  -26.1312    9.2001 H         1 UNK         0.0792 
    131 H131      -48.2755  -27.5321   11.1528 H         1 UNK         0.3086 
    132 H132      -47.6493  -28.4809   14.5136 H         1 UNK         0.0583 
    133 H133      -46.7373  -30.4930   13.5841 H         1 UNK         0.1020 
    134 H134      -48.4584  -30.5823   13.4262 H         1 UNK         0.1020 
    135 H135      -48.3712  -32.1299    9.9976 H         1 UNK         0.0694 
    136 H136      -48.6463  -32.3635   11.7006 H         1 UNK         0.0694 
    137 H137      -45.8548  -28.3098   12.3892 H         1 UNK         0.2989 
    138 H138      -44.2834  -25.7966   13.4005 H         1 UNK         0.1055 
    139 H139      -43.9796  -27.7803   11.9646 H         1 UNK         0.0806 
    140 H140      -43.3909  -26.3701   11.1157 H         1 UNK         0.0806 
    141 H141      -44.9488  -27.0574   10.6790 H         1 UNK         0.0806 
    142 H142      -44.5643  -23.8495   12.3862 H         1 UNK         0.3061 
    143 H143      -46.1084  -22.1076   11.3828 H         1 UNK         0.0734 
    144 H144      -44.2906  -23.1186    9.1050 H         1 UNK         0.0832 
    145 H145      -44.4691  -21.4296    9.5732 H         1 UNK         0.0832 
    146 H146      -43.7366  -22.5702   10.6810 H         1 UNK         0.0832 
    147 H147      -47.3220  -23.4281    9.1568 H         1 UNK         0.3156 
    148 H148      -49.4366  -21.5661    8.3797 H         1 UNK         0.0589 
    149 H149      -47.4676  -19.9543    6.6693 H         1 UNK         0.0808 
    150 H150      -49.1653  -20.2240    6.2749 H         1 UNK         0.0808 
    151 H151      -48.7322  -19.3012    7.7025 H         1 UNK         0.0808 
    152 H152      -47.2989  -22.5227    6.5144 H         1 UNK         0.3098 
    153 H153      -47.9730  -24.4713    5.2031 H         1 UNK         0.0720 
    154 H154      -46.4913  -26.2147    6.2639 H         1 UNK         0.0791 
    155 H155      -47.1679  -25.8493    7.8475 H         1 UNK         0.0791 
    156 H156      -46.1935  -24.6545    7.0026 H         1 UNK         0.0791 
    157 H157      -49.9836  -25.8389    6.6989 H         1 UNK         0.3028 
@<TRIPOS>BOND
     1    1    2 1    
     2    1   82 1    
     3    1   83 1    
     4    1   84 1    
     5    2    3 2    
     6    2    4 am   BACKBONE|DICT|INTERRES
     7    4    5 1    
     8    4   85 1    
     9    5    6 1    
    10    5   80 1    
    11    5   86 1    
    12    6    7 1    
    13    6   87 1    
    14    6   88 1    
    15    7    8 1    
    16    8    9 1    
    17    8   89 1    
    18    8   90 1    
    19    9   10 ar   
    20    9   14 ar   
    21   10   11 ar   
    22   10   91 1    
    23   11   12 ar   
    24   11   58 1    
    25   12   13 ar   
    26   12   92 1    
    27   13   14 ar   
    28   13   15 1    
    29   14   93 1    
    30   15   16 1    
    31   15   94 1    
    32   15   95 1    
    33   16   17 1    
    34   17   18 1    
    35   17   96 1    
    36   17   97 1    
    37   18   19 1    
    38   18   22 1    
    39   18   98 1    
    40   19   20 am   BACKBONE|DICT|INTERRES
    41   19   21 2    
    42   20   99 1    
    43   20  100 1    
    44   22   23 am   BACKBONE|DICT|INTERRES
    45   22  101 1    
    46   23   24 2    
    47   23   25 1    
    48   25   26 1    
    49   25   27 1    
    50   25  102 1    
    51   26  103 1    
    52   26  104 1    
    53   26  105 1    
    54   27   28 am   BACKBONE|DICT|INTERRES
    55   27  106 1    
    56   28   29 2    
    57   28   30 1    
    58   30   31 1    
    59   30   32 1    
    60   30  107 1    
    61   31  108 1    
    62   31  109 1    
    63   31  110 1    
    64   32   33 am   BACKBONE|DICT|INTERRES
    65   32  111 1    
    66   33   34 2    
    67   33   35 1    
    68   35   36 1    
    69   35   37 1    
    70   35  112 1    
    71   36  113 1    
    72   36  114 1    
    73   36  115 1    
    74   37   38 am   BACKBONE|DICT|INTERRES
    75   37  116 1    
    76   38   39 2    
    77   38   40 1    
    78   40   41 1    
    79   40   42 1    
    80   40  117 1    
    81   41  118 1    
    82   41  119 1    
    83   41  120 1    
    84   42   43 am   BACKBONE|DICT|INTERRES
    85   42  121 1    
    86   43   44 2    
    87   43   45 1    
    88   45   46 1    
    89   45   47 1    
    90   45  122 1    
    91   46  123 1    
    92   46  124 1    
    93   46  125 1    
    94   47   48 am   BACKBONE|DICT|INTERRES
    95   47  126 1    
    96   48   49 2    
    97   48   50 1    
    98   50   51 1    
    99   50   52 1    
   100   50  127 1    
   101   51  128 1    
   102   51  129 1    
   103   51  130 1    
   104   52   53 am   BACKBONE|DICT|INTERRES
   105   52  131 1    
   106   53   54 2    
   107   53   55 1    
   108   55   56 1    
   109   55   59 1    
   110   55  132 1    
   111   56   57 1    
   112   56  133 1    
   113   56  134 1    
   114   57   58 1    
   115   58  135 1    
   116   58  136 1    
   117   59   60 am   BACKBONE|DICT|INTERRES
   118   59  137 1    
   119   60   61 2    
   120   60   62 1    
   121   62   63 1    
   122   62   64 1    
   123   62  138 1    
   124   63  139 1    
   125   63  140 1    
   126   63  141 1    
   127   64   65 am   BACKBONE|DICT|INTERRES
   128   64  142 1    
   129   65   66 2    
   130   65   67 1    
   131   67   68 1    
   132   67   69 1    
   133   67  143 1    
   134   68  144 1    
   135   68  145 1    
   136   68  146 1    
   137   69   70 am   BACKBONE|DICT|INTERRES
   138   69  147 1    
   139   70   71 2    
   140   70   72 1    
   141   72   73 1    
   142   72   74 1    
   143   72  148 1    
   144   73  149 1    
   145   73  150 1    
   146   73  151 1    
   147   74   75 am   BACKBONE|DICT|INTERRES
   148   74  152 1    
   149   75   76 2    
   150   75   77 1    
   151   77   78 1    
   152   77   79 1    
   153   77  153 1    
   154   78  154 1    
   155   78  155 1    
   156   78  156 1    
   157   79   80 am   BACKBONE|DICT|INTERRES
   158   79  157 1    
   159   80   81 2    
@<TRIPOS>SUBSTRUCTURE
     1 UNK         1 GROUP             0       ****    0 ROOT    
