@<TRIPOS>MOLECULE
3R207
157   159    1
SMALL
USER_CHARGES


@<TRIPOS>ATOM
      1 CA        -48.4100  -30.1098   11.7922 C.3       0 UNK        -0.1975 
      2 C         -48.3081  -29.1970   10.5791 C.2       0 UNK         0.4852 
      3 O         -47.7629  -28.0981   10.6870 O.2       0 UNK        -0.5216 
      4 N         -48.8245  -29.6507    9.4273 N.am      1 UNK        -0.4461 
      5 CA        -48.8002  -29.0003    8.1090 C.3       1 UNK         0.0864 
      6 C6        -49.5298  -27.6262    8.0734 C.3       14 UNK        -0.0898 
      7 S7        -49.5434  -26.8120    6.4337 S.3       14 UNK        -0.2598 
      8 C8        -51.0195  -27.5300    5.6439 C.3       14 UNK         0.0286 
      9 C9        -52.2990  -27.0735    6.3252 C.ar      14 UNK        -0.0844 
     10 C10       -52.6870  -25.7324    6.2581 C.ar      14 UNK        -0.0881 
     11 C11       -53.8168  -25.2869    6.9490 C.ar      14 UNK        -0.0643 
     12 C12       -54.5866  -26.2030    7.6726 C.ar      14 UNK        -0.0930 
     13 C13       -54.2209  -27.5510    7.7253 C.ar      14 UNK        -0.0827 
     14 C14       -53.0771  -27.9819    7.0482 C.ar      14 UNK        -0.1249 
     15 C15       -55.0449  -28.5358    8.5376 C.3       14 UNK         0.0141 
     16 S16       -54.2450  -28.8801   10.1322 S.3       14 UNK        -0.2313 
     17 C17       -55.6100  -29.6743   11.0422 C.3       14 UNK        -0.0915 
     18 CA        -56.3436  -28.6886   11.9909 C.3       13 UNK         0.0968 
     19 C         -57.5889  -29.3659   12.6370 C.2       13 UNK         0.5732 
     20 N         -57.6529  -29.5566   13.9505 N.am      13 UNK        -0.7310 
     21 O         -58.5252  -29.7223   11.9255 O.2       13 UNK        -0.5035 
     22 N         -55.4157  -28.0755   12.9515 N.am      13 UNK        -0.4233 
     23 C         -55.6574  -26.9705   13.6673 C.2       13 UNK         0.4989 
     24 O         -56.6644  -26.2734   13.5284 O.2       13 UNK        -0.4996 
     25 CA        -54.6012  -26.5994   14.7313 C.3       12 UNK         0.0216 
     26 CB        -55.1740  -25.7134   15.8572 C.3       12 UNK        -0.1964 
     27 N         -53.8944  -27.7579   15.3046 N.am      12 UNK        -0.4276 
     28 C         -54.4493  -28.8258   15.8995 C.2       12 UNK         0.5020 
     29 O         -55.6641  -28.9683   16.0484 O.2       12 UNK        -0.5489 
     30 CA        -53.5212  -29.9679   16.3487 C.3       11 UNK         0.0294 
     31 CB        -53.6028  -31.1301   15.3438 C.3       11 UNK        -0.2019 
     32 N         -52.1142  -29.5997   16.5257 N.am      11 UNK        -0.4493 
     33 C         -51.6259  -28.8509   17.5235 C.2       11 UNK         0.4932 
     34 O         -52.3281  -28.2959   18.3691 O.2       11 UNK        -0.5029 
     35 CA        -50.0967  -28.7229   17.6191 C.3       10 UNK         0.0280 
     36 CB        -49.3156  -29.7031   16.7167 C.3       10 UNK        -0.1976 
     37 N         -49.7137  -27.3580   17.2789 N.am      10 UNK        -0.4242 
     38 C         -48.8532  -26.5923   17.9633 C.2       10 UNK         0.5072 
     39 O         -48.3025  -26.9519   19.0056 O.2       10 UNK        -0.5224 
     40 CA        -48.5091  -25.2005   17.3906 C.3       9 UNK         0.0343 
     41 CB        -47.0471  -25.1614   16.9133 C.3       9 UNK        -0.2003 
     42 N         -49.3719  -24.7908   16.2810 N.am      9 UNK        -0.4272 
     43 C         -50.6292  -24.3485   16.4112 C.2       9 UNK         0.4988 
     44 O         -51.1732  -24.1432   17.4964 O.2       9 UNK        -0.5108 
     45 CA        -51.4269  -24.1198   15.1143 C.3       8 UNK         0.0248 
     46 CB        -51.4264  -22.6288   14.7438 C.3       8 UNK        -0.2001 
     47 N         -50.9872  -24.9172   13.9573 N.am      8 UNK        -0.4140 
     48 C         -50.9668  -26.2605   13.9129 C.2       8 UNK         0.5028 
     49 O         -51.2190  -26.9636   14.8922 O.2       8 UNK        -0.5428 
     50 CA        -50.6140  -26.9594   12.5844 C.3       7 UNK         0.0264 
     51 CB        -51.3835  -28.2891   12.4255 C.3       7 UNK        -0.1988 
     52 N         -50.7806  -26.1238   11.3908 N.am      7 UNK        -0.4454 
     53 C         -51.9112  -25.5463   10.9514 C.2       7 UNK         0.5027 
     54 O         -53.0043  -25.6758   11.5050 O.2       7 UNK        -0.5083 
     55 CA        -51.7708  -24.6309    9.7116 C.3       6 UNK         0.0844 
     56 C56       -52.9859  -23.6754    9.5350 C.3       14 UNK        -0.0967 
     57 S57       -52.9621  -22.8273    7.9164 S.3       14 UNK        -0.2604 
     58 C58       -54.1705  -23.8065    6.9609 C.3       14 UNK         0.0134 
     59 N         -50.4827  -23.9186    9.6661 N.am      6 UNK        -0.4116 
     60 C         -49.9869  -23.1059   10.6102 C.2       5 UNK         0.5034 
     61 O         -50.5342  -22.9223   11.6972 O.2       5 UNK        -0.5045 
     62 CA        -48.6661  -22.3659   10.3299 C.3       5 UNK         0.0224 
     63 CB        -47.5696  -22.8056   11.3234 C.3       5 UNK        -0.1978 
     64 N         -48.1740  -22.4121    8.9426 N.am      5 UNK        -0.4737 
     65 C         -47.6831  -23.4600    8.2687 C.2       4 UNK         0.5027 
     66 O         -47.6732  -24.6159    8.6986 O.2       4 UNK        -0.5211 
     67 CA        -47.0948  -23.1520    6.8855 C.3       4 UNK         0.0297 
     68 CB        -45.8095  -22.3070    7.0222 C.3       4 UNK        -0.1993 
     69 N         -46.8021  -24.4206    6.2294 N.am      4 UNK        -0.4486 
     70 C         -46.4047  -24.6125    4.9672 C.2       3 UNK         0.4961 
     71 O         -46.3073  -23.7025    4.1420 O.2       3 UNK        -0.5105 
     72 CA        -46.0697  -26.0599    4.5413 C.3       3 UNK         0.0299 
     73 CB        -44.8744  -26.1187    3.5670 C.3       3 UNK        -0.1972 
     74 N         -45.8742  -26.9967    5.6578 N.am      3 UNK        -0.4305 
     75 C         -44.9554  -26.9538    6.6356 C.2       2 UNK         0.5006 
     76 O         -44.0708  -26.0988    6.7029 O.2       2 UNK        -0.5106 
     77 CA        -45.0666  -28.0311    7.7389 C.3       2 UNK         0.0296 
     78 CB        -44.2163  -27.6953    8.9786 C.3       2 UNK        -0.2002 
     79 N         -46.4493  -28.2609    8.1726 N.am      2 UNK        -0.4032 
     80 C         -47.3792  -28.9572    7.5077 C.2       1 UNK         0.5000 
     81 O         -47.1567  -29.5255    6.4370 O.2       1 UNK        -0.5238 
     82 H82       -47.4714  -30.6437   11.9371 H         1 UNK         0.0889 
     83 H83       -49.2094  -30.8423   11.6807 H         1 UNK         0.0889 
     84 H84       -48.6091  -29.5284   12.6917 H         1 UNK         0.0889 
     85 H85       -49.2352  -30.5746    9.4237 H         1 UNK         0.3028 
     86 H86       -49.3722  -29.6676    7.4621 H         1 UNK         0.0864 
     87 H87       -50.5541  -27.7413    8.4293 H         1 UNK         0.0720 
     88 H88       -49.0599  -26.9283    8.7661 H         1 UNK         0.0720 
     89 H89       -50.9384  -28.6180    5.6450 H         1 UNK         0.0814 
     90 H90       -51.0436  -27.2254    4.5968 H         1 UNK         0.0814 
     91 H91       -52.0782  -25.0238    5.7128 H         1 UNK         0.1469 
     92 H92       -55.4568  -25.8624    8.2171 H         1 UNK         0.1381 
     93 H93       -52.7808  -29.0203    7.1089 H         1 UNK         0.1206 
     94 H94       -55.1695  -29.4673    7.9834 H         1 UNK         0.0813 
     95 H95       -56.0467  -28.1390    8.7099 H         1 UNK         0.0813 
     96 H96       -55.1957  -30.5086   11.6110 H         1 UNK         0.0638 
     97 H97       -56.3036  -30.1141   10.3229 H         1 UNK         0.0638 
     98 H98       -56.7398  -27.8800   11.3739 H         1 UNK         0.0568 
     99 H99       -58.4728  -29.9933   14.3394 H         1 UNK         0.3450 
    100 H100      -56.9020  -29.2640   14.5686 H         1 UNK         0.3450 
    101 H101      -54.5611  -28.5808   13.1216 H         1 UNK         0.2987 
    102 H102      -53.8533  -26.0131   14.1987 H         1 UNK         0.0766 
    103 H103      -55.5714  -24.7792   15.4588 H         1 UNK         0.0798 
    104 H104      -54.4062  -25.4534   16.5861 H         1 UNK         0.0798 
    105 H105      -55.9842  -26.2134   16.3889 H         1 UNK         0.0798 
    106 H106      -52.8779  -27.7148   15.2393 H         1 UNK         0.3198 
    107 H107      -53.8971  -30.3223   17.3111 H         1 UNK         0.0843 
    108 H108      -53.2176  -30.8464   14.3636 H         1 UNK         0.0831 
    109 H109      -54.6348  -31.4565   15.2051 H         1 UNK         0.0831 
    110 H110      -53.0382  -31.9959   15.6902 H         1 UNK         0.0831 
    111 H111      -51.4570  -29.9971   15.8708 H         1 UNK         0.3133 
    112 H112      -49.8389  -28.9410   18.6574 H         1 UNK         0.0566 
    113 H113      -48.2437  -29.6252   16.8997 H         1 UNK         0.0814 
    114 H114      -49.4785  -29.5052   15.6562 H         1 UNK         0.0814 
    115 H115      -49.5952  -30.7384   16.9172 H         1 UNK         0.0814 
    116 H116      -50.1748  -26.9799   16.4540 H         1 UNK         0.3091 
    117 H117      -48.6216  -24.4792   18.2028 H         1 UNK         0.0702 
    118 H118      -46.7704  -24.1674   16.5612 H         1 UNK         0.0785 
    119 H119      -46.8680  -25.8687   16.1024 H         1 UNK         0.0785 
    120 H120      -46.3635  -25.4165   17.7244 H         1 UNK         0.0785 
    121 H121      -49.0076  -24.9215   15.3488 H         1 UNK         0.2998 
    122 H122      -52.4569  -24.4079   15.3285 H         1 UNK         0.0697 
    123 H123      -50.4308  -22.2842   14.4612 H         1 UNK         0.0825 
    124 H124      -51.7602  -22.0145   15.5813 H         1 UNK         0.0825 
    125 H125      -52.0998  -22.4283   13.9102 H         1 UNK         0.0825 
    126 H126      -50.7864  -24.3957   13.1096 H         1 UNK         0.3029 
    127 H127      -49.5501  -27.1901   12.6450 H         1 UNK         0.0897 
    128 H128      -52.4599  -28.1369   12.4957 H         1 UNK         0.0792 
    129 H129      -51.1063  -29.0029   13.2018 H         1 UNK         0.0792 
    130 H130      -51.1809  -28.7581   11.4631 H         1 UNK         0.0792 
    131 H131      -49.9316  -25.9360   10.8742 H         1 UNK         0.3086 
    132 H132      -51.7545  -25.3182    8.8664 H         1 UNK         0.0583 
    133 H133      -53.9305  -24.2130    9.6320 H         1 UNK         0.1020 
    134 H134      -52.9954  -22.9223   10.3247 H         1 UNK         0.1020 
    135 H135      -55.1669  -23.6480    7.3766 H         1 UNK         0.0694 
    136 H136      -54.2014  -23.4328    5.9365 H         1 UNK         0.0694 
    137 H137      -49.9304  -24.0522    8.8306 H         1 UNK         0.2989 
    138 H138      -48.8791  -21.3141   10.5289 H         1 UNK         0.1055 
    139 H139      -47.8858  -22.6395   12.3542 H         1 UNK         0.0806 
    140 H140      -46.6494  -22.2407   11.1746 H         1 UNK         0.0806 
    141 H141      -47.3319  -23.8655   11.2272 H         1 UNK         0.0806 
    142 H142      -48.1685  -21.5173    8.4709 H         1 UNK         0.3061 
    143 H143      -47.8405  -22.6134    6.2977 H         1 UNK         0.0734 
    144 H144      -46.0005  -21.3683    7.5432 H         1 UNK         0.0832 
    145 H145      -45.0401  -22.8403    7.5823 H         1 UNK         0.0832 
    146 H146      -45.3915  -22.0463    6.0502 H         1 UNK         0.0832 
    147 H147      -46.9125  -25.2197    6.8436 H         1 UNK         0.3156 
    148 H148      -46.9489  -26.4205    4.0055 H         1 UNK         0.0589 
    149 H149      -44.6642  -27.1424    3.2574 H         1 UNK         0.0808 
    150 H150      -45.0761  -25.5445    2.6619 H         1 UNK         0.0808 
    151 H151      -43.9679  -25.7100    4.0145 H         1 UNK         0.0808 
    152 H152      -46.5341  -27.7677    5.6986 H         1 UNK         0.3098 
    153 H153      -44.6805  -28.9592    7.3127 H         1 UNK         0.0720 
    154 H154      -43.1626  -27.5889    8.7173 H         1 UNK         0.0791 
    155 H155      -44.2830  -28.4820    9.7304 H         1 UNK         0.0791 
    156 H156      -44.5361  -26.7610    9.4422 H         1 UNK         0.0791 
    157 H157      -46.7325  -27.8467    9.0574 H         1 UNK         0.3028 
@<TRIPOS>BOND
     1    1    2 1    
     2    1   82 1    
     3    1   83 1    
     4    1   84 1    
     5    2    3 2    
     6    2    4 am   BACKBONE|DICT|INTERRES
     7    4    5 1    
     8    4   85 1    
     9    5    6 1    
    10    5   80 1    
    11    5   86 1    
    12    6    7 1    
    13    6   87 1    
    14    6   88 1    
    15    7    8 1    
    16    8    9 1    
    17    8   89 1    
    18    8   90 1    
    19    9   10 ar   
    20    9   14 ar   
    21   10   11 ar   
    22   10   91 1    
    23   11   12 ar   
    24   11   58 1    
    25   12   13 ar   
    26   12   92 1    
    27   13   14 ar   
    28   13   15 1    
    29   14   93 1    
    30   15   16 1    
    31   15   94 1    
    32   15   95 1    
    33   16   17 1    
    34   17   18 1    
    35   17   96 1    
    36   17   97 1    
    37   18   19 1    
    38   18   22 1    
    39   18   98 1    
    40   19   20 am   BACKBONE|DICT|INTERRES
    41   19   21 2    
    42   20   99 1    
    43   20  100 1    
    44   22   23 am   BACKBONE|DICT|INTERRES
    45   22  101 1    
    46   23   24 2    
    47   23   25 1    
    48   25   26 1    
    49   25   27 1    
    50   25  102 1    
    51   26  103 1    
    52   26  104 1    
    53   26  105 1    
    54   27   28 am   BACKBONE|DICT|INTERRES
    55   27  106 1    
    56   28   29 2    
    57   28   30 1    
    58   30   31 1    
    59   30   32 1    
    60   30  107 1    
    61   31  108 1    
    62   31  109 1    
    63   31  110 1    
    64   32   33 am   BACKBONE|DICT|INTERRES
    65   32  111 1    
    66   33   34 2    
    67   33   35 1    
    68   35   36 1    
    69   35   37 1    
    70   35  112 1    
    71   36  113 1    
    72   36  114 1    
    73   36  115 1    
    74   37   38 am   BACKBONE|DICT|INTERRES
    75   37  116 1    
    76   38   39 2    
    77   38   40 1    
    78   40   41 1    
    79   40   42 1    
    80   40  117 1    
    81   41  118 1    
    82   41  119 1    
    83   41  120 1    
    84   42   43 am   BACKBONE|DICT|INTERRES
    85   42  121 1    
    86   43   44 2    
    87   43   45 1    
    88   45   46 1    
    89   45   47 1    
    90   45  122 1    
    91   46  123 1    
    92   46  124 1    
    93   46  125 1    
    94   47   48 am   BACKBONE|DICT|INTERRES
    95   47  126 1    
    96   48   49 2    
    97   48   50 1    
    98   50   51 1    
    99   50   52 1    
   100   50  127 1    
   101   51  128 1    
   102   51  129 1    
   103   51  130 1    
   104   52   53 am   BACKBONE|DICT|INTERRES
   105   52  131 1    
   106   53   54 2    
   107   53   55 1    
   108   55   56 1    
   109   55   59 1    
   110   55  132 1    
   111   56   57 1    
   112   56  133 1    
   113   56  134 1    
   114   57   58 1    
   115   58  135 1    
   116   58  136 1    
   117   59   60 am   BACKBONE|DICT|INTERRES
   118   59  137 1    
   119   60   61 2    
   120   60   62 1    
   121   62   63 1    
   122   62   64 1    
   123   62  138 1    
   124   63  139 1    
   125   63  140 1    
   126   63  141 1    
   127   64   65 am   BACKBONE|DICT|INTERRES
   128   64  142 1    
   129   65   66 2    
   130   65   67 1    
   131   67   68 1    
   132   67   69 1    
   133   67  143 1    
   134   68  144 1    
   135   68  145 1    
   136   68  146 1    
   137   69   70 am   BACKBONE|DICT|INTERRES
   138   69  147 1    
   139   70   71 2    
   140   70   72 1    
   141   72   73 1    
   142   72   74 1    
   143   72  148 1    
   144   73  149 1    
   145   73  150 1    
   146   73  151 1    
   147   74   75 am   BACKBONE|DICT|INTERRES
   148   74  152 1    
   149   75   76 2    
   150   75   77 1    
   151   77   78 1    
   152   77   79 1    
   153   77  153 1    
   154   78  154 1    
   155   78  155 1    
   156   78  156 1    
   157   79   80 am   BACKBONE|DICT|INTERRES
   158   79  157 1    
   159   80   81 2    
@<TRIPOS>SUBSTRUCTURE
     1 UNK         1 GROUP             0       ****    0 ROOT    
