@<TRIPOS>MOLECULE
3R207
157   159    1
SMALL
USER_CHARGES


@<TRIPOS>ATOM
      1 CA        -47.2577  -30.3865    3.8882 C.3       0 UNK        -0.1975 
      2 C         -48.0752  -29.2158    3.3641 C.2       0 UNK         0.4852 
      3 O         -47.8393  -28.7485    2.2497 O.2       0 UNK        -0.5216 
      4 N         -49.0173  -28.7114    4.1707 N.am      1 UNK        -0.4461 
      5 CA        -49.9385  -27.6042    3.8699 C.3       1 UNK         0.0864 
      6 C6        -51.2263  -27.7119    4.7336 C.3       14 UNK        -0.0898 
      7 S7        -50.9168  -27.7610    6.5376 S.3       14 UNK        -0.2598 
      8 C8        -51.1682  -29.5258    6.9001 C.3       14 UNK         0.0286 
      9 C9        -50.9196  -29.8203    8.3706 C.ar      14 UNK        -0.0844 
     10 C10       -49.6173  -29.9890    8.8476 C.ar      14 UNK        -0.0881 
     11 C11       -49.3842  -30.2660   10.1983 C.ar      14 UNK        -0.0643 
     12 C12       -50.4674  -30.3557   11.0805 C.ar      14 UNK        -0.0930 
     13 C13       -51.7777  -30.1970   10.6127 C.ar      14 UNK        -0.0827 
     14 C14       -51.9937  -29.9376    9.2549 C.ar      14 UNK        -0.1249 
     15 C15       -52.9646  -30.3376   11.5594 C.3       14 UNK         0.0141 
     16 S16       -54.0592  -28.8864   11.4857 S.3       14 UNK        -0.2313 
     17 C17       -55.3985  -29.3699   12.6213 C.3       14 UNK        -0.0915 
     18 CA        -56.5165  -28.2966   12.6546 C.3       13 UNK         0.0968 
     19 C         -57.7251  -28.7566   13.5146 C.2       13 UNK         0.5732 
     20 N         -58.5596  -29.6374   12.9784 N.am      13 UNK        -0.7310 
     21 O         -57.9032  -28.3553   14.6626 O.2       13 UNK        -0.5035 
     22 N         -55.9776  -26.9911   13.0552 N.am      13 UNK        -0.4233 
     23 C         -56.5755  -25.8124   12.8588 C.2       13 UNK         0.4989 
     24 O         -57.6788  -25.6768   12.3253 O.2       13 UNK        -0.4996 
     25 CA        -55.7676  -24.5814   13.3059 C.3       12 UNK         0.0216 
     26 CB        -56.5574  -23.2566   13.2226 C.3       12 UNK        -0.1964 
     27 N         -55.1574  -24.7713   14.6274 N.am      12 UNK        -0.4276 
     28 C         -55.7903  -24.8825   15.8053 C.2       12 UNK         0.5020 
     29 O         -57.0132  -24.8123   15.9424 O.2       12 UNK        -0.5489 
     30 CA        -54.8938  -25.0708   17.0423 C.3       11 UNK         0.0294 
     31 CB        -55.6785  -25.4517   18.3171 C.3       11 UNK        -0.2019 
     32 N         -53.7722  -25.9878   16.8119 N.am      11 UNK        -0.4493 
     33 C         -53.8189  -27.3123   16.5959 C.2       11 UNK         0.4932 
     34 O         -54.8676  -27.9515   16.5206 O.2       11 UNK        -0.5029 
     35 CA        -52.4805  -28.0710   16.4490 C.3       10 UNK         0.0280 
     36 CB        -52.4976  -29.0071   15.2284 C.3       10 UNK        -0.1976 
     37 N         -51.3100  -27.1954   16.3564 N.am      10 UNK        -0.4242 
     38 C         -50.7072  -26.5801   17.3831 C.2       10 UNK         0.5072 
     39 O         -51.0162  -26.7515   18.5624 O.2       10 UNK        -0.5224 
     40 CA        -49.6153  -25.5520   17.0306 C.3       9 UNK         0.0343 
     41 CB        -48.2398  -26.2315   16.9566 C.3       9 UNK        -0.2003 
     42 N         -49.8846  -24.8251   15.7822 N.am      9 UNK        -0.4272 
     43 C         -50.9507  -24.0338   15.5805 C.2       9 UNK         0.4988 
     44 O         -51.7953  -23.7955   16.4437 O.2       9 UNK        -0.5108 
     45 CA        -51.1471  -23.4561   14.1697 C.3       8 UNK         0.0248 
     46 CB        -50.2406  -22.2361   13.9440 C.3       8 UNK        -0.2001 
     47 N         -50.9206  -24.4514   13.1201 N.am      8 UNK        -0.4140 
     48 C         -51.6632  -25.5536   12.9388 C.2       8 UNK         0.5028 
     49 O         -52.6758  -25.8084   13.5932 O.2       8 UNK        -0.5428 
     50 CA        -51.1602  -26.5651   11.8938 C.3       7 UNK         0.0264 
     51 CB        -51.5577  -26.1505   10.4696 C.3       7 UNK        -0.1988 
     52 N         -49.7128  -26.7723   11.9732 N.am      7 UNK        -0.4454 
     53 C         -49.1045  -27.3487   13.0208 C.2       7 UNK         0.5027 
     54 O         -49.7110  -27.8214   13.9814 O.2       7 UNK        -0.5083 
     55 CA        -47.5649  -27.3412   13.0527 C.3       6 UNK         0.0844 
     56 C56       -46.9416  -28.6822   12.5998 C.3       14 UNK        -0.0967 
     57 S57       -46.9870  -28.9890   10.8027 S.3       14 UNK        -0.2604 
     58 C58       -47.9619  -30.5224   10.6757 C.3       14 UNK         0.0134 
     59 N         -46.9994  -26.1632   12.3872 N.am      6 UNK        -0.4116 
     60 C         -47.0457  -24.9324   12.9185 C.2       5 UNK         0.5034 
     61 O         -47.5537  -24.6796   14.0114 O.2       5 UNK        -0.5045 
     62 CA        -46.4615  -23.7826   12.0832 C.3       5 UNK         0.0224 
     63 CB        -44.9248  -23.8106   12.1117 C.3       5 UNK        -0.1978 
     64 N         -46.9295  -23.7728   10.6954 N.am      5 UNK        -0.4737 
     65 C         -48.2095  -23.6498   10.3154 C.2       4 UNK         0.5027 
     66 O         -49.1471  -23.5478   11.1039 O.2       4 UNK        -0.5211 
     67 CA        -48.5005  -23.6496    8.8045 C.3       4 UNK         0.0297 
     68 CB        -48.6397  -22.2105    8.2849 C.3       4 UNK        -0.1993 
     69 N         -47.4946  -24.3563    8.0074 N.am      4 UNK        -0.4486 
     70 C         -47.2425  -25.6682    8.0833 C.2       3 UNK         0.4961 
     71 O         -47.8288  -26.4236    8.8579 O.2       3 UNK        -0.5105 
     72 CA        -46.1568  -26.2088    7.1314 C.3       3 UNK         0.0299 
     73 CB        -45.8293  -27.6908    7.3919 C.3       3 UNK        -0.1972 
     74 N         -46.5473  -26.0558    5.7300 N.am      3 UNK        -0.4305 
     75 C         -46.5561  -24.9153    5.0236 C.2       2 UNK         0.5006 
     76 O         -46.1632  -23.8357    5.4690 O.2       2 UNK        -0.5106 
     77 CA        -47.1172  -24.9855    3.5896 C.3       2 UNK         0.0296 
     78 CB        -45.9733  -25.0860    2.5680 C.3       2 UNK        -0.2002 
     79 N         -48.0337  -26.1142    3.4010 N.am      2 UNK        -0.4032 
     80 C         -49.2524  -26.2156    3.9498 C.2       1 UNK         0.5000 
     81 O         -49.8039  -25.2760    4.5264 O.2       1 UNK        -0.5238 
     82 H82       -47.5634  -30.6818    4.8919 H         1 UNK         0.0889 
     83 H83       -46.2009  -30.1227    3.9193 H         1 UNK         0.0889 
     84 H84       -47.3747  -31.2479    3.2312 H         1 UNK         0.0889 
     85 H85       -49.1343  -29.1058    5.0924 H         1 UNK         0.3028 
     86 H86       -50.2500  -27.7103    2.8283 H         1 UNK         0.0864 
     87 H87       -51.9029  -26.8817    4.5226 H         1 UNK         0.0720 
     88 H88       -51.7797  -28.6069    4.4453 H         1 UNK         0.0720 
     89 H89       -50.5024  -30.1334    6.2863 H         1 UNK         0.0814 
     90 H90       -52.1851  -29.8088    6.6231 H         1 UNK         0.0814 
     91 H91       -48.7805  -29.9068    8.1678 H         1 UNK         0.1469 
     92 H92       -50.2902  -30.5674   12.1261 H         1 UNK         0.1381 
     93 H93       -53.0040  -29.8171    8.8882 H         1 UNK         0.1206 
     94 H94       -52.6273  -30.4758   12.5875 H         1 UNK         0.0813 
     95 H95       -53.5293  -31.2309   11.2896 H         1 UNK         0.0813 
     96 H96       -55.7947  -30.3317   12.2908 H         1 UNK         0.0638 
     97 H97       -54.9848  -29.5263   13.6184 H         1 UNK         0.0638 
     98 H98       -56.8897  -28.1795   11.6350 H         1 UNK         0.0568 
     99 H99       -58.4239  -29.9828   12.0411 H         1 UNK         0.3450 
    100 H100      -59.3453  -29.9592   13.5217 H         1 UNK         0.3450 
    101 H101      -55.0761  -27.0056   13.5096 H         1 UNK         0.2987 
    102 H102      -54.9363  -24.5017   12.6037 H         1 UNK         0.0766 
    103 H103      -57.4542  -23.2752   13.8424 H         1 UNK         0.0798 
    104 H104      -55.9473  -22.4105   13.5386 H         1 UNK         0.0798 
    105 H105      -56.8780  -23.0601   12.1989 H         1 UNK         0.0798 
    106 H106      -54.1546  -24.9410   14.6048 H         1 UNK         0.3198 
    107 H107      -54.4427  -24.0945   17.2266 H         1 UNK         0.0843 
    108 H108      -56.2264  -26.3863   18.1930 H         1 UNK         0.0831 
    109 H109      -56.4085  -24.6817   18.5693 H         1 UNK         0.0831 
    110 H110      -55.0149  -25.5611   19.1748 H         1 UNK         0.0831 
    111 H111      -52.8623  -25.5398   16.8094 H         1 UNK         0.3133 
    112 H112      -52.3714  -28.6918   17.3403 H         1 UNK         0.0566 
    113 H113      -51.5613  -29.5576   15.1360 H         1 UNK         0.0814 
    114 H114      -53.2954  -29.7457   15.3101 H         1 UNK         0.0814 
    115 H115      -52.6521  -28.4540   14.3017 H         1 UNK         0.0814 
    116 H116      -50.9383  -27.0496   15.4230 H         1 UNK         0.3091 
    117 H117      -49.5855  -24.8138   17.8347 H         1 UNK         0.0702 
    118 H118      -47.4534  -25.5184   16.7085 H         1 UNK         0.0785 
    119 H119      -48.2247  -27.0261   16.2117 H         1 UNK         0.0785 
    120 H120      -47.9789  -26.6825   17.9149 H         1 UNK         0.0785 
    121 H121      -49.1965  -24.9171   15.0398 H         1 UNK         0.2998 
    122 H122      -52.1844  -23.1245   14.0894 H         1 UNK         0.0697 
    123 H123      -49.1841  -22.5034   13.9758 H         1 UNK         0.0825 
    124 H124      -50.4096  -21.4764   14.7083 H         1 UNK         0.0825 
    125 H125      -50.4363  -21.7726   12.9768 H         1 UNK         0.0825 
    126 H126      -50.1446  -24.2738   12.4845 H         1 UNK         0.3029 
    127 H127      -51.6335  -27.5227   12.1125 H         1 UNK         0.0897 
    128 H128      -51.1252  -25.1911   10.1874 H         1 UNK         0.0792 
    129 H129      -52.6412  -26.0612   10.3820 H         1 UNK         0.0792 
    130 H130      -51.2353  -26.8937    9.7390 H         1 UNK         0.0792 
    131 H131      -49.1502  -26.4303   11.2057 H         1 UNK         0.3086 
    132 H132      -47.2989  -27.2512   14.1074 H         1 UNK         0.0583 
    133 H133      -45.8924  -28.7007   12.8986 H         1 UNK         0.1020 
    134 H134      -47.4023  -29.5095   13.1422 H         1 UNK         0.1020 
    135 H135      -47.4662  -31.1799    9.9600 H         1 UNK         0.0694 
    136 H136      -47.9610  -31.0668   11.6205 H         1 UNK         0.0694 
    137 H137      -46.6144  -26.3012   11.4632 H         1 UNK         0.2989 
    138 H138      -46.7928  -22.8498   12.5453 H         1 UNK         0.1055 
    139 H139      -44.5540  -23.8101   13.1378 H         1 UNK         0.0806 
    140 H140      -44.5032  -22.9347   11.6181 H         1 UNK         0.0806 
    141 H141      -44.5237  -24.6981   11.6207 H         1 UNK         0.0806 
    142 H142      -46.2289  -23.8497    9.9727 H         1 UNK         0.3061 
    143 H143      -49.4545  -24.1598    8.6567 H         1 UNK         0.0734 
    144 H144      -47.7069  -21.6536    8.3819 H         1 UNK         0.0832 
    145 H145      -48.9343  -22.1943    7.2354 H         1 UNK         0.0832 
    146 H146      -49.4037  -21.6671    8.8430 H         1 UNK         0.0832 
    147 H147      -46.9957  -23.8240    7.3007 H         1 UNK         0.3156 
    148 H148      -45.2476  -25.6296    7.3054 H         1 UNK         0.0589 
    149 H149      -46.7041  -28.3293    7.2615 H         1 UNK         0.0808 
    150 H150      -45.0460  -28.0505    6.7245 H         1 UNK         0.0808 
    151 H151      -45.4725  -27.8343    8.4124 H         1 UNK         0.0808 
    152 H152      -46.9169  -26.8806    5.2835 H         1 UNK         0.3098 
    153 H153      -47.6668  -24.0604    3.4036 H         1 UNK         0.0720 
    154 H154      -46.3524  -25.0709    1.5459 H         1 UNK         0.0791 
    155 H155      -45.3938  -26.0010    2.6978 H         1 UNK         0.0791 
    156 H156      -45.2847  -24.2459    2.6694 H         1 UNK         0.0791 
    157 H157      -47.6849  -26.9242    2.8951 H         1 UNK         0.3028 
@<TRIPOS>BOND
     1    1    2 1    
     2    1   82 1    
     3    1   83 1    
     4    1   84 1    
     5    2    3 2    
     6    2    4 am   BACKBONE|DICT|INTERRES
     7    4    5 1    
     8    4   85 1    
     9    5    6 1    
    10    5   80 1    
    11    5   86 1    
    12    6    7 1    
    13    6   87 1    
    14    6   88 1    
    15    7    8 1    
    16    8    9 1    
    17    8   89 1    
    18    8   90 1    
    19    9   10 ar   
    20    9   14 ar   
    21   10   11 ar   
    22   10   91 1    
    23   11   12 ar   
    24   11   58 1    
    25   12   13 ar   
    26   12   92 1    
    27   13   14 ar   
    28   13   15 1    
    29   14   93 1    
    30   15   16 1    
    31   15   94 1    
    32   15   95 1    
    33   16   17 1    
    34   17   18 1    
    35   17   96 1    
    36   17   97 1    
    37   18   19 1    
    38   18   22 1    
    39   18   98 1    
    40   19   20 am   BACKBONE|DICT|INTERRES
    41   19   21 2    
    42   20   99 1    
    43   20  100 1    
    44   22   23 am   BACKBONE|DICT|INTERRES
    45   22  101 1    
    46   23   24 2    
    47   23   25 1    
    48   25   26 1    
    49   25   27 1    
    50   25  102 1    
    51   26  103 1    
    52   26  104 1    
    53   26  105 1    
    54   27   28 am   BACKBONE|DICT|INTERRES
    55   27  106 1    
    56   28   29 2    
    57   28   30 1    
    58   30   31 1    
    59   30   32 1    
    60   30  107 1    
    61   31  108 1    
    62   31  109 1    
    63   31  110 1    
    64   32   33 am   BACKBONE|DICT|INTERRES
    65   32  111 1    
    66   33   34 2    
    67   33   35 1    
    68   35   36 1    
    69   35   37 1    
    70   35  112 1    
    71   36  113 1    
    72   36  114 1    
    73   36  115 1    
    74   37   38 am   BACKBONE|DICT|INTERRES
    75   37  116 1    
    76   38   39 2    
    77   38   40 1    
    78   40   41 1    
    79   40   42 1    
    80   40  117 1    
    81   41  118 1    
    82   41  119 1    
    83   41  120 1    
    84   42   43 am   BACKBONE|DICT|INTERRES
    85   42  121 1    
    86   43   44 2    
    87   43   45 1    
    88   45   46 1    
    89   45   47 1    
    90   45  122 1    
    91   46  123 1    
    92   46  124 1    
    93   46  125 1    
    94   47   48 am   BACKBONE|DICT|INTERRES
    95   47  126 1    
    96   48   49 2    
    97   48   50 1    
    98   50   51 1    
    99   50   52 1    
   100   50  127 1    
   101   51  128 1    
   102   51  129 1    
   103   51  130 1    
   104   52   53 am   BACKBONE|DICT|INTERRES
   105   52  131 1    
   106   53   54 2    
   107   53   55 1    
   108   55   56 1    
   109   55   59 1    
   110   55  132 1    
   111   56   57 1    
   112   56  133 1    
   113   56  134 1    
   114   57   58 1    
   115   58  135 1    
   116   58  136 1    
   117   59   60 am   BACKBONE|DICT|INTERRES
   118   59  137 1    
   119   60   61 2    
   120   60   62 1    
   121   62   63 1    
   122   62   64 1    
   123   62  138 1    
   124   63  139 1    
   125   63  140 1    
   126   63  141 1    
   127   64   65 am   BACKBONE|DICT|INTERRES
   128   64  142 1    
   129   65   66 2    
   130   65   67 1    
   131   67   68 1    
   132   67   69 1    
   133   67  143 1    
   134   68  144 1    
   135   68  145 1    
   136   68  146 1    
   137   69   70 am   BACKBONE|DICT|INTERRES
   138   69  147 1    
   139   70   71 2    
   140   70   72 1    
   141   72   73 1    
   142   72   74 1    
   143   72  148 1    
   144   73  149 1    
   145   73  150 1    
   146   73  151 1    
   147   74   75 am   BACKBONE|DICT|INTERRES
   148   74  152 1    
   149   75   76 2    
   150   75   77 1    
   151   77   78 1    
   152   77   79 1    
   153   77  153 1    
   154   78  154 1    
   155   78  155 1    
   156   78  156 1    
   157   79   80 am   BACKBONE|DICT|INTERRES
   158   79  157 1    
   159   80   81 2    
@<TRIPOS>SUBSTRUCTURE
     1 UNK         1 GROUP             0       ****    0 ROOT    
