@<TRIPOS>MOLECULE
3R207
157   159    1
SMALL
USER_CHARGES


@<TRIPOS>ATOM
      1 CA        -48.4507  -30.7466    8.0017 C.3       0 UNK        -0.1975 
      2 C         -48.6608  -30.1739    6.6104 C.2       0 UNK         0.4852 
      3 O         -47.7857  -30.3117    5.7551 O.2       0 UNK        -0.5216 
      4 N         -49.8179  -29.5403    6.3759 N.am      1 UNK        -0.4461 
      5 CA        -50.2115  -28.9995    5.0678 C.3       1 UNK         0.0864 
      6 C6        -51.7462  -28.8329    4.9371 C.3       14 UNK        -0.0898 
      7 S7        -52.6277  -30.4045    5.2506 S.3       14 UNK        -0.2598 
      8 C8        -53.8535  -29.9501    6.5217 C.3       14 UNK         0.0286 
      9 C9        -53.2221  -29.3523    7.7719 C.ar      14 UNK        -0.0844 
     10 C10       -53.4059  -27.9985    8.0635 C.ar      14 UNK        -0.0881 
     11 C11       -52.8398  -27.4351    9.2082 C.ar      14 UNK        -0.0643 
     12 C12       -52.0814  -28.2353   10.0685 C.ar      14 UNK        -0.0930 
     13 C13       -51.8965  -29.5936    9.7919 C.ar      14 UNK        -0.0827 
     14 C14       -52.4714  -30.1474    8.6430 C.ar      14 UNK        -0.1249 
     15 C15       -51.0559  -30.4575   10.7218 C.3       14 UNK         0.0141 
     16 S16       -51.8494  -30.7438   12.3316 S.3       14 UNK        -0.2313 
     17 C17       -53.3189  -31.7374   11.8906 C.3       14 UNK        -0.0915 
     18 CA        -54.6553  -31.0903   12.3406 C.3       13 UNK         0.0968 
     19 C         -54.7915  -31.0654   13.8931 C.2       13 UNK         0.5732 
     20 N         -54.6690  -29.9170   14.5507 N.am      13 UNK        -0.7310 
     21 O         -55.0227  -32.1058   14.5049 O.2       13 UNK        -0.5035 
     22 N         -54.8719  -29.7894   11.6936 N.am      13 UNK        -0.4233 
     23 C         -56.0478  -29.1530   11.6566 C.2       13 UNK         0.4989 
     24 O         -57.1161  -29.6460   12.0246 O.2       13 UNK        -0.4996 
     25 CA        -56.0152  -27.6934   11.1779 C.3       12 UNK         0.0216 
     26 CB        -57.1400  -27.3934   10.1726 C.3       12 UNK        -0.1964 
     27 N         -56.1067  -26.7716   12.3130 N.am      12 UNK        -0.4276 
     28 C         -55.1705  -26.6409   13.2617 C.2       12 UNK         0.5020 
     29 O         -54.0917  -27.2416   13.2514 O.2       12 UNK        -0.5489 
     30 CA        -55.5059  -25.7217   14.4406 C.3       11 UNK         0.0294 
     31 CB        -56.4243  -26.4473   15.4437 C.3       11 UNK        -0.2019 
     32 N         -54.2502  -25.3428   15.0805 N.am      11 UNK        -0.4493 
     33 C         -54.0674  -24.3784   15.9894 C.2       11 UNK         0.4932 
     34 O         -54.9799  -23.6660   16.4105 O.2       11 UNK        -0.5029 
     35 CA        -52.6290  -24.1328   16.4929 C.3       10 UNK         0.0280 
     36 CB        -52.5703  -23.8612   18.0111 C.3       10 UNK        -0.1976 
     37 N         -51.6644  -25.1648   16.0894 N.am      10 UNK        -0.4242 
     38 C         -51.5842  -26.4372   16.5063 C.2       10 UNK         0.5072 
     39 O         -52.3169  -26.9338   17.3623 O.2       10 UNK        -0.5224 
     40 CA        -50.5195  -27.3204   15.8338 C.3       9 UNK         0.0343 
     41 CB        -51.1111  -28.0194   14.6007 C.3       9 UNK        -0.2003 
     42 N         -49.3111  -26.5931   15.4364 N.am      9 UNK        -0.4272 
     43 C         -48.3830  -26.1329   16.2872 C.2       9 UNK         0.4988 
     44 O         -48.4506  -26.2595   17.5105 O.2       9 UNK        -0.5108 
     45 CA        -47.1669  -25.4187   15.6706 C.3       8 UNK         0.0248 
     46 CB        -46.1793  -26.4327   15.0700 C.3       8 UNK        -0.2001 
     47 N         -47.5458  -24.4361   14.6537 N.am      8 UNK        -0.4140 
     48 C         -48.1650  -23.2767   14.9193 C.2       8 UNK         0.5028 
     49 O         -48.4252  -22.8810   16.0560 O.2       8 UNK        -0.5428 
     50 CA        -48.5852  -22.4175   13.7142 C.3       7 UNK         0.0264 
     51 CB        -47.4185  -21.5355   13.2418 C.3       7 UNK        -0.1988 
     52 N         -49.0893  -23.2090   12.5892 N.am      7 UNK        -0.4454 
     53 C         -50.1828  -23.9836   12.6333 C.2       7 UNK         0.5027 
     54 O         -50.9118  -24.0788   13.6190 O.2       7 UNK        -0.5083 
     55 CA        -50.4979  -24.8307   11.3876 C.3       6 UNK         0.0844 
     56 C56       -51.2688  -23.9893   10.3427 C.3       14 UNK        -0.0967 
     57 S57       -51.7287  -24.9429    8.8617 S.3       14 UNK        -0.2604 
     58 C58       -53.0756  -25.9671    9.5206 C.3       14 UNK         0.0134 
     59 N         -49.3013  -25.4844   10.8483 N.am      6 UNK        -0.4116 
     60 C         -48.5546  -26.3714   11.5226 C.2       5 UNK         0.5034 
     61 O         -48.8230  -26.7784   12.6513 O.2       5 UNK        -0.5045 
     62 CA        -47.2553  -26.8393   10.8562 C.3       5 UNK         0.0224 
     63 CB        -47.5197  -28.0000    9.8868 C.3       5 UNK        -0.1978 
     64 N         -46.5887  -25.7383   10.1611 N.am      5 UNK        -0.4737 
     65 C         -45.9505  -24.7403   10.7889 C.2       4 UNK         0.5027 
     66 O         -45.8068  -24.6842   12.0104 O.2       4 UNK        -0.5211 
     67 CA        -45.4230  -23.5931    9.9097 C.3       4 UNK         0.0297 
     68 CB        -44.0336  -23.9365    9.3505 C.3       4 UNK        -0.1993 
     69 N         -46.3290  -23.2598    8.8064 N.am      4 UNK        -0.4486 
     70 C         -47.5610  -22.7572    8.9681 C.2       3 UNK         0.4961 
     71 O         -48.0433  -22.4733   10.0634 O.2       3 UNK        -0.5105 
     72 CA        -48.4201  -22.5747    7.7053 C.3       3 UNK         0.0299 
     73 CB        -48.2133  -21.1697    7.1183 C.3       3 UNK        -0.1972 
     74 N         -48.2023  -23.5805    6.6588 N.am      3 UNK        -0.4305 
     75 C         -48.3336  -24.9053    6.8126 C.2       2 UNK         0.5006 
     76 O         -48.5402  -25.4620    7.8937 O.2       2 UNK        -0.5106 
     77 CA        -48.1591  -25.7531    5.5511 C.3       2 UNK         0.0296 
     78 CB        -46.6741  -26.0841    5.3180 C.3       2 UNK        -0.2002 
     79 N         -48.9209  -26.9890    5.7038 N.am      2 UNK        -0.4032 
     80 C         -49.4717  -27.6924    4.7055 C.2       1 UNK         0.5000 
     81 O         -49.4042  -27.3551    3.5214 O.2       1 UNK        -0.5238 
     82 H82       -49.1081  -30.2718    8.7257 H         1 UNK         0.0889 
     83 H83       -47.4219  -30.5923    8.3252 H         1 UNK         0.0889 
     84 H84       -48.6523  -31.8172    8.0023 H         1 UNK         0.0889 
     85 H85       -50.5207  -29.4801    7.1009 H         1 UNK         0.3028 
     86 H86       -49.9084  -29.7295    4.3135 H         1 UNK         0.0864 
     87 H87       -52.1059  -28.0515    5.6068 H         1 UNK         0.0720 
     88 H88       -52.0074  -28.5064    3.9287 H         1 UNK         0.0720 
     89 H89       -54.4185  -30.8410    6.7994 H         1 UNK         0.0814 
     90 H90       -54.5754  -29.2593    6.0830 H         1 UNK         0.0814 
     91 H91       -53.9911  -27.3783    7.3982 H         1 UNK         0.1469 
     92 H92       -51.6402  -27.8061   10.9576 H         1 UNK         0.1381 
     93 H93       -52.3326  -31.1967    8.4198 H         1 UNK         0.1206 
     94 H94       -50.8246  -31.4197   10.2622 H         1 UNK         0.0813 
     95 H95       -50.1005  -29.9630   10.8996 H         1 UNK         0.0813 
     96 H96       -53.2067  -32.7280   12.3347 H         1 UNK         0.0638 
     97 H97       -53.3388  -31.9035   10.8130 H         1 UNK         0.0638 
     98 H98       -55.4524  -31.7481   11.9890 H         1 UNK         0.0568 
     99 H99       -54.7583  -29.9120   15.5532 H         1 UNK         0.3450 
    100 H100      -54.4388  -29.0644   14.0524 H         1 UNK         0.3450 
    101 H101      -54.0333  -29.2975   11.4169 H         1 UNK         0.2987 
    102 H102      -55.0667  -27.5182   10.6760 H         1 UNK         0.0766 
    103 H103      -57.0644  -26.3774    9.7848 H         1 UNK         0.0798 
    104 H104      -58.1280  -27.5106   10.6196 H         1 UNK         0.0798 
    105 H105      -57.0861  -28.0696    9.3183 H         1 UNK         0.0798 
    106 H106      -56.9795  -26.2746   12.4190 H         1 UNK         0.3198 
    107 H107      -55.9970  -24.8231   14.0619 H         1 UNK         0.0843 
    108 H108      -55.9401  -27.3305   15.8625 H         1 UNK         0.0831 
    109 H109      -57.3483  -26.7773   14.9674 H         1 UNK         0.0831 
    110 H110      -56.7069  -25.7984   16.2724 H         1 UNK         0.0831 
    111 H111      -53.4543  -25.8753   14.7491 H         1 UNK         0.3133 
    112 H112      -52.2964  -23.2229   15.9915 H         1 UNK         0.0566 
    113 H113      -51.5469  -23.6853   18.3429 H         1 UNK         0.0814 
    114 H114      -53.1509  -22.9756   18.2720 H         1 UNK         0.0814 
    115 H115      -52.9744  -24.6922   18.5895 H         1 UNK         0.0814 
    116 H116      -51.0679  -24.8851   15.3135 H         1 UNK         0.3091 
    117 H117      -50.2296  -28.0903   16.5520 H         1 UNK         0.0702 
    118 H118      -50.3984  -28.7190   14.1641 H         1 UNK         0.0785 
    119 H119      -51.3910  -27.3053   13.8252 H         1 UNK         0.0785 
    120 H120      -52.0057  -28.5874   14.8594 H         1 UNK         0.0785 
    121 H121      -49.1480  -26.5013   14.4352 H         1 UNK         0.2998 
    122 H122      -46.6521  -24.8873   16.4740 H         1 UNK         0.0697 
    123 H123      -46.6236  -26.9979   14.2505 H         1 UNK         0.0825 
    124 H124      -45.8535  -27.1517   15.8227 H         1 UNK         0.0825 
    125 H125      -45.2871  -25.9370   14.6866 H         1 UNK         0.0825 
    126 H126      -47.3250  -24.6606   13.6910 H         1 UNK         0.3029 
    127 H127      -49.3951  -21.7636   14.0449 H         1 UNK         0.0897 
    128 H128      -47.7296  -20.8612   12.4436 H         1 UNK         0.0792 
    129 H129      -47.0388  -20.9192   14.0579 H         1 UNK         0.0792 
    130 H130      -46.5863  -22.1330   12.8679 H         1 UNK         0.0792 
    131 H131      -48.5852  -23.1230   11.7080 H         1 UNK         0.3086 
    132 H132      -51.1584  -25.6301   11.7267 H         1 UNK         0.0583 
    133 H133      -52.1777  -23.5702   10.7797 H         1 UNK         0.1020 
    134 H134      -50.6725  -23.1344   10.0217 H         1 UNK         0.1020 
    135 H135      -53.1818  -25.8350   10.5980 H         1 UNK         0.0694 
    136 H136      -54.0181  -25.6311    9.0856 H         1 UNK         0.0694 
    137 H137      -49.0393  -25.2490    9.8968 H         1 UNK         0.2989 
    138 H138      -46.5884  -27.2010   11.6423 H         1 UNK         0.1055 
    139 H139      -47.9021  -28.8658   10.4280 H         1 UNK         0.0806 
    140 H140      -46.6060  -28.3120    9.3809 H         1 UNK         0.0806 
    141 H141      -48.2558  -27.7413    9.1257 H         1 UNK         0.0806 
    142 H142      -46.7489  -25.6670    9.1645 H         1 UNK         0.3061 
    143 H143      -45.3275  -22.7090   10.5439 H         1 UNK         0.0734 
    144 H144      -43.6115  -23.1001    8.7932 H         1 UNK         0.0832 
    145 H145      -43.3371  -24.1700   10.1572 H         1 UNK         0.0832 
    146 H146      -44.0650  -24.8021    8.6875 H         1 UNK         0.0832 
    147 H147      -46.0123  -23.4616    7.8694 H         1 UNK         0.3156 
    148 H148      -49.4642  -22.6598    8.0110 H         1 UNK         0.0589 
    149 H149      -47.1968  -21.0311    6.7479 H         1 UNK         0.0808 
    150 H150      -48.9015  -20.9769    6.2950 H         1 UNK         0.0808 
    151 H151      -48.3926  -20.4017    7.8724 H         1 UNK         0.0808 
    152 H152      -48.0054  -23.2242    5.7343 H         1 UNK         0.3098 
    153 H153      -48.5478  -25.1886    4.7008 H         1 UNK         0.0720 
    154 H154      -46.5383  -26.6746    4.4116 H         1 UNK         0.0791 
    155 H155      -46.2536  -26.6508    6.1500 H         1 UNK         0.0791 
    156 H156      -46.0796  -25.1769    5.2038 H         1 UNK         0.0791 
    157 H157      -49.0644  -27.2822    6.6615 H         1 UNK         0.3028 
@<TRIPOS>BOND
     1    1    2 1    
     2    1   82 1    
     3    1   83 1    
     4    1   84 1    
     5    2    3 2    
     6    2    4 am   BACKBONE|DICT|INTERRES
     7    4    5 1    
     8    4   85 1    
     9    5    6 1    
    10    5   80 1    
    11    5   86 1    
    12    6    7 1    
    13    6   87 1    
    14    6   88 1    
    15    7    8 1    
    16    8    9 1    
    17    8   89 1    
    18    8   90 1    
    19    9   10 ar   
    20    9   14 ar   
    21   10   11 ar   
    22   10   91 1    
    23   11   12 ar   
    24   11   58 1    
    25   12   13 ar   
    26   12   92 1    
    27   13   14 ar   
    28   13   15 1    
    29   14   93 1    
    30   15   16 1    
    31   15   94 1    
    32   15   95 1    
    33   16   17 1    
    34   17   18 1    
    35   17   96 1    
    36   17   97 1    
    37   18   19 1    
    38   18   22 1    
    39   18   98 1    
    40   19   20 am   BACKBONE|DICT|INTERRES
    41   19   21 2    
    42   20   99 1    
    43   20  100 1    
    44   22   23 am   BACKBONE|DICT|INTERRES
    45   22  101 1    
    46   23   24 2    
    47   23   25 1    
    48   25   26 1    
    49   25   27 1    
    50   25  102 1    
    51   26  103 1    
    52   26  104 1    
    53   26  105 1    
    54   27   28 am   BACKBONE|DICT|INTERRES
    55   27  106 1    
    56   28   29 2    
    57   28   30 1    
    58   30   31 1    
    59   30   32 1    
    60   30  107 1    
    61   31  108 1    
    62   31  109 1    
    63   31  110 1    
    64   32   33 am   BACKBONE|DICT|INTERRES
    65   32  111 1    
    66   33   34 2    
    67   33   35 1    
    68   35   36 1    
    69   35   37 1    
    70   35  112 1    
    71   36  113 1    
    72   36  114 1    
    73   36  115 1    
    74   37   38 am   BACKBONE|DICT|INTERRES
    75   37  116 1    
    76   38   39 2    
    77   38   40 1    
    78   40   41 1    
    79   40   42 1    
    80   40  117 1    
    81   41  118 1    
    82   41  119 1    
    83   41  120 1    
    84   42   43 am   BACKBONE|DICT|INTERRES
    85   42  121 1    
    86   43   44 2    
    87   43   45 1    
    88   45   46 1    
    89   45   47 1    
    90   45  122 1    
    91   46  123 1    
    92   46  124 1    
    93   46  125 1    
    94   47   48 am   BACKBONE|DICT|INTERRES
    95   47  126 1    
    96   48   49 2    
    97   48   50 1    
    98   50   51 1    
    99   50   52 1    
   100   50  127 1    
   101   51  128 1    
   102   51  129 1    
   103   51  130 1    
   104   52   53 am   BACKBONE|DICT|INTERRES
   105   52  131 1    
   106   53   54 2    
   107   53   55 1    
   108   55   56 1    
   109   55   59 1    
   110   55  132 1    
   111   56   57 1    
   112   56  133 1    
   113   56  134 1    
   114   57   58 1    
   115   58  135 1    
   116   58  136 1    
   117   59   60 am   BACKBONE|DICT|INTERRES
   118   59  137 1    
   119   60   61 2    
   120   60   62 1    
   121   62   63 1    
   122   62   64 1    
   123   62  138 1    
   124   63  139 1    
   125   63  140 1    
   126   63  141 1    
   127   64   65 am   BACKBONE|DICT|INTERRES
   128   64  142 1    
   129   65   66 2    
   130   65   67 1    
   131   67   68 1    
   132   67   69 1    
   133   67  143 1    
   134   68  144 1    
   135   68  145 1    
   136   68  146 1    
   137   69   70 am   BACKBONE|DICT|INTERRES
   138   69  147 1    
   139   70   71 2    
   140   70   72 1    
   141   72   73 1    
   142   72   74 1    
   143   72  148 1    
   144   73  149 1    
   145   73  150 1    
   146   73  151 1    
   147   74   75 am   BACKBONE|DICT|INTERRES
   148   74  152 1    
   149   75   76 2    
   150   75   77 1    
   151   77   78 1    
   152   77   79 1    
   153   77  153 1    
   154   78  154 1    
   155   78  155 1    
   156   78  156 1    
   157   79   80 am   BACKBONE|DICT|INTERRES
   158   79  157 1    
   159   80   81 2    
@<TRIPOS>SUBSTRUCTURE
     1 UNK         1 GROUP             0       ****    0 ROOT    
