@<TRIPOS>MOLECULE
3R207
157   159    1
SMALL
USER_CHARGES


@<TRIPOS>ATOM
      1 CA        -48.4472  -27.9153   10.2176 C.3       0 UNK        -0.1975 
      2 C         -48.2761  -27.7389    8.7166 C.2       0 UNK         0.4852 
      3 O         -48.6371  -26.6899    8.1822 O.2       0 UNK        -0.5216 
      4 N         -47.7104  -28.7548    8.0483 N.am      1 UNK        -0.4461 
      5 CA        -47.4540  -28.8160    6.6012 C.3       1 UNK         0.0864 
      6 C6        -48.7512  -28.9363    5.7541 C.3       14 UNK        -0.0898 
      7 S7        -49.5543  -30.5515    6.0221 S.3       14 UNK        -0.2598 
      8 C8        -51.3238  -30.1233    5.9504 C.3       14 UNK         0.0286 
      9 C9        -51.8403  -29.4557    7.2201 C.ar      14 UNK        -0.0844 
     10 C10       -52.5872  -28.2763    7.1355 C.ar      14 UNK        -0.0881 
     11 C11       -53.1263  -27.6911    8.2852 C.ar      14 UNK        -0.0643 
     12 C12       -52.9006  -28.2865    9.5296 C.ar      14 UNK        -0.0930 
     13 C13       -52.1438  -29.4568    9.6311 C.ar      14 UNK        -0.0827 
     14 C14       -51.6259  -30.0420    8.4726 C.ar      14 UNK        -0.1249 
     15 C15       -51.8763  -30.0838   10.9901 C.3       14 UNK         0.0141 
     16 S16       -53.2149  -31.2220   11.4714 S.3       14 UNK        -0.2313 
     17 C17       -53.7961  -30.4541   13.0195 C.3       14 UNK        -0.0915 
     18 CA        -54.8101  -29.2989   12.7697 C.3       13 UNK         0.0968 
     19 C         -56.2960  -29.7418   12.9277 C.2       13 UNK         0.5732 
     20 N         -57.1347  -29.0385   13.6811 N.am      13 UNK        -0.7310 
     21 O         -56.7049  -30.7432   12.3455 O.2       13 UNK        -0.5035 
     22 N         -54.4433  -28.1133   13.5545 N.am      13 UNK        -0.4233 
     23 C         -54.6582  -26.8453   13.1868 C.2       13 UNK         0.4989 
     24 O         -55.1380  -26.5148   12.1011 O.2       13 UNK        -0.4996 
     25 CA        -54.2856  -25.7767   14.2343 C.3       12 UNK         0.0216 
     26 CB        -54.8399  -24.3784   13.8922 C.3       12 UNK        -0.1964 
     27 N         -54.6527  -26.1621   15.6060 N.am      12 UNK        -0.4276 
     28 C         -55.8757  -26.4952   16.0552 C.2       12 UNK         0.5020 
     29 O         -56.8743  -26.5354   15.3354 O.2       12 UNK        -0.5489 
     30 CA        -56.0249  -26.9073   17.5347 C.3       11 UNK         0.0294 
     31 CB        -56.4005  -28.3962   17.6360 C.3       11 UNK        -0.2019 
     32 N         -54.8282  -26.6715   18.3448 N.am      11 UNK        -0.4493 
     33 C         -54.3940  -25.4736   18.7598 C.2       11 UNK         0.4932 
     34 O         -55.0137  -24.4243   18.5861 O.2       11 UNK        -0.5029 
     35 CA        -53.0192  -25.4327   19.4589 C.3       10 UNK         0.0280 
     36 CB        -53.1980  -25.3482   20.9835 C.3       10 UNK        -0.1976 
     37 N         -52.1286  -26.5593   19.1382 N.am      10 UNK        -0.4242 
     38 C         -51.7075  -26.8894   17.9096 C.2       10 UNK         0.5072 
     39 O         -52.0567  -26.2976   16.8815 O.2       10 UNK        -0.5224 
     40 CA        -50.7918  -28.1154   17.8011 C.3       9 UNK         0.0343 
     41 CB        -51.5676  -29.4205   18.0598 C.3       9 UNK        -0.2003 
     42 N         -50.2544  -28.1230   16.4493 N.am      9 UNK        -0.4272 
     43 C         -49.1166  -28.6779   16.0218 C.2       9 UNK         0.4988 
     44 O         -48.3700  -29.3561   16.7280 O.2       9 UNK        -0.5108 
     45 CA        -48.7537  -28.4238   14.5459 C.3       8 UNK         0.0248 
     46 CB        -49.2185  -29.6064   13.6801 C.3       8 UNK        -0.2001 
     47 N         -49.3495  -27.1844   14.0325 N.am      8 UNK        -0.4140 
     48 C         -48.9730  -25.9460   14.3768 C.2       8 UNK         0.5028 
     49 O         -47.9643  -25.7076   15.0436 O.2       8 UNK        -0.5428 
     50 CA        -49.8963  -24.7909   13.9292 C.3       7 UNK         0.0264 
     51 CB        -49.3613  -23.4093   14.3496 C.3       7 UNK        -0.1988 
     52 N         -50.1690  -24.7635   12.4894 N.am      7 UNK        -0.4454 
     53 C         -50.9219  -25.6262   11.7967 C.2       7 UNK         0.5027 
     54 O         -51.4531  -26.6116   12.3113 O.2       7 UNK        -0.5083 
     55 CA        -51.1127  -25.3890   10.2837 C.3       6 UNK         0.0844 
     56 C56       -52.5254  -24.8224    9.9908 C.3       14 UNK        -0.0967 
     57 S57       -52.9538  -24.9194    8.2203 S.3       14 UNK        -0.2604 
     58 C58       -53.9707  -26.4291    8.1764 C.3       14 UNK         0.0134 
     59 N         -50.0276  -24.6538    9.6197 N.am      6 UNK        -0.4116 
     60 C         -49.6805  -23.3675    9.7577 C.2       5 UNK         0.5034 
     61 O         -50.1853  -22.6066   10.5832 O.2       5 UNK        -0.5045 
     62 CA        -48.5542  -22.8436    8.8516 C.3       5 UNK         0.0224 
     63 CB        -47.2105  -22.8869    9.5961 C.3       5 UNK        -0.1978 
     64 N         -48.4297  -23.5717    7.5853 N.am      5 UNK        -0.4737 
     65 C         -49.3333  -23.5372    6.5938 C.2       4 UNK         0.5027 
     66 O         -50.3595  -22.8569    6.6359 O.2       4 UNK        -0.5211 
     67 CA        -49.0171  -24.3820    5.3405 C.3       4 UNK         0.0297 
     68 CB        -49.9250  -24.0481    4.1386 C.3       4 UNK        -0.1993 
     69 N         -47.6019  -24.3199    4.9570 N.am      4 UNK        -0.4486 
     70 C         -46.8746  -23.2183    4.7034 C.2       3 UNK         0.4961 
     71 O         -47.3562  -22.0881    4.6082 O.2       3 UNK        -0.5105 
     72 CA        -45.3478  -23.3988    4.5418 C.3       3 UNK         0.0299 
     73 CB        -44.5601  -22.1900    5.0912 C.3       3 UNK        -0.1972 
     74 N         -44.8219  -24.6494    5.1083 N.am      3 UNK        -0.4305 
     75 C         -44.9083  -25.0691    6.3800 C.2       2 UNK         0.5006 
     76 O         -45.4396  -24.4344    7.2924 O.2       2 UNK        -0.5106 
     77 CA        -44.3698  -26.4814    6.6578 C.3       2 UNK         0.0296 
     78 CB        -43.4006  -26.4766    7.8524 C.3       2 UNK        -0.2002 
     79 N         -45.4452  -27.4446    6.9139 N.am      2 UNK        -0.4032 
     80 C         -46.4982  -27.7003    6.1197 C.2       1 UNK         0.5000 
     81 O         -46.7109  -27.1148    5.0544 O.2       1 UNK        -0.5238 
     82 H82       -47.8121  -28.7126   10.6024 H         1 UNK         0.0889 
     83 H83       -49.4828  -28.1603   10.4494 H         1 UNK         0.0889 
     84 H84       -48.1838  -26.9964   10.7410 H         1 UNK         0.0889 
     85 H85       -47.4518  -29.5877    8.5587 H         1 UNK         0.3028 
     86 H86       -46.8844  -29.7334    6.4426 H         1 UNK         0.0864 
     87 H87       -49.4430  -28.1243    5.9840 H         1 UNK         0.0720 
     88 H88       -48.5372  -28.8664    4.6862 H         1 UNK         0.0720 
     89 H89       -51.8942  -31.0392    5.7907 H         1 UNK         0.0814 
     90 H90       -51.5015  -29.4969    5.0748 H         1 UNK         0.0814 
     91 H91       -52.7668  -27.8186    6.1722 H         1 UNK         0.1469 
     92 H92       -53.3023  -27.8280   10.4221 H         1 UNK         0.1381 
     93 H93       -51.0556  -30.9580    8.5444 H         1 UNK         0.1206 
     94 H94       -51.7531  -29.2942   11.7323 H         1 UNK         0.0813 
     95 H95       -50.9336  -30.6326   10.9742 H         1 UNK         0.0813 
     96 H96       -52.9186  -30.1056   13.5669 H         1 UNK         0.0638 
     97 H97       -54.2246  -31.2348   13.6510 H         1 UNK         0.0638 
     98 H98       -54.7390  -29.0108   11.7210 H         1 UNK         0.0568 
     99 H99       -58.0901  -29.3478   13.7589 H         1 UNK         0.3450 
    100 H100      -56.8497  -28.1821   14.1424 H         1 UNK         0.3450 
    101 H101      -54.0736  -28.2884   14.4760 H         1 UNK         0.2987 
    102 H102      -53.1975  -25.7091   14.2207 H         1 UNK         0.0766 
    103 H103      -54.4726  -24.0383   12.9231 H         1 UNK         0.0798 
    104 H104      -54.5325  -23.6393   14.6320 H         1 UNK         0.0798 
    105 H105      -55.9295  -24.3763   13.8476 H         1 UNK         0.0798 
    106 H106      -53.8753  -26.1822   16.2623 H         1 UNK         0.3198 
    107 H107      -56.8440  -26.3170   17.9514 H         1 UNK         0.0843 
    108 H108      -55.6199  -29.0402   17.2291 H         1 UNK         0.0831 
    109 H109      -57.3165  -28.6081   17.0823 H         1 UNK         0.0831 
    110 H110      -56.5771  -28.6924   18.6702 H         1 UNK         0.0831 
    111 H111      -54.2579  -27.4773   18.5549 H         1 UNK         0.3133 
    112 H112      -52.5192  -24.5215   19.1242 H         1 UNK         0.0566 
    113 H113      -52.2425  -25.2091   21.4897 H         1 UNK         0.0814 
    114 H114      -53.6655  -26.2477   21.3860 H         1 UNK         0.0814 
    115 H115      -53.8312  -24.5026   21.2567 H         1 UNK         0.0814 
    116 H116      -51.8011  -27.1072   19.9215 H         1 UNK         0.3091 
    117 H117      -49.9754  -28.0101   18.5184 H         1 UNK         0.0702 
    118 H118      -50.9216  -30.2920   17.9512 H         1 UNK         0.0785 
    119 H119      -52.4019  -29.5381   17.3668 H         1 UNK         0.0785 
    120 H120      -51.9734  -29.4481   19.0716 H         1 UNK         0.0785 
    121 H121      -50.7765  -27.5299   15.8163 H         1 UNK         0.2998 
    122 H122      -47.6671  -28.3427   14.4739 H         1 UNK         0.0697 
    123 H123      -50.2996  -29.7409   13.7274 H         1 UNK         0.0825 
    124 H124      -48.7611  -30.5378   14.0168 H         1 UNK         0.0825 
    125 H125      -48.9410  -29.4720   12.6361 H         1 UNK         0.0825 
    126 H126      -50.1788  -27.2668   13.4477 H         1 UNK         0.3029 
    127 H127      -50.8466  -24.9414   14.4459 H         1 UNK         0.0897 
    128 H128      -48.4074  -23.1844   13.8709 H         1 UNK         0.0792 
    129 H129      -49.2068  -23.3595   15.4285 H         1 UNK         0.0792 
    130 H130      -50.0626  -22.6159   14.0898 H         1 UNK         0.0792 
    131 H131      -49.8281  -23.9536   11.9828 H         1 UNK         0.3086 
    132 H132      -51.0573  -26.3807    9.8385 H         1 UNK         0.0583 
    133 H133      -53.2875  -25.3543   10.5623 H         1 UNK         0.1020 
    134 H134      -52.5978  -23.7811   10.3087 H         1 UNK         0.1020 
    135 H135      -54.7185  -26.3978    8.9709 H         1 UNK         0.0694 
    136 H136      -54.5297  -26.4439    7.2396 H         1 UNK         0.0694 
    137 H137      -49.5066  -25.2067    8.9415 H         1 UNK         0.2989 
    138 H138      -48.7859  -21.8020    8.6185 H         1 UNK         0.1055 
    139 H139      -46.9065  -23.9106    9.8197 H         1 UNK         0.0806 
    140 H140      -47.2662  -22.3461   10.5420 H         1 UNK         0.0806 
    141 H141      -46.4176  -22.4255    9.0068 H         1 UNK         0.0806 
    142 H142      -47.5880  -24.1245    7.4595 H         1 UNK         0.3061 
    143 H143      -49.2096  -25.4187    5.6220 H         1 UNK         0.0734 
    144 H144      -49.8167  -23.0090    3.8266 H         1 UNK         0.0832 
    145 H145      -49.6981  -24.6825    3.2819 H         1 UNK         0.0832 
    146 H146      -50.9750  -24.2052    4.3885 H         1 UNK         0.0832 
    147 H147      -47.1147  -25.2128    4.9874 H         1 UNK         0.3156 
    148 H148      -45.1648  -23.4528    3.4677 H         1 UNK         0.0589 
    149 H149      -43.4861  -22.3229    4.9615 H         1 UNK         0.0808 
    150 H150      -44.8349  -21.2713    4.5714 H         1 UNK         0.0808 
    151 H151      -44.7533  -22.0321    6.1529 H         1 UNK         0.0808 
    152 H152      -44.4122  -25.2830    4.4351 H         1 UNK         0.3098 
    153 H153      -43.8207  -26.8290    5.7805 H         1 UNK         0.0720 
    154 H154      -42.5867  -25.7684    7.6910 H         1 UNK         0.0791 
    155 H155      -42.9495  -27.4574    8.0038 H         1 UNK         0.0791 
    156 H156      -43.9018  -26.1901    8.7783 H         1 UNK         0.0791 
    157 H157      -45.3827  -27.9570    7.7811 H         1 UNK         0.3028 
@<TRIPOS>BOND
     1    1    2 1    
     2    1   82 1    
     3    1   83 1    
     4    1   84 1    
     5    2    3 2    
     6    2    4 am   BACKBONE|DICT|INTERRES
     7    4    5 1    
     8    4   85 1    
     9    5    6 1    
    10    5   80 1    
    11    5   86 1    
    12    6    7 1    
    13    6   87 1    
    14    6   88 1    
    15    7    8 1    
    16    8    9 1    
    17    8   89 1    
    18    8   90 1    
    19    9   10 ar   
    20    9   14 ar   
    21   10   11 ar   
    22   10   91 1    
    23   11   12 ar   
    24   11   58 1    
    25   12   13 ar   
    26   12   92 1    
    27   13   14 ar   
    28   13   15 1    
    29   14   93 1    
    30   15   16 1    
    31   15   94 1    
    32   15   95 1    
    33   16   17 1    
    34   17   18 1    
    35   17   96 1    
    36   17   97 1    
    37   18   19 1    
    38   18   22 1    
    39   18   98 1    
    40   19   20 am   BACKBONE|DICT|INTERRES
    41   19   21 2    
    42   20   99 1    
    43   20  100 1    
    44   22   23 am   BACKBONE|DICT|INTERRES
    45   22  101 1    
    46   23   24 2    
    47   23   25 1    
    48   25   26 1    
    49   25   27 1    
    50   25  102 1    
    51   26  103 1    
    52   26  104 1    
    53   26  105 1    
    54   27   28 am   BACKBONE|DICT|INTERRES
    55   27  106 1    
    56   28   29 2    
    57   28   30 1    
    58   30   31 1    
    59   30   32 1    
    60   30  107 1    
    61   31  108 1    
    62   31  109 1    
    63   31  110 1    
    64   32   33 am   BACKBONE|DICT|INTERRES
    65   32  111 1    
    66   33   34 2    
    67   33   35 1    
    68   35   36 1    
    69   35   37 1    
    70   35  112 1    
    71   36  113 1    
    72   36  114 1    
    73   36  115 1    
    74   37   38 am   BACKBONE|DICT|INTERRES
    75   37  116 1    
    76   38   39 2    
    77   38   40 1    
    78   40   41 1    
    79   40   42 1    
    80   40  117 1    
    81   41  118 1    
    82   41  119 1    
    83   41  120 1    
    84   42   43 am   BACKBONE|DICT|INTERRES
    85   42  121 1    
    86   43   44 2    
    87   43   45 1    
    88   45   46 1    
    89   45   47 1    
    90   45  122 1    
    91   46  123 1    
    92   46  124 1    
    93   46  125 1    
    94   47   48 am   BACKBONE|DICT|INTERRES
    95   47  126 1    
    96   48   49 2    
    97   48   50 1    
    98   50   51 1    
    99   50   52 1    
   100   50  127 1    
   101   51  128 1    
   102   51  129 1    
   103   51  130 1    
   104   52   53 am   BACKBONE|DICT|INTERRES
   105   52  131 1    
   106   53   54 2    
   107   53   55 1    
   108   55   56 1    
   109   55   59 1    
   110   55  132 1    
   111   56   57 1    
   112   56  133 1    
   113   56  134 1    
   114   57   58 1    
   115   58  135 1    
   116   58  136 1    
   117   59   60 am   BACKBONE|DICT|INTERRES
   118   59  137 1    
   119   60   61 2    
   120   60   62 1    
   121   62   63 1    
   122   62   64 1    
   123   62  138 1    
   124   63  139 1    
   125   63  140 1    
   126   63  141 1    
   127   64   65 am   BACKBONE|DICT|INTERRES
   128   64  142 1    
   129   65   66 2    
   130   65   67 1    
   131   67   68 1    
   132   67   69 1    
   133   67  143 1    
   134   68  144 1    
   135   68  145 1    
   136   68  146 1    
   137   69   70 am   BACKBONE|DICT|INTERRES
   138   69  147 1    
   139   70   71 2    
   140   70   72 1    
   141   72   73 1    
   142   72   74 1    
   143   72  148 1    
   144   73  149 1    
   145   73  150 1    
   146   73  151 1    
   147   74   75 am   BACKBONE|DICT|INTERRES
   148   74  152 1    
   149   75   76 2    
   150   75   77 1    
   151   77   78 1    
   152   77   79 1    
   153   77  153 1    
   154   78  154 1    
   155   78  155 1    
   156   78  156 1    
   157   79   80 am   BACKBONE|DICT|INTERRES
   158   79  157 1    
   159   80   81 2    
@<TRIPOS>SUBSTRUCTURE
     1 UNK         1 GROUP             0       ****    0 ROOT    
