@<TRIPOS>MOLECULE
3R207
157   159    1
SMALL
USER_CHARGES


@<TRIPOS>ATOM
      1 CA        -45.2082  -26.1717    5.4132 C.3       0 UNK        -0.1975 
      2 C         -46.6304  -26.6819    5.5847 C.2       0 UNK         0.4852 
      3 O         -47.2916  -26.2921    6.5507 O.2       0 UNK        -0.5216 
      4 N         -47.0884  -27.5306    4.6498 N.am      1 UNK        -0.4461 
      5 CA        -48.4027  -28.1885    4.5516 C.3       1 UNK         0.0864 
      6 C6        -48.4695  -29.5910    5.2259 C.3       14 UNK        -0.0898 
      7 S7        -47.9828  -29.6692    6.9850 S.3       14 UNK        -0.2598 
      8 C8        -48.8466  -31.1731    7.5454 C.3       14 UNK         0.0286 
      9 C9        -49.8773  -30.8943    8.6347 C.ar      14 UNK        -0.0844 
     10 C10       -49.7324  -31.4751    9.9004 C.ar      14 UNK        -0.0881 
     11 C11       -50.7220  -31.3130   10.8751 C.ar      14 UNK        -0.0643 
     12 C12       -51.8488  -30.5382   10.5873 C.ar      14 UNK        -0.0930 
     13 C13       -51.9981  -29.9346    9.3359 C.ar      14 UNK        -0.0827 
     14 C14       -51.0118  -30.1214    8.3608 C.ar      14 UNK        -0.1249 
     15 C15       -53.2472  -29.1198    9.0326 C.3       14 UNK         0.0141 
     16 S16       -53.2376  -27.5235    9.9069 S.3       14 UNK        -0.2313 
     17 C17       -54.7548  -26.7510    9.2484 C.3       14 UNK        -0.0915 
     18 CA        -55.9415  -26.7419   10.2483 C.3       13 UNK         0.0968 
     19 C         -56.5679  -28.1566   10.4358 C.2       13 UNK         0.5732 
     20 N         -56.5837  -28.7385   11.6297 N.am      13 UNK        -0.7310 
     21 O         -57.0621  -28.7358    9.4714 O.2       13 UNK        -0.5035 
     22 N         -55.5889  -26.0464   11.4938 N.am      13 UNK        -0.4233 
     23 C         -56.4687  -25.5262   12.3582 C.2       13 UNK         0.4989 
     24 O         -57.6803  -25.4628   12.1404 O.2       13 UNK        -0.4996 
     25 CA        -55.8975  -24.9938   13.6899 C.3       12 UNK         0.0216 
     26 CB        -56.9575  -24.9394   14.8102 C.3       12 UNK        -0.1964 
     27 N         -54.7022  -25.7088   14.1610 N.am      12 UNK        -0.4276 
     28 C         -54.5839  -27.0248   14.4031 C.2       12 UNK         0.5020 
     29 O         -55.4760  -27.8465   14.1881 O.2       12 UNK        -0.5489 
     30 CA        -53.2395  -27.5167   14.9642 C.3       11 UNK         0.0294 
     31 CB        -52.2761  -27.8612   13.8176 C.3       11 UNK        -0.2019 
     32 N         -52.6005  -26.5662   15.8797 N.am      11 UNK        -0.4493 
     33 C         -53.0786  -26.2289   17.0877 C.2       11 UNK         0.4932 
     34 O         -54.1301  -26.6654   17.5565 O.2       11 UNK        -0.5029 
     35 CA        -52.2443  -25.2439   17.9205 C.3       10 UNK         0.0280 
     36 CB        -51.1037  -25.9811   18.6423 C.3       10 UNK        -0.1976 
     37 N         -51.6840  -24.1883   17.0780 N.am      10 UNK        -0.4242 
     38 C         -52.2151  -22.9679   16.9220 C.2       10 UNK         0.5072 
     39 O         -53.1992  -22.5629   17.5427 O.2       10 UNK        -0.5224 
     40 CA        -51.5436  -22.0295   15.8988 C.3       9 UNK         0.0343 
     41 CB        -50.5258  -21.1142   16.5984 C.3       9 UNK        -0.2003 
     42 N         -50.8813  -22.7268   14.7926 N.am      9 UNK        -0.4272 
     43 C         -51.5071  -23.4935   13.8889 C.2       9 UNK         0.4988 
     44 O         -52.7254  -23.6668   13.8616 O.2       9 UNK        -0.5108 
     45 CA        -50.6282  -24.2407   12.8723 C.3       8 UNK         0.0248 
     46 CB        -50.3987  -23.3741   11.6239 C.3       8 UNK        -0.2001 
     47 N         -49.3358  -24.7335   13.3755 N.am      8 UNK        -0.4140 
     48 C         -49.1127  -25.4076   14.5135 C.2       8 UNK         0.5028 
     49 O         -49.9848  -25.6506   15.3483 O.2       8 UNK        -0.5428 
     50 CA        -47.6739  -25.9009   14.7373 C.3       7 UNK         0.0264 
     51 CB        -47.2883  -25.9598   16.2313 C.3       7 UNK        -0.1988 
     52 N         -47.4583  -27.1807   14.0530 N.am      7 UNK        -0.4454 
     53 C         -47.9862  -28.3850   14.3353 C.2       7 UNK         0.5027 
     54 O         -48.6126  -28.6390   15.3643 O.2       7 UNK        -0.5083 
     55 CA        -47.7971  -29.4772   13.2514 C.3       6 UNK         0.0844 
     56 C56       -48.4225  -30.8543   13.6006 C.3       14 UNK        -0.0967 
     57 S57       -50.2527  -30.9014   13.5889 S.3       14 UNK        -0.2604 
     58 C58       -50.6225  -32.0328   12.2128 C.3       14 UNK         0.0134 
     59 N         -48.2888  -28.9743   11.9692 N.am      6 UNK        -0.4116 
     60 C         -47.5828  -28.2320   11.1105 C.2       5 UNK         0.5034 
     61 O         -46.3615  -28.0829   11.1935 O.2       5 UNK        -0.5045 
     62 CA        -48.3885  -27.4892   10.0274 C.3       5 UNK         0.0224 
     63 CB        -49.7946  -27.0840   10.5110 C.3       5 UNK        -0.1978 
     64 N         -47.6897  -26.3146    9.4937 N.am      5 UNK        -0.4737 
     65 C         -47.2487  -25.2439   10.1775 C.2       4 UNK         0.5027 
     66 O         -47.3697  -25.0910   11.3942 O.2       4 UNK        -0.5211 
     67 CA        -46.5984  -24.1308    9.3461 C.3       4 UNK         0.0297 
     68 CB        -45.1404  -24.4846    9.0127 C.3       4 UNK        -0.1993 
     69 N         -47.3533  -23.9395    8.1102 N.am      4 UNK        -0.4486 
     70 C         -48.3504  -23.0604    7.9526 C.2       3 UNK         0.4961 
     71 O         -48.6371  -22.1825    8.7662 O.2       3 UNK        -0.5105 
     72 CA        -49.1937  -23.2220    6.6833 C.3       3 UNK         0.0299 
     73 CB        -48.3841  -22.8512    5.4287 C.3       3 UNK        -0.1972 
     74 N         -49.6593  -24.6046    6.5740 N.am      3 UNK        -0.4305 
     75 C         -50.8998  -25.0330    6.8408 C.2       2 UNK         0.5006 
     76 O         -51.8126  -24.2859    7.1961 O.2       2 UNK        -0.5106 
     77 CA        -51.1830  -26.5466    6.7073 C.3       2 UNK         0.0296 
     78 CB        -52.5123  -26.8181    5.9718 C.3       2 UNK        -0.2002 
     79 N         -50.0907  -27.3338    6.1172 N.am      2 UNK        -0.4032 
     80 C         -49.5941  -27.2612    4.8735 C.2       1 UNK         0.5000 
     81 O         -50.0086  -26.4933    4.0035 O.2       1 UNK        -0.5238 
     82 H82       -44.5741  -26.5631    6.2079 H         1 UNK         0.0889 
     83 H83       -45.1897  -25.0835    5.4661 H         1 UNK         0.0889 
     84 H84       -44.7789  -26.4710    4.4574 H         1 UNK         0.0889 
     85 H85       -46.4639  -27.7610    3.8898 H         1 UNK         0.3028 
     86 H86       -48.5141  -28.3850    3.4836 H         1 UNK         0.0864 
     87 H87       -49.4709  -30.0094    5.1068 H         1 UNK         0.0720 
     88 H88       -47.8089  -30.2722    4.6874 H         1 UNK         0.0720 
     89 H89       -49.3410  -31.6697    6.7098 H         1 UNK         0.0814 
     90 H90       -48.0946  -31.8782    7.9025 H         1 UNK         0.0814 
     91 H91       -48.8689  -32.0899   10.1151 H         1 UNK         0.1469 
     92 H92       -52.6203  -30.4158   11.3354 H         1 UNK         0.1381 
     93 H93       -51.1378  -29.6864    7.3794 H         1 UNK         0.1206 
     94 H94       -54.1307  -29.6881    9.3265 H         1 UNK         0.0813 
     95 H95       -53.3362  -28.9458    7.9601 H         1 UNK         0.0813 
     96 H96       -55.0412  -27.2302    8.3106 H         1 UNK         0.0638 
     97 H97       -54.5026  -25.7239    8.9802 H         1 UNK         0.0638 
     98 H98       -56.7298  -26.1519    9.7771 H         1 UNK         0.0568 
     99 H99       -57.0012  -29.6500   11.7215 H         1 UNK         0.3450 
    100 H100      -56.1854  -28.2867   12.4481 H         1 UNK         0.3450 
    101 H101      -54.6137  -26.0766   11.7500 H         1 UNK         0.2987 
    102 H102      -55.5764  -23.9706   13.4894 H         1 UNK         0.0766 
    103 H103      -57.7943  -24.2978   14.5314 H         1 UNK         0.0798 
    104 H104      -56.5375  -24.5386   15.7329 H         1 UNK         0.0798 
    105 H105      -57.3624  -25.9282   15.0289 H         1 UNK         0.0798 
    106 H106      -53.8867  -25.1161   14.3035 H         1 UNK         0.3198 
    107 H107      -53.4321  -28.4315   15.5288 H         1 UNK         0.0843 
    108 H108      -52.1406  -27.0263   13.1338 H         1 UNK         0.0831 
    109 H109      -52.6584  -28.6965   13.2297 H         1 UNK         0.0831 
    110 H110      -51.2947  -28.1495   14.1945 H         1 UNK         0.0831 
    111 H111      -51.6844  -26.2106   15.6082 H         1 UNK         0.3133 
    112 H112      -52.8956  -24.8093   18.6818 H         1 UNK         0.0566 
    113 H113      -50.5262  -25.3002   19.2676 H         1 UNK         0.0814 
    114 H114      -50.4159  -26.4545   17.9401 H         1 UNK         0.0814 
    115 H115      -51.4963  -26.7645   19.2918 H         1 UNK         0.0814 
    116 H116      -50.9069  -24.4654   16.4830 H         1 UNK         0.3091 
    117 H117      -52.3285  -21.4029   15.4698 H         1 UNK         0.0702 
    118 H118      -50.1085  -20.3818   15.9070 H         1 UNK         0.0785 
    119 H119      -49.6995  -21.6827   17.0273 H         1 UNK         0.0785 
    120 H120      -50.9954  -20.5583   17.4113 H         1 UNK         0.0785 
    121 H121      -49.8759  -22.6524   14.7410 H         1 UNK         0.2998 
    122 H122      -51.1986  -25.1124   12.5572 H         1 UNK         0.0697 
    123 H123      -49.7487  -22.5240   11.8340 H         1 UNK         0.0825 
    124 H124      -51.3402  -22.9794   11.2390 H         1 UNK         0.0825 
    125 H125      -49.9443  -23.9493   10.8175 H         1 UNK         0.0825 
    126 H126      -48.5585  -24.6654   12.7189 H         1 UNK         0.3029 
    127 H127      -47.0040  -25.1826   14.2613 H         1 UNK         0.0897 
    128 H128      -47.9458  -26.6125   16.8058 H         1 UNK         0.0792 
    129 H129      -47.3515  -24.9694   16.6833 H         1 UNK         0.0792 
    130 H130      -46.2660  -26.3135   16.3633 H         1 UNK         0.0792 
    131 H131      -46.9643  -27.1023   13.1710 H         1 UNK         0.3086 
    132 H132      -46.7196  -29.6400   13.1790 H         1 UNK         0.0583 
    133 H133      -48.0412  -31.5999   12.9019 H         1 UNK         0.1020 
    134 H134      -48.0794  -31.1850   14.5826 H         1 UNK         0.1020 
    135 H135      -49.8856  -32.8364   12.1761 H         1 UNK         0.0694 
    136 H136      -51.5778  -32.5178   12.4187 H         1 UNK         0.0694 
    137 H137      -49.2849  -29.0688   11.8290 H         1 UNK         0.2989 
    138 H138      -48.5118  -28.1831    9.2016 H         1 UNK         0.1055 
    139 H139      -50.2888  -26.4173    9.8057 H         1 UNK         0.0806 
    140 H140      -50.4349  -27.9560   10.6334 H         1 UNK         0.0806 
    141 H141      -49.7540  -26.5773   11.4715 H         1 UNK         0.0806 
    142 H142      -47.4915  -26.3526    8.4986 H         1 UNK         0.3061 
    143 H143      -46.6037  -23.2121    9.9368 H         1 UNK         0.0734 
    144 H144      -45.0657  -25.4150    8.4489 H         1 UNK         0.0832 
    145 H145      -44.6658  -23.6976    8.4266 H         1 UNK         0.0832 
    146 H146      -44.5547  -24.6096    9.9244 H         1 UNK         0.0832 
    147 H147      -47.2308  -24.6572    7.4016 H         1 UNK         0.3156 
    148 H148      -50.0424  -22.5381    6.7505 H         1 UNK         0.0589 
    149 H149      -47.5225  -23.5041    5.2855 H         1 UNK         0.0808 
    150 H150      -48.0124  -21.8277    5.4933 H         1 UNK         0.0808 
    151 H151      -49.0005  -22.9159    4.5318 H         1 UNK         0.0808 
    152 H152      -48.9599  -25.3019    6.3407 H         1 UNK         0.3098 
    153 H153      -51.2921  -26.9202    7.7247 H         1 UNK         0.0720 
    154 H154      -52.7015  -27.8862    5.8692 H         1 UNK         0.0791 
    155 H155      -52.5189  -26.3801    4.9734 H         1 UNK         0.0791 
    156 H156      -53.3542  -26.3905    6.5171 H         1 UNK         0.0791 
    157 H157      -49.6148  -27.9683    6.7471 H         1 UNK         0.3028 
@<TRIPOS>BOND
     1    1    2 1    
     2    1   82 1    
     3    1   83 1    
     4    1   84 1    
     5    2    3 2    
     6    2    4 am   BACKBONE|DICT|INTERRES
     7    4    5 1    
     8    4   85 1    
     9    5    6 1    
    10    5   80 1    
    11    5   86 1    
    12    6    7 1    
    13    6   87 1    
    14    6   88 1    
    15    7    8 1    
    16    8    9 1    
    17    8   89 1    
    18    8   90 1    
    19    9   10 ar   
    20    9   14 ar   
    21   10   11 ar   
    22   10   91 1    
    23   11   12 ar   
    24   11   58 1    
    25   12   13 ar   
    26   12   92 1    
    27   13   14 ar   
    28   13   15 1    
    29   14   93 1    
    30   15   16 1    
    31   15   94 1    
    32   15   95 1    
    33   16   17 1    
    34   17   18 1    
    35   17   96 1    
    36   17   97 1    
    37   18   19 1    
    38   18   22 1    
    39   18   98 1    
    40   19   20 am   BACKBONE|DICT|INTERRES
    41   19   21 2    
    42   20   99 1    
    43   20  100 1    
    44   22   23 am   BACKBONE|DICT|INTERRES
    45   22  101 1    
    46   23   24 2    
    47   23   25 1    
    48   25   26 1    
    49   25   27 1    
    50   25  102 1    
    51   26  103 1    
    52   26  104 1    
    53   26  105 1    
    54   27   28 am   BACKBONE|DICT|INTERRES
    55   27  106 1    
    56   28   29 2    
    57   28   30 1    
    58   30   31 1    
    59   30   32 1    
    60   30  107 1    
    61   31  108 1    
    62   31  109 1    
    63   31  110 1    
    64   32   33 am   BACKBONE|DICT|INTERRES
    65   32  111 1    
    66   33   34 2    
    67   33   35 1    
    68   35   36 1    
    69   35   37 1    
    70   35  112 1    
    71   36  113 1    
    72   36  114 1    
    73   36  115 1    
    74   37   38 am   BACKBONE|DICT|INTERRES
    75   37  116 1    
    76   38   39 2    
    77   38   40 1    
    78   40   41 1    
    79   40   42 1    
    80   40  117 1    
    81   41  118 1    
    82   41  119 1    
    83   41  120 1    
    84   42   43 am   BACKBONE|DICT|INTERRES
    85   42  121 1    
    86   43   44 2    
    87   43   45 1    
    88   45   46 1    
    89   45   47 1    
    90   45  122 1    
    91   46  123 1    
    92   46  124 1    
    93   46  125 1    
    94   47   48 am   BACKBONE|DICT|INTERRES
    95   47  126 1    
    96   48   49 2    
    97   48   50 1    
    98   50   51 1    
    99   50   52 1    
   100   50  127 1    
   101   51  128 1    
   102   51  129 1    
   103   51  130 1    
   104   52   53 am   BACKBONE|DICT|INTERRES
   105   52  131 1    
   106   53   54 2    
   107   53   55 1    
   108   55   56 1    
   109   55   59 1    
   110   55  132 1    
   111   56   57 1    
   112   56  133 1    
   113   56  134 1    
   114   57   58 1    
   115   58  135 1    
   116   58  136 1    
   117   59   60 am   BACKBONE|DICT|INTERRES
   118   59  137 1    
   119   60   61 2    
   120   60   62 1    
   121   62   63 1    
   122   62   64 1    
   123   62  138 1    
   124   63  139 1    
   125   63  140 1    
   126   63  141 1    
   127   64   65 am   BACKBONE|DICT|INTERRES
   128   64  142 1    
   129   65   66 2    
   130   65   67 1    
   131   67   68 1    
   132   67   69 1    
   133   67  143 1    
   134   68  144 1    
   135   68  145 1    
   136   68  146 1    
   137   69   70 am   BACKBONE|DICT|INTERRES
   138   69  147 1    
   139   70   71 2    
   140   70   72 1    
   141   72   73 1    
   142   72   74 1    
   143   72  148 1    
   144   73  149 1    
   145   73  150 1    
   146   73  151 1    
   147   74   75 am   BACKBONE|DICT|INTERRES
   148   74  152 1    
   149   75   76 2    
   150   75   77 1    
   151   77   78 1    
   152   77   79 1    
   153   77  153 1    
   154   78  154 1    
   155   78  155 1    
   156   78  156 1    
   157   79   80 am   BACKBONE|DICT|INTERRES
   158   79  157 1    
   159   80   81 2    
@<TRIPOS>SUBSTRUCTURE
     1 UNK         1 GROUP             0       ****    0 ROOT    
