@<TRIPOS>MOLECULE
3R207
157   159    1
SMALL
USER_CHARGES


@<TRIPOS>ATOM
      1 CA        -49.4115  -32.2775    9.6196 C.3       0 UNK        -0.1975 
      2 C         -49.2328  -31.3349    8.4391 C.2       0 UNK         0.4852 
      3 O         -48.7039  -31.7453    7.4045 O.2       0 UNK        -0.5216 
      4 N         -49.6791  -30.0799    8.5840 N.am      1 UNK        -0.4461 
      5 CA        -49.5405  -29.0185    7.5817 C.3       1 UNK         0.0864 
      6 C6        -50.3729  -27.7677    7.9542 C.3       14 UNK        -0.0898 
      7 S7        -50.7120  -26.7169    6.4980 S.3       14 UNK        -0.2598 
      8 C8        -52.4502  -27.1124    6.1290 C.3       14 UNK         0.0286 
      9 C9        -53.4021  -26.3674    7.0521 C.ar      14 UNK        -0.0844 
     10 C10       -53.7266  -25.0319    6.7960 C.ar      14 UNK        -0.0881 
     11 C11       -54.5891  -24.3328    7.6465 C.ar      14 UNK        -0.0643 
     12 C12       -55.1297  -24.9831    8.7611 C.ar      14 UNK        -0.0930 
     13 C13       -54.8206  -26.3228    9.0213 C.ar      14 UNK        -0.0827 
     14 C14       -53.9641  -27.0109    8.1572 C.ar      14 UNK        -0.1249 
     15 C15       -55.4221  -27.0316   10.2265 C.3       14 UNK         0.0141 
     16 S16       -54.1400  -27.5693   11.4010 S.3       14 UNK        -0.2313 
     17 C17       -54.2298  -29.3825   11.2340 C.3       14 UNK        -0.0915 
     18 CA        -53.3785  -30.1667   12.2740 C.3       13 UNK         0.0968 
     19 C         -51.8501  -30.1829   12.0040 C.2       13 UNK         0.5732 
     20 N         -51.0251  -30.4869   12.9999 N.am      13 UNK        -0.7310 
     21 O         -51.3992  -29.9421   10.8869 O.2       13 UNK        -0.5035 
     22 N         -53.6987  -29.8132   13.6650 N.am      13 UNK        -0.4233 
     23 C         -54.6776  -30.3667   14.3889 C.2       13 UNK         0.4989 
     24 O         -55.4435  -31.2251   13.9457 O.2       13 UNK        -0.4996 
     25 CA        -54.8496  -29.8806   15.8445 C.3       12 UNK         0.0216 
     26 CB        -55.5253  -30.9360   16.7463 C.3       12 UNK        -0.1964 
     27 N         -53.6212  -29.3800   16.4760 N.am      12 UNK        -0.4276 
     28 C         -52.4729  -30.0450   16.6891 C.2       12 UNK         0.5020 
     29 O         -52.2872  -31.2108   16.3371 O.2       12 UNK        -0.5489 
     30 CA        -51.3307  -29.2808   17.3910 C.3       11 UNK         0.0294 
     31 CB        -49.9625  -29.6085   16.7644 C.3       11 UNK        -0.2019 
     32 N         -51.5396  -27.8344   17.3184 N.am      11 UNK        -0.4493 
     33 C         -51.8481  -27.0268   18.3426 C.2       11 UNK         0.4932 
     34 O         -51.9060  -27.3990   19.5144 O.2       11 UNK        -0.5029 
     35 CA        -52.1766  -25.5561   18.0062 C.3       10 UNK         0.0280 
     36 CB        -50.9535  -24.6631   18.2664 C.3       10 UNK        -0.1976 
     37 N         -52.6343  -25.3539   16.6267 N.am      10 UNK        -0.4242 
     38 C         -53.7517  -25.8874   16.1051 C.2       10 UNK         0.5072 
     39 O         -54.5731  -26.5223   16.7667 O.2       10 UNK        -0.5224 
     40 CA        -53.9448  -25.7889   14.5802 C.3       9 UNK         0.0343 
     41 CB        -54.8672  -24.6151   14.2221 C.3       9 UNK        -0.2003 
     42 N         -52.6858  -25.6665   13.8389 N.am      9 UNK        -0.4272 
     43 C         -51.6783  -26.5549   13.8771 C.2       9 UNK         0.4988 
     44 O         -51.7724  -27.6431   14.4453 O.2       9 UNK        -0.5108 
     45 CA        -50.3268  -26.1608   13.2471 C.3       8 UNK         0.0248 
     46 CB        -50.0322  -27.0291   12.0166 C.3       8 UNK        -0.2001 
     47 N         -50.2262  -24.7460   12.8779 N.am      8 UNK        -0.4140 
     48 C         -50.3006  -23.7125   13.7339 C.2       8 UNK         0.5028 
     49 O         -50.3736  -23.8500   14.9564 O.2       8 UNK        -0.5428 
     50 CA        -50.4000  -22.2951   13.1356 C.3       7 UNK         0.0264 
     51 CB        -49.0693  -21.5417   13.2840 C.3       7 UNK        -0.1988 
     52 N         -50.8222  -22.2826   11.7304 N.am      7 UNK        -0.4454 
     53 C         -52.0193  -22.7034   11.2883 C.2       7 UNK         0.5027 
     54 O         -52.9276  -23.0518   12.0431 O.2       7 UNK        -0.5083 
     55 CA        -52.2296  -22.8086    9.7613 C.3       6 UNK         0.0844 
     56 C56       -53.2046  -21.7130    9.2643 C.3       14 UNK        -0.0967 
     57 S57       -53.4999  -21.7751    7.4632 S.3       14 UNK        -0.2604 
     58 C58       -54.9440  -22.8812    7.3502 C.3       14 UNK         0.0134 
     59 N         -50.9771  -22.8463    8.9937 N.am      6 UNK        -0.4116 
     60 C         -50.0756  -23.8352    9.0588 C.2       5 UNK         0.5034 
     61 O         -50.1963  -24.7968    9.8186 O.2       5 UNK        -0.5045 
     62 CA        -48.8370  -23.7277    8.1421 C.3       5 UNK         0.0224 
     63 CB        -48.4453  -22.2713    7.8045 C.3       5 UNK        -0.1978 
     64 N         -47.6705  -24.4513    8.6651 N.am      5 UNK        -0.4737 
     65 C         -47.0797  -24.2836    9.8602 C.2       4 UNK         0.5027 
     66 O         -47.4399  -23.4551   10.6965 O.2       4 UNK        -0.5211 
     67 CA        -45.8684  -25.1796   10.1816 C.3       4 UNK         0.0297 
     68 CB        -46.2921  -26.3760   11.0472 C.3       4 UNK        -0.1993 
     69 N         -45.1795  -25.6666    8.9843 N.am      4 UNK        -0.4486 
     70 C         -44.4275  -24.8973    8.1839 C.2       3 UNK         0.4961 
     71 O         -44.1635  -23.7185    8.4241 O.2       3 UNK        -0.5105 
     72 CA        -43.8732  -25.5325    6.8942 C.3       3 UNK         0.0299 
     73 CB        -42.3782  -25.8539    7.0566 C.3       3 UNK        -0.1972 
     74 N         -44.5733  -26.7401    6.4421 N.am      3 UNK        -0.4305 
     75 C         -45.8605  -26.8134    6.0747 C.2       2 UNK         0.5006 
     76 O         -46.6416  -25.8613    6.1321 O.2       2 UNK        -0.5106 
     77 CA        -46.3640  -28.1709    5.5434 C.3       2 UNK         0.0296 
     78 CB        -45.3892  -29.3501    5.7755 C.3       2 UNK        -0.2002 
     79 N         -47.6989  -28.5009    6.0520 N.am      2 UNK        -0.4032 
     80 C         -48.0570  -28.6627    7.3347 C.2       1 UNK         0.5000 
     81 O         -47.2869  -28.5367    8.2921 O.2       1 UNK        -0.5238 
     82 H82       -49.3675  -31.7395   10.5660 H         1 UNK         0.0889 
     83 H83       -48.6256  -33.0324    9.6287 H         1 UNK         0.0889 
     84 H84       -50.3739  -32.7844    9.5550 H         1 UNK         0.0889 
     85 H85       -50.1523  -29.8263    9.4485 H         1 UNK         0.3028 
     86 H86       -49.9506  -29.4327    6.6578 H         1 UNK         0.0864 
     87 H87       -49.8646  -27.1727    8.7150 H         1 UNK         0.0720 
     88 H88       -51.3210  -28.0639    8.4036 H         1 UNK         0.0720 
     89 H89       -52.6063  -28.1905    6.1939 H         1 UNK         0.0814 
     90 H90       -52.6607  -26.8377    5.0943 H         1 UNK         0.0814 
     91 H91       -53.2980  -24.5300    5.9392 H         1 UNK         0.1469 
     92 H92       -55.7940  -24.4463    9.4244 H         1 UNK         0.1381 
     93 H93       -53.7244  -28.0459    8.3572 H         1 UNK         0.1206 
     94 H94       -56.1137  -26.3739   10.7549 H         1 UNK         0.0813 
     95 H95       -56.0127  -27.8826    9.8851 H         1 UNK         0.0813 
     96 H96       -53.9514  -29.6591   10.2159 H         1 UNK         0.0638 
     97 H97       -55.2748  -29.6755   11.3441 H         1 UNK         0.0638 
     98 H98       -53.6419  -31.2168   12.1365 H         1 UNK         0.0568 
     99 H99       -50.0337  -30.5048   12.8309 H         1 UNK         0.3450 
    100 H100      -51.3863  -30.7134   13.9140 H         1 UNK         0.3450 
    101 H101      -53.0899  -29.1141   14.0806 H         1 UNK         0.2987 
    102 H102      -55.5224  -29.0238   15.7867 H         1 UNK         0.0766 
    103 H103      -56.5107  -31.2078   16.3657 H         1 UNK         0.0798 
    104 H104      -54.9358  -31.8515   16.8066 H         1 UNK         0.0798 
    105 H105      -55.6661  -30.5601   17.7597 H         1 UNK         0.0798 
    106 H106      -53.6737  -28.4169   16.7901 H         1 UNK         0.3198 
    107 H107      -51.3202  -29.6133   18.4309 H         1 UNK         0.0843 
    108 H108      -49.7360  -30.6724   16.8445 H         1 UNK         0.0831 
    109 H109      -49.1586  -29.0704   17.2666 H         1 UNK         0.0831 
    110 H110      -49.9312  -29.3457   15.7062 H         1 UNK         0.0831 
    111 H111      -51.5423  -27.4579   16.3747 H         1 UNK         0.3133 
    112 H112      -52.9812  -25.2388   18.6726 H         1 UNK         0.0566 
    113 H113      -51.1870  -23.6110   18.1019 H         1 UNK         0.0814 
    114 H114      -50.6087  -24.7612   19.2967 H         1 UNK         0.0814 
    115 H115      -50.1179  -24.9250   17.6156 H         1 UNK         0.0814 
    116 H116      -52.0022  -24.8518   16.0113 H         1 UNK         0.3091 
    117 H117      -54.4276  -26.7132   14.2581 H         1 UNK         0.0702 
    118 H118      -55.0868  -24.5993   13.1540 H         1 UNK         0.0785 
    119 H119      -54.4201  -23.6557   14.4858 H         1 UNK         0.0785 
    120 H120      -55.8201  -24.6903   14.7477 H         1 UNK         0.0785 
    121 H121      -52.5592  -24.8107   13.3115 H         1 UNK         0.2998 
    122 H122      -49.5535  -26.3539   13.9930 H         1 UNK         0.0697 
    123 H123      -49.8480  -28.0611   12.3100 H         1 UNK         0.0825 
    124 H124      -49.1471  -26.6872   11.4835 H         1 UNK         0.0825 
    125 H125      -50.8647  -27.0285   11.3108 H         1 UNK         0.0825 
    126 H126      -50.1737  -24.5534   11.8821 H         1 UNK         0.3029 
    127 H127      -51.1578  -21.7596   13.7118 H         1 UNK         0.0897 
    128 H128      -49.1498  -20.5157   12.9246 H         1 UNK         0.0792 
    129 H129      -48.7647  -21.4943   14.3305 H         1 UNK         0.0792 
    130 H130      -48.2640  -22.0293   12.7348 H         1 UNK         0.0792 
    131 H131      -50.1165  -22.0416   11.0489 H         1 UNK         0.3086 
    132 H132      -52.7101  -23.7752    9.6031 H         1 UNK         0.0583 
    133 H133      -54.1622  -21.7897    9.7837 H         1 UNK         0.1020 
    134 H134      -52.8140  -20.7217    9.5025 H         1 UNK         0.1020 
    135 H135      -55.7300  -22.5227    8.0166 H         1 UNK         0.0694 
    136 H136      -55.3510  -22.8198    6.3399 H         1 UNK         0.0694 
    137 H137      -50.8344  -22.0920    8.3386 H         1 UNK         0.2989 
    138 H138      -49.1056  -24.2278    7.2105 H         1 UNK         0.1055 
    139 H139      -47.5343  -22.2411    7.2062 H         1 UNK         0.0806 
    140 H140      -48.2677  -21.6794    8.7034 H         1 UNK         0.0806 
    141 H141      -49.2185  -21.7706    7.2210 H         1 UNK         0.0806 
    142 H142      -47.2865  -25.1508    8.0391 H         1 UNK         0.3061 
    143 H143      -45.1638  -24.5782   10.7603 H         1 UNK         0.0734 
    144 H144      -46.7916  -26.0401   11.9571 H         1 UNK         0.0832 
    145 H145      -46.9829  -27.0318   10.5166 H         1 UNK         0.0832 
    146 H146      -45.4314  -26.9714   11.3520 H         1 UNK         0.0832 
    147 H147      -45.3617  -26.6218    8.7075 H         1 UNK         0.3156 
    148 H148      -43.9757  -24.7857    6.1042 H         1 UNK         0.0589 
    149 H149      -42.2101  -26.6192    7.8156 H         1 UNK         0.0808 
    150 H150      -41.9417  -26.2044    6.1212 H         1 UNK         0.0808 
    151 H151      -41.8180  -24.9678    7.3591 H         1 UNK         0.0808 
    152 H152      -44.0167  -27.5799    6.3721 H         1 UNK         0.3098 
    153 H153      -46.4749  -28.0446    4.4655 H         1 UNK         0.0720 
    154 H154      -45.8094  -30.2821    5.3966 H         1 UNK         0.0791 
    155 H155      -45.1689  -29.4995    6.8334 H         1 UNK         0.0791 
    156 H156      -44.4442  -29.1982    5.2525 H         1 UNK         0.0791 
    157 H157      -48.4218  -28.5662    5.3491 H         1 UNK         0.3028 
@<TRIPOS>BOND
     1    1    2 1    
     2    1   82 1    
     3    1   83 1    
     4    1   84 1    
     5    2    3 2    
     6    2    4 am   BACKBONE|DICT|INTERRES
     7    4    5 1    
     8    4   85 1    
     9    5    6 1    
    10    5   80 1    
    11    5   86 1    
    12    6    7 1    
    13    6   87 1    
    14    6   88 1    
    15    7    8 1    
    16    8    9 1    
    17    8   89 1    
    18    8   90 1    
    19    9   10 ar   
    20    9   14 ar   
    21   10   11 ar   
    22   10   91 1    
    23   11   12 ar   
    24   11   58 1    
    25   12   13 ar   
    26   12   92 1    
    27   13   14 ar   
    28   13   15 1    
    29   14   93 1    
    30   15   16 1    
    31   15   94 1    
    32   15   95 1    
    33   16   17 1    
    34   17   18 1    
    35   17   96 1    
    36   17   97 1    
    37   18   19 1    
    38   18   22 1    
    39   18   98 1    
    40   19   20 am   BACKBONE|DICT|INTERRES
    41   19   21 2    
    42   20   99 1    
    43   20  100 1    
    44   22   23 am   BACKBONE|DICT|INTERRES
    45   22  101 1    
    46   23   24 2    
    47   23   25 1    
    48   25   26 1    
    49   25   27 1    
    50   25  102 1    
    51   26  103 1    
    52   26  104 1    
    53   26  105 1    
    54   27   28 am   BACKBONE|DICT|INTERRES
    55   27  106 1    
    56   28   29 2    
    57   28   30 1    
    58   30   31 1    
    59   30   32 1    
    60   30  107 1    
    61   31  108 1    
    62   31  109 1    
    63   31  110 1    
    64   32   33 am   BACKBONE|DICT|INTERRES
    65   32  111 1    
    66   33   34 2    
    67   33   35 1    
    68   35   36 1    
    69   35   37 1    
    70   35  112 1    
    71   36  113 1    
    72   36  114 1    
    73   36  115 1    
    74   37   38 am   BACKBONE|DICT|INTERRES
    75   37  116 1    
    76   38   39 2    
    77   38   40 1    
    78   40   41 1    
    79   40   42 1    
    80   40  117 1    
    81   41  118 1    
    82   41  119 1    
    83   41  120 1    
    84   42   43 am   BACKBONE|DICT|INTERRES
    85   42  121 1    
    86   43   44 2    
    87   43   45 1    
    88   45   46 1    
    89   45   47 1    
    90   45  122 1    
    91   46  123 1    
    92   46  124 1    
    93   46  125 1    
    94   47   48 am   BACKBONE|DICT|INTERRES
    95   47  126 1    
    96   48   49 2    
    97   48   50 1    
    98   50   51 1    
    99   50   52 1    
   100   50  127 1    
   101   51  128 1    
   102   51  129 1    
   103   51  130 1    
   104   52   53 am   BACKBONE|DICT|INTERRES
   105   52  131 1    
   106   53   54 2    
   107   53   55 1    
   108   55   56 1    
   109   55   59 1    
   110   55  132 1    
   111   56   57 1    
   112   56  133 1    
   113   56  134 1    
   114   57   58 1    
   115   58  135 1    
   116   58  136 1    
   117   59   60 am   BACKBONE|DICT|INTERRES
   118   59  137 1    
   119   60   61 2    
   120   60   62 1    
   121   62   63 1    
   122   62   64 1    
   123   62  138 1    
   124   63  139 1    
   125   63  140 1    
   126   63  141 1    
   127   64   65 am   BACKBONE|DICT|INTERRES
   128   64  142 1    
   129   65   66 2    
   130   65   67 1    
   131   67   68 1    
   132   67   69 1    
   133   67  143 1    
   134   68  144 1    
   135   68  145 1    
   136   68  146 1    
   137   69   70 am   BACKBONE|DICT|INTERRES
   138   69  147 1    
   139   70   71 2    
   140   70   72 1    
   141   72   73 1    
   142   72   74 1    
   143   72  148 1    
   144   73  149 1    
   145   73  150 1    
   146   73  151 1    
   147   74   75 am   BACKBONE|DICT|INTERRES
   148   74  152 1    
   149   75   76 2    
   150   75   77 1    
   151   77   78 1    
   152   77   79 1    
   153   77  153 1    
   154   78  154 1    
   155   78  155 1    
   156   78  156 1    
   157   79   80 am   BACKBONE|DICT|INTERRES
   158   79  157 1    
   159   80   81 2    
@<TRIPOS>SUBSTRUCTURE
     1 UNK         1 GROUP             0       ****    0 ROOT    
