@<TRIPOS>MOLECULE
3R207
157   159    1
SMALL
USER_CHARGES


@<TRIPOS>ATOM
      1 CA        -49.1270  -28.2383    1.0107 C.3       0 UNK        -0.1975 
      2 C         -48.7386  -27.6717    2.3688 C.2       0 UNK         0.4852 
      3 O         -48.8157  -26.4580    2.5652 O.2       0 UNK        -0.5216 
      4 N         -48.3330  -28.5444    3.3000 N.am      1 UNK        -0.4461 
      5 CA        -47.8783  -28.1940    4.6480 C.3       1 UNK         0.0864 
      6 C6        -48.3937  -29.2005    5.7119 C.3       14 UNK        -0.0898 
      7 S7        -50.1871  -29.0174    5.9892 S.3       14 UNK        -0.2598 
      8 C8        -50.1579  -27.9974    7.4968 C.3       14 UNK         0.0286 
      9 C9        -51.5495  -27.6255    7.9821 C.ar      14 UNK        -0.0844 
     10 C10       -51.9673  -26.2903    7.9783 C.ar      14 UNK        -0.0881 
     11 C11       -53.2342  -25.9422    8.4558 C.ar      14 UNK        -0.0643 
     12 C12       -54.0919  -26.9433    8.9221 C.ar      14 UNK        -0.0930 
     13 C13       -53.6851  -28.2799    8.9292 C.ar      14 UNK        -0.0827 
     14 C14       -52.4103  -28.6146    8.4662 C.ar      14 UNK        -0.1249 
     15 C15       -54.6293  -29.3629    9.4221 C.3       14 UNK         0.0141 
     16 S16       -54.4613  -29.6173   11.2127 S.3       14 UNK        -0.2313 
     17 C17       -55.7524  -30.8760   11.4849 C.3       14 UNK        -0.0915 
     18 CA        -57.0690  -30.2695   12.0376 C.3       13 UNK         0.0968 
     19 C         -58.2077  -31.3317   12.0434 C.2       13 UNK         0.5732 
     20 N         -58.7282  -31.7494   13.1915 N.am      13 UNK        -0.7310 
     21 O         -58.6319  -31.7802   10.9810 O.2       13 UNK        -0.5035 
     22 N         -56.8490  -29.5946   13.3271 N.am      13 UNK        -0.4233 
     23 C         -57.6699  -28.6885   13.8741 C.2       13 UNK         0.4989 
     24 O         -58.7085  -28.2947   13.3421 O.2       13 UNK        -0.4996 
     25 CA        -57.2806  -28.1331   15.2566 C.3       12 UNK         0.0216 
     26 CB        -58.0988  -28.8241   16.3605 C.3       12 UNK        -0.1964 
     27 N         -55.8518  -28.2735   15.5580 N.am      12 UNK        -0.4276 
     28 C         -54.8956  -27.4792   15.0601 C.2       12 UNK         0.5020 
     29 O         -55.1149  -26.5310   14.3036 O.2       12 UNK        -0.5489 
     30 CA        -53.4496  -27.8310   15.4483 C.3       11 UNK         0.0294 
     31 CB        -52.7568  -28.6009   14.3129 C.3       11 UNK        -0.2019 
     32 N         -52.6582  -26.6449   15.7750 N.am      11 UNK        -0.4493 
     33 C         -52.8490  -25.8729   16.8553 C.2       11 UNK         0.4932 
     34 O         -53.7454  -26.0634   17.6799 O.2       11 UNK        -0.5029 
     35 CA        -51.8423  -24.7216   17.0650 C.3       10 UNK         0.0280 
     36 CB        -51.8692  -24.1432   18.4958 C.3       10 UNK        -0.1976 
     37 N         -50.4771  -25.0929   16.6745 N.am      10 UNK        -0.4242 
     38 C         -49.7272  -26.0927   17.1676 C.2       10 UNK         0.5072 
     39 O         -50.0505  -26.7849   18.1338 O.2       10 UNK        -0.5224 
     40 CA        -48.4007  -26.3985   16.4494 C.3       9 UNK         0.0343 
     41 CB        -48.4331  -27.8080   15.8303 C.3       9 UNK        -0.2003 
     42 N         -48.1100  -25.4276   15.3899 N.am      9 UNK        -0.4272 
     43 C         -47.1292  -24.5170   15.4397 C.2       9 UNK         0.4988 
     44 O         -46.3354  -24.4076   16.3750 O.2       9 UNK        -0.5108 
     45 CA        -47.0071  -23.5617   14.2427 C.3       8 UNK         0.0248 
     46 CB        -46.2061  -24.2193   13.1055 C.3       8 UNK        -0.2001 
     47 N         -48.2949  -23.0935   13.7246 N.am      8 UNK        -0.4140 
     48 C         -49.1355  -22.2705   14.3684 C.2       8 UNK         0.5028 
     49 O         -48.9663  -21.8865   15.5253 O.2       8 UNK        -0.5428 
     50 CA        -50.3716  -21.7916   13.5938 C.3       7 UNK         0.0264 
     51 CB        -49.9843  -20.6981   12.5840 C.3       7 UNK        -0.1988 
     52 N         -51.0075  -22.8987   12.8811 N.am      7 UNK        -0.4454 
     53 C         -52.2054  -23.4194   13.1796 C.2       7 UNK         0.5027 
     54 O         -52.9384  -22.9755   14.0641 O.2       7 UNK        -0.5083 
     55 CA        -52.6760  -24.6527   12.3733 C.3       6 UNK         0.0844 
     56 C56       -53.6990  -24.2516   11.2807 C.3       14 UNK        -0.0967 
     57 S57       -52.9314  -23.5149    9.7894 S.3       14 UNK        -0.2604 
     58 C58       -53.6849  -24.4879    8.4456 C.3       14 UNK         0.0134 
     59 N         -51.5858  -25.4696   11.8310 N.am      6 UNK        -0.4116 
     60 C         -50.6183  -26.0563   12.5446 C.2       5 UNK         0.5034 
     61 O         -50.5622  -26.0330   13.7746 O.2       5 UNK        -0.5045 
     62 CA        -49.4818  -26.7294   11.7571 C.3       5 UNK         0.0224 
     63 CB        -49.8324  -28.1997   11.4838 C.3       5 UNK        -0.1978 
     64 N         -49.1108  -26.0727   10.4937 N.am      5 UNK        -0.4737 
     65 C         -48.8483  -24.7713   10.3093 C.2       4 UNK         0.5027 
     66 O         -48.9599  -23.9199   11.1908 O.2       4 UNK        -0.5211 
     67 CA        -48.3424  -24.3603    8.9172 C.3       4 UNK         0.0297 
     68 CB        -48.4971  -22.8484    8.6701 C.3       4 UNK        -0.1993 
     69 N         -46.9381  -24.7368    8.7393 N.am      4 UNK        -0.4486 
     70 C         -46.5123  -25.9815    8.4999 C.2       3 UNK         0.4961 
     71 O         -47.2662  -26.9544    8.3968 O.2       3 UNK        -0.5105 
     72 CA        -45.0011  -26.1885    8.3525 C.3       3 UNK         0.0299 
     73 CB        -44.3379  -26.4369    9.7175 C.3       3 UNK        -0.1972 
     74 N         -44.8413  -27.3559    7.4986 N.am      3 UNK        -0.4305 
     75 C         -43.8985  -27.5614    6.5739 C.2       2 UNK         0.5006 
     76 O         -42.8878  -26.8692    6.4490 O.2       2 UNK        -0.5106 
     77 CA        -44.1628  -28.7204    5.5915 C.3       2 UNK         0.0296 
     78 CB        -43.5796  -30.0354    6.1337 C.3       2 UNK        -0.2002 
     79 N         -45.5962  -28.8945    5.3133 N.am      2 UNK        -0.4032 
     80 C         -46.3454  -28.0092    4.6348 C.2       1 UNK         0.5000 
     81 O         -45.8648  -27.0444    4.0362 O.2       1 UNK        -0.5238 
     82 H82       -49.0252  -29.3228    0.9756 H         1 UNK         0.0889 
     83 H83       -48.4940  -27.8132    0.2322 H         1 UNK         0.0889 
     84 H84       -50.1628  -27.9882    0.7825 H         1 UNK         0.0889 
     85 H85       -48.2837  -29.5256    3.0649 H         1 UNK         0.3028 
     86 H86       -48.2770  -27.2138    4.9200 H         1 UNK         0.0864 
     87 H87       -48.1940  -30.2297    5.4081 H         1 UNK         0.0720 
     88 H88       -47.8905  -29.0600    6.6703 H         1 UNK         0.0720 
     89 H89       -49.5809  -27.0970    7.2871 H         1 UNK         0.0814 
     90 H90       -49.6333  -28.5324    8.2898 H         1 UNK         0.0814 
     91 H91       -51.3093  -25.5163    7.6080 H         1 UNK         0.1469 
     92 H92       -55.0787  -26.6845    9.2809 H         1 UNK         0.1381 
     93 H93       -52.0880  -29.6470    8.4752 H         1 UNK         0.1206 
     94 H94       -55.6608  -29.0942    9.1886 H         1 UNK         0.0813 
     95 H95       -54.4283  -30.3004    8.9011 H         1 UNK         0.0813 
     96 H96       -55.3589  -31.6214   12.1781 H         1 UNK         0.0638 
     97 H97       -55.9300  -31.4048   10.5464 H         1 UNK         0.0638 
     98 H98       -57.3938  -29.5043   11.3299 H         1 UNK         0.0568 
     99 H99       -59.4676  -32.4340   13.1767 H         1 UNK         0.3450 
    100 H100      -58.3902  -31.3899   14.0689 H         1 UNK         0.3450 
    101 H101      -56.0137  -29.8563   13.8263 H         1 UNK         0.2987 
    102 H102      -57.5337  -27.0705   15.2627 H         1 UNK         0.0766 
    103 H103      -57.8950  -28.3858   17.3378 H         1 UNK         0.0798 
    104 H104      -57.8835  -29.8917   16.4193 H         1 UNK         0.0798 
    105 H105      -59.1693  -28.7173   16.1782 H         1 UNK         0.0798 
    106 H106      -55.5902  -29.0219   16.1846 H         1 UNK         0.3198 
    107 H107      -53.4635  -28.4682   16.3354 H         1 UNK         0.0843 
    108 H108      -53.2651  -29.5449   14.1140 H         1 UNK         0.0831 
    109 H109      -51.7223  -28.8373   14.5624 H         1 UNK         0.0831 
    110 H110      -52.7570  -28.0313   13.3827 H         1 UNK         0.0831 
    111 H111      -51.9075  -26.4074   15.1331 H         1 UNK         0.3133 
    112 H112      -52.1457  -23.9239   16.3877 H         1 UNK         0.0566 
    113 H113      -51.1557  -23.3267   18.6065 H         1 UNK         0.0814 
    114 H114      -52.8556  -23.7451   18.7370 H         1 UNK         0.0814 
    115 H115      -51.6331  -24.9000   19.2444 H         1 UNK         0.0814 
    116 H116      -50.1067  -24.5962   15.8780 H         1 UNK         0.3091 
    117 H117      -47.6181  -26.3833   17.2106 H         1 UNK         0.0702 
    118 H118      -47.4919  -28.0439   15.3338 H         1 UNK         0.0785 
    119 H119      -49.2340  -27.9137   15.0983 H         1 UNK         0.0785 
    120 H120      -48.5928  -28.5677   16.5965 H         1 UNK         0.0785 
    121 H121      -48.7288  -25.4504   14.5880 H         1 UNK         0.2998 
    122 H122      -46.4522  -22.6837   14.5802 H         1 UNK         0.0697 
    123 H123      -45.2221  -24.5365   13.4536 H         1 UNK         0.0825 
    124 H124      -46.0486  -23.5260   12.2790 H         1 UNK         0.0825 
    125 H125      -46.7107  -25.1005   12.7089 H         1 UNK         0.0825 
    126 H126      -48.5141  -23.3562   12.7636 H         1 UNK         0.3029 
    127 H127      -51.0622  -21.3525   14.3172 H         1 UNK         0.0897 
    128 H128      -50.8643  -20.3026   12.0764 H         1 UNK         0.0792 
    129 H129      -49.4935  -19.8611   13.0824 H         1 UNK         0.0792 
    130 H130      -49.3007  -21.0726   11.8206 H         1 UNK         0.0792 
    131 H131      -50.4583  -23.3301   12.1414 H         1 UNK         0.3086 
    132 H132      -53.1984  -25.2878   13.0890 H         1 UNK         0.0583 
    133 H133      -54.4407  -23.5539   11.6755 H         1 UNK         0.1020 
    134 H134      -54.2722  -25.1346   11.0010 H         1 UNK         0.1020 
    135 H135      -54.7715  -24.4176    8.5165 H         1 UNK         0.0694 
    136 H136      -53.4142  -24.0344    7.4910 H         1 UNK         0.0694 
    137 H137      -51.5406  -25.5253   10.8235 H         1 UNK         0.2989 
    138 H138      -48.5969  -26.7076   12.3955 H         1 UNK         0.1055 
    139 H139      -50.0525  -28.7283   12.4126 H         1 UNK         0.0806 
    140 H140      -49.0068  -28.7246   11.0028 H         1 UNK         0.0806 
    141 H141      -50.7101  -28.2925   10.8431 H         1 UNK         0.0806 
    142 H142      -48.8806  -26.6883    9.7220 H         1 UNK         0.3061 
    143 H143      -48.9483  -24.8796    8.1725 H         1 UNK         0.0734 
    144 H144      -49.5348  -22.5376    8.8018 H         1 UNK         0.0832 
    145 H145      -47.8921  -22.2585    9.3601 H         1 UNK         0.0832 
    146 H146      -48.2062  -22.5800    7.6544 H         1 UNK         0.0832 
    147 H147      -46.2560  -23.9988    8.8429 H         1 UNK         0.3156 
    148 H148      -44.5625  -25.3109    7.8728 H         1 UNK         0.0589 
    149 H149      -44.7753  -27.2964   10.2275 H         1 UNK         0.0808 
    150 H150      -43.2689  -26.6210    9.6094 H         1 UNK         0.0808 
    151 H151      -44.4545  -25.5732   10.3733 H         1 UNK         0.0808 
    152 H152      -45.6568  -27.9557    7.5082 H         1 UNK         0.3098 
    153 H153      -43.6578  -28.4830    4.6526 H         1 UNK         0.0720 
    154 H154      -43.7034  -30.8491    5.4188 H         1 UNK         0.0791 
    155 H155      -44.0527  -30.3346    7.0700 H         1 UNK         0.0791 
    156 H156      -42.5105  -29.9358    6.3267 H         1 UNK         0.0791 
    157 H157      -46.0483  -29.6879    5.7439 H         1 UNK         0.3028 
@<TRIPOS>BOND
     1    1    2 1    
     2    1   82 1    
     3    1   83 1    
     4    1   84 1    
     5    2    3 2    
     6    2    4 am   BACKBONE|DICT|INTERRES
     7    4    5 1    
     8    4   85 1    
     9    5    6 1    
    10    5   80 1    
    11    5   86 1    
    12    6    7 1    
    13    6   87 1    
    14    6   88 1    
    15    7    8 1    
    16    8    9 1    
    17    8   89 1    
    18    8   90 1    
    19    9   10 ar   
    20    9   14 ar   
    21   10   11 ar   
    22   10   91 1    
    23   11   12 ar   
    24   11   58 1    
    25   12   13 ar   
    26   12   92 1    
    27   13   14 ar   
    28   13   15 1    
    29   14   93 1    
    30   15   16 1    
    31   15   94 1    
    32   15   95 1    
    33   16   17 1    
    34   17   18 1    
    35   17   96 1    
    36   17   97 1    
    37   18   19 1    
    38   18   22 1    
    39   18   98 1    
    40   19   20 am   BACKBONE|DICT|INTERRES
    41   19   21 2    
    42   20   99 1    
    43   20  100 1    
    44   22   23 am   BACKBONE|DICT|INTERRES
    45   22  101 1    
    46   23   24 2    
    47   23   25 1    
    48   25   26 1    
    49   25   27 1    
    50   25  102 1    
    51   26  103 1    
    52   26  104 1    
    53   26  105 1    
    54   27   28 am   BACKBONE|DICT|INTERRES
    55   27  106 1    
    56   28   29 2    
    57   28   30 1    
    58   30   31 1    
    59   30   32 1    
    60   30  107 1    
    61   31  108 1    
    62   31  109 1    
    63   31  110 1    
    64   32   33 am   BACKBONE|DICT|INTERRES
    65   32  111 1    
    66   33   34 2    
    67   33   35 1    
    68   35   36 1    
    69   35   37 1    
    70   35  112 1    
    71   36  113 1    
    72   36  114 1    
    73   36  115 1    
    74   37   38 am   BACKBONE|DICT|INTERRES
    75   37  116 1    
    76   38   39 2    
    77   38   40 1    
    78   40   41 1    
    79   40   42 1    
    80   40  117 1    
    81   41  118 1    
    82   41  119 1    
    83   41  120 1    
    84   42   43 am   BACKBONE|DICT|INTERRES
    85   42  121 1    
    86   43   44 2    
    87   43   45 1    
    88   45   46 1    
    89   45   47 1    
    90   45  122 1    
    91   46  123 1    
    92   46  124 1    
    93   46  125 1    
    94   47   48 am   BACKBONE|DICT|INTERRES
    95   47  126 1    
    96   48   49 2    
    97   48   50 1    
    98   50   51 1    
    99   50   52 1    
   100   50  127 1    
   101   51  128 1    
   102   51  129 1    
   103   51  130 1    
   104   52   53 am   BACKBONE|DICT|INTERRES
   105   52  131 1    
   106   53   54 2    
   107   53   55 1    
   108   55   56 1    
   109   55   59 1    
   110   55  132 1    
   111   56   57 1    
   112   56  133 1    
   113   56  134 1    
   114   57   58 1    
   115   58  135 1    
   116   58  136 1    
   117   59   60 am   BACKBONE|DICT|INTERRES
   118   59  137 1    
   119   60   61 2    
   120   60   62 1    
   121   62   63 1    
   122   62   64 1    
   123   62  138 1    
   124   63  139 1    
   125   63  140 1    
   126   63  141 1    
   127   64   65 am   BACKBONE|DICT|INTERRES
   128   64  142 1    
   129   65   66 2    
   130   65   67 1    
   131   67   68 1    
   132   67   69 1    
   133   67  143 1    
   134   68  144 1    
   135   68  145 1    
   136   68  146 1    
   137   69   70 am   BACKBONE|DICT|INTERRES
   138   69  147 1    
   139   70   71 2    
   140   70   72 1    
   141   72   73 1    
   142   72   74 1    
   143   72  148 1    
   144   73  149 1    
   145   73  150 1    
   146   73  151 1    
   147   74   75 am   BACKBONE|DICT|INTERRES
   148   74  152 1    
   149   75   76 2    
   150   75   77 1    
   151   77   78 1    
   152   77   79 1    
   153   77  153 1    
   154   78  154 1    
   155   78  155 1    
   156   78  156 1    
   157   79   80 am   BACKBONE|DICT|INTERRES
   158   79  157 1    
   159   80   81 2    
@<TRIPOS>SUBSTRUCTURE
     1 UNK         1 GROUP             0       ****    0 ROOT    
