@<TRIPOS>MOLECULE
3R207
157   159    1
SMALL
USER_CHARGES


@<TRIPOS>ATOM
      1 CA        -44.7492  -30.7716    6.4897 C.3       0 UNK        -0.1975 
      2 C         -45.8795  -30.2474    5.6165 C.2       0 UNK         0.4852 
      3 O         -45.7273  -30.1739    4.3968 O.2       0 UNK        -0.5216 
      4 N         -47.0112  -29.8826    6.2340 N.am      1 UNK        -0.4461 
      5 CA        -48.2112  -29.3616    5.5643 C.3       1 UNK         0.0864 
      6 C6        -49.4075  -29.2559    6.5387 C.3       14 UNK        -0.0898 
      7 S7        -49.8822  -30.8078    7.3784 S.3       14 UNK        -0.2598 
      8 C8        -49.8981  -30.3196    9.1438 C.3       14 UNK         0.0286 
      9 C9        -51.1553  -29.5679    9.5889 C.ar      14 UNK        -0.0844 
     10 C10       -51.5921  -28.4268    8.9110 C.ar      14 UNK        -0.0881 
     11 C11       -52.6826  -27.6826    9.3595 C.ar      14 UNK        -0.0643 
     12 C12       -53.3626  -28.0955   10.5059 C.ar      14 UNK        -0.0930 
     13 C13       -52.9589  -29.2469   11.1908 C.ar      14 UNK        -0.0827 
     14 C14       -51.8541  -29.9747   10.7318 C.ar      14 UNK        -0.1249 
     15 C15       -53.6956  -29.6794   12.4494 C.3       14 UNK         0.0141 
     16 S16       -54.8910  -31.0283   12.1666 S.3       14 UNK        -0.2313 
     17 C17       -56.0273  -30.3749   10.8881 C.3       14 UNK        -0.0915 
     18 CA        -57.2529  -29.5809   11.4172 C.3       13 UNK         0.0968 
     19 C         -58.2347  -30.4588   12.2427 C.2       13 UNK         0.5732 
     20 N         -59.0295  -31.2866   11.5775 N.am      13 UNK        -0.7310 
     21 O         -58.2668  -30.4210   13.4712 O.2       13 UNK        -0.5035 
     22 N         -56.8347  -28.3606   12.1158 N.am      13 UNK        -0.4233 
     23 C         -57.5938  -27.2736   12.2964 C.2       13 UNK         0.4989 
     24 O         -58.7397  -27.1577   11.8574 O.2       13 UNK        -0.4996 
     25 CA        -56.9353  -26.1083   13.0651 C.3       12 UNK         0.0216 
     26 CB        -57.9487  -25.0393   13.5295 C.3       12 UNK        -0.1964 
     27 N         -56.0865  -26.5530   14.1805 N.am      12 UNK        -0.4276 
     28 C         -56.4728  -27.2222   15.2787 C.2       12 UNK         0.5020 
     29 O         -57.6364  -27.5463   15.5163 O.2       12 UNK        -0.5489 
     30 CA        -55.3759  -27.6094   16.2879 C.3       11 UNK         0.0294 
     31 CB        -55.0771  -29.1163   16.2080 C.3       11 UNK        -0.2019 
     32 N         -54.1222  -26.8654   16.1243 N.am      11 UNK        -0.4493 
     33 C         -53.9219  -25.5986   16.5138 C.2       11 UNK         0.4932 
     34 O         -54.8096  -24.9006   17.0049 O.2       11 UNK        -0.5029 
     35 CA        -52.5186  -24.9853   16.3101 C.3       10 UNK         0.0280 
     36 CB        -51.9814  -24.3551   17.6114 C.3       10 UNK        -0.1976 
     37 N         -51.5093  -25.8720   15.7105 N.am      10 UNK        -0.4242 
     38 C         -50.9838  -26.9988   16.2169 C.2       10 UNK         0.5072 
     39 O         -51.3380  -27.5131   17.2776 O.2       10 UNK        -0.5224 
     40 CA        -49.8858  -27.6786   15.3842 C.3       9 UNK         0.0343 
     41 CB        -50.4937  -28.4217   14.1834 C.3       9 UNK        -0.2003 
     42 N         -48.8648  -26.7354   14.9242 N.am      9 UNK        -0.4272 
     43 C         -47.9872  -26.1198   15.7315 C.2       9 UNK         0.4988 
     44 O         -47.9167  -26.3149   16.9456 O.2       9 UNK        -0.5108 
     45 CA        -47.0170  -25.1196   15.0807 C.3       8 UNK         0.0248 
     46 CB        -45.8392  -25.8576   14.4247 C.3       8 UNK        -0.2001 
     47 N         -47.6687  -24.2472   14.1014 N.am      8 UNK        -0.4140 
     48 C         -48.5893  -23.3207   14.4071 C.2       8 UNK         0.5028 
     49 O         -48.9411  -23.0547   15.5568 O.2       8 UNK        -0.5428 
     50 CA        -49.2468  -22.5730   13.2343 C.3       7 UNK         0.0264 
     51 CB        -48.3659  -21.4036   12.7667 C.3       7 UNK        -0.1988 
     52 N         -49.5572  -23.4397   12.0952 N.am      7 UNK        -0.4454 
     53 C         -50.4122  -24.4739   12.1311 C.2       7 UNK         0.5027 
     54 O         -51.0516  -24.8086   13.1293 O.2       7 UNK        -0.5083 
     55 CA        -50.5500  -25.2911   10.8327 C.3       6 UNK         0.0844 
     56 C56       -51.4627  -24.5194    9.8425 C.3       14 UNK        -0.0967 
     57 S57       -51.7117  -25.3269    8.2315 S.3       14 UNK        -0.2604 
     58 C58       -53.1146  -26.4383    8.5935 C.3       14 UNK         0.0134 
     59 N         -49.2308  -25.6588   10.2964 N.am      6 UNK        -0.4116 
     60 C         -48.3245  -26.3905   10.9695 C.2       5 UNK         0.5034 
     61 O         -48.5415  -26.9192   12.0587 O.2       5 UNK        -0.5045 
     62 CA        -46.9073  -26.4873   10.3850 C.3       5 UNK         0.0224 
     63 CB        -46.7708  -27.6707    9.4148 C.3       5 UNK        -0.1978 
     64 N         -46.5043  -25.2385    9.7373 N.am      5 UNK        -0.4737 
     65 C         -46.1695  -24.1275   10.4108 C.2       4 UNK         0.5027 
     66 O         -46.1196  -24.0682   11.6381 O.2       4 UNK        -0.5211 
     67 CA        -45.8806  -22.8604    9.5869 C.3       4 UNK         0.0297 
     68 CB        -44.3934  -22.7961    9.2066 C.3       4 UNK        -0.1993 
     69 N         -46.6991  -22.7690    8.3766 N.am      4 UNK        -0.4486 
     70 C         -48.0342  -22.6480    8.3680 C.2       3 UNK         0.4961 
     71 O         -48.7125  -22.5088    9.3865 O.2       3 UNK        -0.5105 
     72 CA        -48.7288  -22.7668    6.9966 C.3       3 UNK         0.0299 
     73 CB        -48.8885  -21.3807    6.3534 C.3       3 UNK        -0.1972 
     74 N         -48.0388  -23.6700    6.0615 N.am      3 UNK        -0.4305 
     75 C         -47.8169  -24.9716    6.2945 C.2       2 UNK         0.5006 
     76 O         -48.1866  -25.5454    7.3214 O.2       2 UNK        -0.5106 
     77 CA        -46.9724  -25.7334    5.2584 C.3       2 UNK         0.0296 
     78 CB        -45.4900  -25.3410    5.3878 C.3       2 UNK        -0.2002 
     79 N         -47.0918  -27.1730    5.4915 N.am      2 UNK        -0.4032 
     80 C         -48.0009  -27.9718    4.9180 C.2       1 UNK         0.5000 
     81 O         -48.6972  -27.6394    3.9565 O.2       1 UNK        -0.5238 
     82 H82       -44.4967  -31.7921    6.2030 H         1 UNK         0.0889 
     83 H83       -45.0156  -30.7725    7.5466 H         1 UNK         0.0889 
     84 H84       -43.8610  -30.1528    6.3649 H         1 UNK         0.0889 
     85 H85       -47.0930  -30.0121    7.2318 H         1 UNK         0.3028 
     86 H86       -48.4753  -30.0571    4.7648 H         1 UNK         0.0864 
     87 H87       -50.2927  -28.8958    6.0098 H         1 UNK         0.0720 
     88 H88       -49.1692  -28.5051    7.2921 H         1 UNK         0.0720 
     89 H89       -49.7846  -31.2292    9.7354 H         1 UNK         0.0814 
     90 H90       -49.0229  -29.7098    9.3662 H         1 UNK         0.0814 
     91 H91       -51.0829  -28.0749    8.0336 H         1 UNK         0.1469 
     92 H92       -54.2087  -27.5235   10.8597 H         1 UNK         0.1381 
     93 H93       -51.5315  -30.8505   11.2781 H         1 UNK         0.1206 
     94 H94       -52.9705  -30.0267   13.1855 H         1 UNK         0.0813 
     95 H95       -54.1961  -28.8280   12.9087 H         1 UNK         0.0813 
     96 H96       -56.3724  -31.2278   10.3014 H         1 UNK         0.0638 
     97 H97       -55.4703  -29.7644   10.1789 H         1 UNK         0.0638 
     98 H98       -57.8101  -29.2538   10.5369 H         1 UNK         0.0568 
     99 H99       -59.6655  -31.8733   12.0944 H         1 UNK         0.3450 
    100 H100      -59.0079  -31.3370   10.5709 H         1 UNK         0.3450 
    101 H101      -55.9381  -28.4043   12.5694 H         1 UNK         0.2987 
    102 H102      -56.2655  -25.6264   12.3512 H         1 UNK         0.0766 
    103 H103      -57.4520  -24.2233   14.0545 H         1 UNK         0.0798 
    104 H104      -58.7029  -25.4573   14.1968 H         1 UNK         0.0798 
    105 H105      -58.4749  -24.6033   12.6794 H         1 UNK         0.0798 
    106 H106      -55.1064  -26.3186   14.1096 H         1 UNK         0.3198 
    107 H107      -55.7698  -27.3969   17.2844 H         1 UNK         0.0843 
    108 H108      -54.6638  -29.4014   15.2413 H         1 UNK         0.0831 
    109 H109      -55.9857  -29.7023   16.3554 H         1 UNK         0.0831 
    110 H110      -54.3694  -29.4216   16.9792 H         1 UNK         0.0831 
    111 H111      -53.3253  -27.3785   15.7780 H         1 UNK         0.3133 
    112 H112      -52.6526  -24.1772   15.5895 H         1 UNK         0.0566 
    113 H113      -51.0145  -23.8782   17.4487 H         1 UNK         0.0814 
    114 H114      -52.6599  -23.5881   17.9868 H         1 UNK         0.0814 
    115 H115      -51.8611  -25.0964   18.4019 H         1 UNK         0.0814 
    116 H116      -51.1755  -25.5624   14.7978 H         1 UNK         0.3091 
    117 H117      -49.3947  -28.4172   16.0214 H         1 UNK         0.0702 
    118 H118      -51.2309  -29.1523   14.5160 H         1 UNK         0.0785 
    119 H119      -50.9881  -27.7422   13.4874 H         1 UNK         0.0785 
    120 H120      -49.7302  -28.9653   13.6264 H         1 UNK         0.0785 
    121 H121      -48.8154  -26.5718   13.9217 H         1 UNK         0.2998 
    122 H122      -46.6157  -24.4839   15.8728 H         1 UNK         0.0697 
    123 H123      -46.1716  -26.5105   13.6177 H         1 UNK         0.0825 
    124 H124      -45.3155  -26.4795   15.1519 H         1 UNK         0.0825 
    125 H125      -45.1116  -25.1582   14.0128 H         1 UNK         0.0825 
    126 H126      -47.3665  -24.3366   13.1354 H         1 UNK         0.3029 
    127 H127      -50.1914  -22.1626   13.5978 H         1 UNK         0.0897 
    128 H128      -48.8522  -20.8311   11.9764 H         1 UNK         0.0792 
    129 H129      -47.4044  -21.7484   12.3859 H         1 UNK         0.0792 
    130 H130      -48.1632  -20.7158   13.5888 H         1 UNK         0.0792 
    131 H131      -49.1079  -23.2132   11.2117 H         1 UNK         0.3086 
    132 H132      -51.0506  -26.2243   11.0962 H         1 UNK         0.0583 
    133 H133      -52.4417  -24.3448   10.2935 H         1 UNK         0.1020 
    134 H134      -51.0598  -23.5268    9.6382 H         1 UNK         0.1020 
    135 H135      -53.8889  -25.8899    9.1319 H         1 UNK         0.0694 
    136 H136      -53.5602  -26.7536    7.6492 H         1 UNK         0.0694 
    137 H137      -48.9892  -25.2989    9.3810 H         1 UNK         0.2989 
    138 H138      -46.2218  -26.6684   11.2156 H         1 UNK         0.1055 
    139 H139      -46.9270  -28.6136    9.9399 H         1 UNK         0.0806 
    140 H140      -45.7759  -27.7098    8.9713 H         1 UNK         0.0806 
    141 H141      -47.5003  -27.6232    8.6097 H         1 UNK         0.0806 
    142 H142      -46.6260  -25.1895    8.7343 H         1 UNK         0.3061 
    143 H143      -46.1122  -21.9973   10.2145 H         1 UNK         0.0734 
    144 H144      -44.1546  -21.8663    8.6902 H         1 UNK         0.0832 
    145 H145      -43.7630  -22.8411   10.0960 H         1 UNK         0.0832 
    146 H146      -44.1031  -23.6255    8.5603 H         1 UNK         0.0832 
    147 H147      -46.2225  -22.8633    7.4921 H         1 UNK         0.3156 
    148 H148      -49.7254  -23.1763    7.1728 H         1 UNK         0.0589 
    149 H149      -47.9239  -20.9265    6.1230 H         1 UNK         0.0808 
    150 H150      -49.4648  -21.4354    5.4297 H         1 UNK         0.0808 
    151 H151      -49.4176  -20.7001    7.0223 H         1 UNK         0.0808 
    152 H152      -47.7021  -23.2630    5.2002 H         1 UNK         0.3098 
    153 H153      -47.3260  -25.4807    4.2566 H         1 UNK         0.0720 
    154 H154      -45.1039  -25.5325    6.3902 H         1 UNK         0.0791 
    155 H155      -45.3395  -24.2819    5.1754 H         1 UNK         0.0791 
    156 H156      -44.8731  -25.8985    4.6825 H         1 UNK         0.0791 
    157 H157      -46.6005  -27.5326    6.2955 H         1 UNK         0.3028 
@<TRIPOS>BOND
     1    1    2 1    
     2    1   82 1    
     3    1   83 1    
     4    1   84 1    
     5    2    3 2    
     6    2    4 am   BACKBONE|DICT|INTERRES
     7    4    5 1    
     8    4   85 1    
     9    5    6 1    
    10    5   80 1    
    11    5   86 1    
    12    6    7 1    
    13    6   87 1    
    14    6   88 1    
    15    7    8 1    
    16    8    9 1    
    17    8   89 1    
    18    8   90 1    
    19    9   10 ar   
    20    9   14 ar   
    21   10   11 ar   
    22   10   91 1    
    23   11   12 ar   
    24   11   58 1    
    25   12   13 ar   
    26   12   92 1    
    27   13   14 ar   
    28   13   15 1    
    29   14   93 1    
    30   15   16 1    
    31   15   94 1    
    32   15   95 1    
    33   16   17 1    
    34   17   18 1    
    35   17   96 1    
    36   17   97 1    
    37   18   19 1    
    38   18   22 1    
    39   18   98 1    
    40   19   20 am   BACKBONE|DICT|INTERRES
    41   19   21 2    
    42   20   99 1    
    43   20  100 1    
    44   22   23 am   BACKBONE|DICT|INTERRES
    45   22  101 1    
    46   23   24 2    
    47   23   25 1    
    48   25   26 1    
    49   25   27 1    
    50   25  102 1    
    51   26  103 1    
    52   26  104 1    
    53   26  105 1    
    54   27   28 am   BACKBONE|DICT|INTERRES
    55   27  106 1    
    56   28   29 2    
    57   28   30 1    
    58   30   31 1    
    59   30   32 1    
    60   30  107 1    
    61   31  108 1    
    62   31  109 1    
    63   31  110 1    
    64   32   33 am   BACKBONE|DICT|INTERRES
    65   32  111 1    
    66   33   34 2    
    67   33   35 1    
    68   35   36 1    
    69   35   37 1    
    70   35  112 1    
    71   36  113 1    
    72   36  114 1    
    73   36  115 1    
    74   37   38 am   BACKBONE|DICT|INTERRES
    75   37  116 1    
    76   38   39 2    
    77   38   40 1    
    78   40   41 1    
    79   40   42 1    
    80   40  117 1    
    81   41  118 1    
    82   41  119 1    
    83   41  120 1    
    84   42   43 am   BACKBONE|DICT|INTERRES
    85   42  121 1    
    86   43   44 2    
    87   43   45 1    
    88   45   46 1    
    89   45   47 1    
    90   45  122 1    
    91   46  123 1    
    92   46  124 1    
    93   46  125 1    
    94   47   48 am   BACKBONE|DICT|INTERRES
    95   47  126 1    
    96   48   49 2    
    97   48   50 1    
    98   50   51 1    
    99   50   52 1    
   100   50  127 1    
   101   51  128 1    
   102   51  129 1    
   103   51  130 1    
   104   52   53 am   BACKBONE|DICT|INTERRES
   105   52  131 1    
   106   53   54 2    
   107   53   55 1    
   108   55   56 1    
   109   55   59 1    
   110   55  132 1    
   111   56   57 1    
   112   56  133 1    
   113   56  134 1    
   114   57   58 1    
   115   58  135 1    
   116   58  136 1    
   117   59   60 am   BACKBONE|DICT|INTERRES
   118   59  137 1    
   119   60   61 2    
   120   60   62 1    
   121   62   63 1    
   122   62   64 1    
   123   62  138 1    
   124   63  139 1    
   125   63  140 1    
   126   63  141 1    
   127   64   65 am   BACKBONE|DICT|INTERRES
   128   64  142 1    
   129   65   66 2    
   130   65   67 1    
   131   67   68 1    
   132   67   69 1    
   133   67  143 1    
   134   68  144 1    
   135   68  145 1    
   136   68  146 1    
   137   69   70 am   BACKBONE|DICT|INTERRES
   138   69  147 1    
   139   70   71 2    
   140   70   72 1    
   141   72   73 1    
   142   72   74 1    
   143   72  148 1    
   144   73  149 1    
   145   73  150 1    
   146   73  151 1    
   147   74   75 am   BACKBONE|DICT|INTERRES
   148   74  152 1    
   149   75   76 2    
   150   75   77 1    
   151   77   78 1    
   152   77   79 1    
   153   77  153 1    
   154   78  154 1    
   155   78  155 1    
   156   78  156 1    
   157   79   80 am   BACKBONE|DICT|INTERRES
   158   79  157 1    
   159   80   81 2    
@<TRIPOS>SUBSTRUCTURE
     1 UNK         1 GROUP             0       ****    0 ROOT    
