@<TRIPOS>MOLECULE
3R207
157   159    1
SMALL
USER_CHARGES


@<TRIPOS>ATOM
      1 CA        -49.3343  -30.5059   10.3696 C.3       0 UNK        -0.1975 
      2 C         -48.4070  -30.2509    9.1891 C.2       0 UNK         0.4852 
      3 O         -47.4218  -30.9681    9.0153 O.2       0 UNK        -0.5216 
      4 N         -48.6875  -29.2114    8.3921 N.am      1 UNK        -0.4461 
      5 CA        -47.9387  -28.7834    7.2004 C.3       1 UNK         0.0864 
      6 C6        -48.8419  -27.9985    6.2030 C.3       14 UNK        -0.0898 
      7 S7        -49.9370  -26.7612    6.9922 S.3       14 UNK        -0.2598 
      8 C8        -51.5698  -27.5302    6.7265 C.3       14 UNK         0.0286 
      9 C9        -52.5197  -27.2336    7.8744 C.ar      14 UNK        -0.0844 
     10 C10       -53.4646  -26.2077    7.7771 C.ar      14 UNK        -0.0881 
     11 C11       -54.3338  -25.9454    8.8418 C.ar      14 UNK        -0.0643 
     12 C12       -54.2707  -26.7318    9.9960 C.ar      14 UNK        -0.0930 
     13 C13       -53.3135  -27.7420   10.1107 C.ar      14 UNK        -0.0827 
     14 C14       -52.4492  -27.9948    9.0435 C.ar      14 UNK        -0.1249 
     15 C15       -53.1679  -28.5210   11.4063 C.3       14 UNK         0.0141 
     16 S16       -53.6534  -30.2655   11.2251 S.3       14 UNK        -0.2313 
     17 C17       -55.4672  -30.1435   11.0352 C.3       14 UNK        -0.0915 
     18 CA        -56.2639  -30.6224   12.2779 C.3       13 UNK         0.0968 
     19 C         -56.1624  -32.1624   12.4932 C.2       13 UNK         0.5732 
     20 N         -55.6151  -32.6471   13.6019 N.am      13 UNK        -0.7310 
     21 O         -56.6048  -32.9309   11.6423 O.2       13 UNK        -0.5035 
     22 N         -55.9634  -29.7975   13.4583 N.am      13 UNK        -0.4233 
     23 C         -56.7486  -29.6811   14.5367 C.2       13 UNK         0.4989 
     24 O         -57.8310  -30.2541   14.6657 O.2       13 UNK        -0.4996 
     25 CA        -56.2450  -28.7643   15.6638 C.3       12 UNK         0.0216 
     26 CB        -55.4424  -29.5736   16.6952 C.3       12 UNK        -0.1964 
     27 N         -55.4335  -27.6430   15.1759 N.am      12 UNK        -0.4276 
     28 C         -55.9361  -26.5745   14.5353 C.2       12 UNK         0.5020 
     29 O         -57.1348  -26.4503   14.2782 O.2       12 UNK        -0.5489 
     30 CA        -54.9570  -25.4667   14.0852 C.3       11 UNK         0.0294 
     31 CB        -55.5954  -24.0621   14.1087 C.3       11 UNK        -0.2019 
     32 N         -53.6702  -25.4618   14.7886 N.am      11 UNK        -0.4493 
     33 C         -53.4515  -25.3132   16.1036 C.2       11 UNK         0.4932 
     34 O         -54.3405  -25.0670   16.9201 O.2       11 UNK        -0.5029 
     35 CA        -51.9972  -25.5073   16.5901 C.3       10 UNK         0.0280 
     36 CB        -51.9314  -25.8776   18.0865 C.3       10 UNK        -0.1976 
     37 N         -51.2030  -26.4723   15.8109 N.am      10 UNK        -0.4242 
     38 C         -51.5327  -27.7376   15.4980 C.2       10 UNK         0.5072 
     39 O         -52.6336  -28.2388   15.7308 O.2       10 UNK        -0.5224 
     40 CA        -50.4596  -28.5611   14.7715 C.3       9 UNK         0.0343 
     41 CB        -50.9758  -29.9052   14.2221 C.3       9 UNK        -0.2003 
     42 N         -49.8592  -27.7554   13.7090 N.am      9 UNK        -0.4272 
     43 C         -48.5564  -27.7685   13.3993 C.2       9 UNK         0.4988 
     44 O         -47.7560  -28.5999   13.8283 O.2       9 UNK        -0.5108 
     45 CA        -48.0412  -26.6435   12.4810 C.3       8 UNK         0.0248 
     46 CB        -48.0876  -27.1113   11.0192 C.3       8 UNK        -0.2001 
     47 N         -48.7557  -25.3648   12.5970 N.am      8 UNK        -0.4140 
     48 C         -49.0240  -24.6921   13.7307 C.2       8 UNK         0.5028 
     49 O         -48.6885  -25.0729   14.8528 O.2       8 UNK        -0.5428 
     50 CA        -49.8645  -23.4042   13.6202 C.3       7 UNK         0.0264 
     51 CB        -48.9545  -22.1693   13.7159 C.3       7 UNK        -0.1988 
     52 N         -50.6741  -23.3032   12.4035 N.am      7 UNK        -0.4454 
     53 C         -51.5784  -24.1963   11.9741 C.2       7 UNK         0.5027 
     54 O         -51.8984  -25.2019   12.6137 O.2       7 UNK        -0.5083 
     55 CA        -52.1713  -23.9658   10.5675 C.3       6 UNK         0.0844 
     56 C56       -53.6201  -23.4175   10.6601 C.3       14 UNK        -0.0967 
     57 S57       -54.4047  -23.1863    9.0229 S.3       14 UNK        -0.2604 
     58 C58       -55.2883  -24.7637    8.7815 C.3       14 UNK         0.0134 
     59 N         -51.3272  -23.1585    9.6744 N.am      6 UNK        -0.4116 
     60 C         -50.0712  -23.4491    9.3107 C.2       5 UNK         0.5034 
     61 O         -49.4103  -24.3795    9.7841 O.2       5 UNK        -0.5045 
     62 CA        -49.4274  -22.5060    8.2898 C.3       5 UNK         0.0224 
     63 CB        -48.9901  -21.1917    8.9664 C.3       5 UNK        -0.1978 
     64 N         -48.2707  -23.1878    7.7250 N.am      5 UNK        -0.4737 
     65 C         -47.5853  -22.8497    6.6285 C.2       4 UNK         0.5027 
     66 O         -47.8876  -21.9029    5.9002 O.2       4 UNK        -0.5211 
     67 CA        -46.3571  -23.7236    6.2958 C.3       4 UNK         0.0297 
     68 CB        -45.2951  -22.9794    5.4587 C.3       4 UNK        -0.1993 
     69 N         -45.7608  -24.3477    7.4865 N.am      4 UNK        -0.4486 
     70 C         -45.2037  -23.7269    8.5404 C.2       3 UNK         0.4961 
     71 O         -45.0056  -22.5126    8.5919 O.2       3 UNK        -0.5105 
     72 CA        -44.8463  -24.5788    9.7746 C.3       3 UNK         0.0299 
     73 CB        -45.7003  -24.1469   10.9805 C.3       3 UNK        -0.1972 
     74 N         -45.0060  -26.0222    9.5641 N.am      3 UNK        -0.4305 
     75 C         -44.0887  -26.8072    8.9844 C.2       2 UNK         0.5006 
     76 O         -42.9962  -26.4015    8.5860 O.2       2 UNK        -0.5106 
     77 CA        -44.4394  -28.2981    8.8129 C.3       2 UNK         0.0296 
     78 CB        -44.0346  -29.0828   10.0718 C.3       2 UNK        -0.2002 
     79 N         -45.8353  -28.6210    8.4817 N.am      2 UNK        -0.4032 
     80 C         -46.5977  -28.0738    7.5233 C.2       1 UNK         0.5000 
     81 O         -46.2655  -27.0698    6.8928 O.2       1 UNK        -0.5238 
     82 H82       -48.7546  -30.6059   11.2871 H         1 UNK         0.0889 
     83 H83       -49.8919  -31.4294   10.2167 H         1 UNK         0.0889 
     84 H84       -50.0489  -29.6971   10.5149 H         1 UNK         0.0889 
     85 H85       -49.4864  -28.6274    8.5958 H         1 UNK         0.3028 
     86 H86       -47.6350  -29.6925    6.6766 H         1 UNK         0.0864 
     87 H87       -48.2572  -27.5009    5.4273 H         1 UNK         0.0720 
     88 H88       -49.4540  -28.7139    5.6529 H         1 UNK         0.0720 
     89 H89       -51.4731  -28.6127    6.6323 H         1 UNK         0.0814 
     90 H90       -51.9828  -27.1778    5.7802 H         1 UNK         0.0814 
     91 H91       -53.5066  -25.5943    6.8873 H         1 UNK         0.1469 
     92 H92       -54.9354  -26.5243   10.8221 H         1 UNK         0.1381 
     93 H93       -51.7166  -28.7839    9.1264 H         1 UNK         0.1206 
     94 H94       -53.7394  -28.0587   12.2119 H         1 UNK         0.0813 
     95 H95       -52.1225  -28.4734   11.7116 H         1 UNK         0.0813 
     96 H96       -55.7538  -30.7196   10.1537 H         1 UNK         0.0638 
     97 H97       -55.7407  -29.1136   10.8042 H         1 UNK         0.0638 
     98 H98       -57.3164  -30.4478   12.0466 H         1 UNK         0.0568 
     99 H99       -55.2483  -32.0268   14.3042 H         1 UNK         0.3450 
    100 H100      -55.5623  -33.6450   13.7296 H         1 UNK         0.3450 
    101 H101      -55.0741  -29.3240   13.4542 H         1 UNK         0.2987 
    102 H102      -57.1213  -28.3520   16.1689 H         1 UNK         0.0766 
    103 H103      -56.0516  -30.3690   17.1266 H         1 UNK         0.0798 
    104 H104      -55.1031  -28.9426   17.5170 H         1 UNK         0.0798 
    105 H105      -54.5637  -30.0414   16.2495 H         1 UNK         0.0798 
    106 H106      -54.4341  -27.6873   15.3676 H         1 UNK         0.3198 
    107 H107      -54.7178  -25.6975   13.0476 H         1 UNK         0.0843 
    108 H108      -55.9299  -23.7884   15.1097 H         1 UNK         0.0831 
    109 H109      -56.4646  -24.0141   13.4517 H         1 UNK         0.0831 
    110 H110      -54.8932  -23.3006   13.7697 H         1 UNK         0.0831 
    111 H111      -52.8634  -25.6009   14.1845 H         1 UNK         0.3133 
    112 H112      -51.5074  -24.5407   16.4673 H         1 UNK         0.0566 
    113 H113      -50.9005  -25.9764   18.4264 H         1 UNK         0.0814 
    114 H114      -52.4432  -26.8194   18.2887 H         1 UNK         0.0814 
    115 H115      -52.4003  -25.1113   18.7051 H         1 UNK         0.0814 
    116 H116      -50.2746  -26.1503   15.5505 H         1 UNK         0.3091 
    117 H117      -49.6999  -28.7804   15.5251 H         1 UNK         0.0702 
    118 H118      -50.2032  -30.4340   13.6641 H         1 UNK         0.0785 
    119 H119      -51.8358  -29.7758   13.5696 H         1 UNK         0.0785 
    120 H120      -51.2910  -30.5578   15.0371 H         1 UNK         0.0785 
    121 H121      -50.4442  -27.0334   13.3058 H         1 UNK         0.2998 
    122 H122      -47.0017  -26.4540   12.7537 H         1 UNK         0.0697 
    123 H123      -49.1087  -27.3317   10.7052 H         1 UNK         0.0825 
    124 H124      -47.4926  -28.0151   10.8881 H         1 UNK         0.0825 
    125 H125      -47.6980  -26.3603   10.3357 H         1 UNK         0.0825 
    126 H126      -49.0848  -24.9663   11.7229 H         1 UNK         0.3029 
    127 H127      -50.5517  -23.3934   14.4682 H         1 UNK         0.0897 
    128 H128      -48.2631  -22.1113   12.8739 H         1 UNK         0.0792 
    129 H129      -48.3555  -22.1948   14.6276 H         1 UNK         0.0792 
    130 H130      -49.5352  -21.2470   13.7399 H         1 UNK         0.0792 
    131 H131      -50.4778  -22.5164   11.8026 H         1 UNK         0.3086 
    132 H132      -52.1999  -24.9547   10.1133 H         1 UNK         0.0583 
    133 H133      -54.2471  -24.0770   11.2614 H         1 UNK         0.1020 
    134 H134      -53.6276  -22.4534   11.1723 H         1 UNK         0.1020 
    135 H135      -56.0734  -24.8572    9.5336 H         1 UNK         0.0694 
    136 H136      -55.7898  -24.7477    7.8128 H         1 UNK         0.0694 
    137 H137      -51.7904  -22.3745    9.2377 H         1 UNK         0.2989 
    138 H138      -50.1451  -22.3025    7.4921 H         1 UNK         0.1055 
    139 H139      -48.5393  -20.5047    8.2500 H         1 UNK         0.0806 
    140 H140      -48.2600  -21.3716    9.7570 H         1 UNK         0.0806 
    141 H141      -49.8388  -20.6730    9.4137 H         1 UNK         0.0806 
    142 H142      -47.9973  -24.0137    8.2440 H         1 UNK         0.3061 
    143 H143      -46.7351  -24.5466    5.6872 H         1 UNK         0.0734 
    144 H144      -44.9273  -22.0884    5.9679 H         1 UNK         0.0832 
    145 H145      -44.4408  -23.6204    5.2416 H         1 UNK         0.0832 
    146 H146      -45.7085  -22.6570    4.5024 H         1 UNK         0.0832 
    147 H147      -45.8559  -25.3616    7.5115 H         1 UNK         0.3156 
    148 H148      -43.8016  -24.3734   10.0176 H         1 UNK         0.0589 
    149 H149      -45.4716  -24.7386   11.8666 H         1 UNK         0.0808 
    150 H150      -46.7671  -24.2336   10.7756 H         1 UNK         0.0808 
    151 H151      -45.5104  -23.1036   11.2364 H         1 UNK         0.0808 
    152 H152      -45.8768  -26.4381    9.8556 H         1 UNK         0.3098 
    153 H153      -43.8359  -28.6659    7.9808 H         1 UNK         0.0720 
    154 H154      -42.9932  -28.8925   10.3360 H         1 UNK         0.0791 
    155 H155      -44.1357  -30.1578    9.9198 H         1 UNK         0.0791 
    156 H156      -44.6458  -28.8072   10.9323 H         1 UNK         0.0791 
    157 H157      -46.2054  -29.4703    8.8998 H         1 UNK         0.3028 
@<TRIPOS>BOND
     1    1    2 1    
     2    1   82 1    
     3    1   83 1    
     4    1   84 1    
     5    2    3 2    
     6    2    4 am   BACKBONE|DICT|INTERRES
     7    4    5 1    
     8    4   85 1    
     9    5    6 1    
    10    5   80 1    
    11    5   86 1    
    12    6    7 1    
    13    6   87 1    
    14    6   88 1    
    15    7    8 1    
    16    8    9 1    
    17    8   89 1    
    18    8   90 1    
    19    9   10 ar   
    20    9   14 ar   
    21   10   11 ar   
    22   10   91 1    
    23   11   12 ar   
    24   11   58 1    
    25   12   13 ar   
    26   12   92 1    
    27   13   14 ar   
    28   13   15 1    
    29   14   93 1    
    30   15   16 1    
    31   15   94 1    
    32   15   95 1    
    33   16   17 1    
    34   17   18 1    
    35   17   96 1    
    36   17   97 1    
    37   18   19 1    
    38   18   22 1    
    39   18   98 1    
    40   19   20 am   BACKBONE|DICT|INTERRES
    41   19   21 2    
    42   20   99 1    
    43   20  100 1    
    44   22   23 am   BACKBONE|DICT|INTERRES
    45   22  101 1    
    46   23   24 2    
    47   23   25 1    
    48   25   26 1    
    49   25   27 1    
    50   25  102 1    
    51   26  103 1    
    52   26  104 1    
    53   26  105 1    
    54   27   28 am   BACKBONE|DICT|INTERRES
    55   27  106 1    
    56   28   29 2    
    57   28   30 1    
    58   30   31 1    
    59   30   32 1    
    60   30  107 1    
    61   31  108 1    
    62   31  109 1    
    63   31  110 1    
    64   32   33 am   BACKBONE|DICT|INTERRES
    65   32  111 1    
    66   33   34 2    
    67   33   35 1    
    68   35   36 1    
    69   35   37 1    
    70   35  112 1    
    71   36  113 1    
    72   36  114 1    
    73   36  115 1    
    74   37   38 am   BACKBONE|DICT|INTERRES
    75   37  116 1    
    76   38   39 2    
    77   38   40 1    
    78   40   41 1    
    79   40   42 1    
    80   40  117 1    
    81   41  118 1    
    82   41  119 1    
    83   41  120 1    
    84   42   43 am   BACKBONE|DICT|INTERRES
    85   42  121 1    
    86   43   44 2    
    87   43   45 1    
    88   45   46 1    
    89   45   47 1    
    90   45  122 1    
    91   46  123 1    
    92   46  124 1    
    93   46  125 1    
    94   47   48 am   BACKBONE|DICT|INTERRES
    95   47  126 1    
    96   48   49 2    
    97   48   50 1    
    98   50   51 1    
    99   50   52 1    
   100   50  127 1    
   101   51  128 1    
   102   51  129 1    
   103   51  130 1    
   104   52   53 am   BACKBONE|DICT|INTERRES
   105   52  131 1    
   106   53   54 2    
   107   53   55 1    
   108   55   56 1    
   109   55   59 1    
   110   55  132 1    
   111   56   57 1    
   112   56  133 1    
   113   56  134 1    
   114   57   58 1    
   115   58  135 1    
   116   58  136 1    
   117   59   60 am   BACKBONE|DICT|INTERRES
   118   59  137 1    
   119   60   61 2    
   120   60   62 1    
   121   62   63 1    
   122   62   64 1    
   123   62  138 1    
   124   63  139 1    
   125   63  140 1    
   126   63  141 1    
   127   64   65 am   BACKBONE|DICT|INTERRES
   128   64  142 1    
   129   65   66 2    
   130   65   67 1    
   131   67   68 1    
   132   67   69 1    
   133   67  143 1    
   134   68  144 1    
   135   68  145 1    
   136   68  146 1    
   137   69   70 am   BACKBONE|DICT|INTERRES
   138   69  147 1    
   139   70   71 2    
   140   70   72 1    
   141   72   73 1    
   142   72   74 1    
   143   72  148 1    
   144   73  149 1    
   145   73  150 1    
   146   73  151 1    
   147   74   75 am   BACKBONE|DICT|INTERRES
   148   74  152 1    
   149   75   76 2    
   150   75   77 1    
   151   77   78 1    
   152   77   79 1    
   153   77  153 1    
   154   78  154 1    
   155   78  155 1    
   156   78  156 1    
   157   79   80 am   BACKBONE|DICT|INTERRES
   158   79  157 1    
   159   80   81 2    
@<TRIPOS>SUBSTRUCTURE
     1 UNK         1 GROUP             0       ****    0 ROOT    
