@<TRIPOS>MOLECULE
3R207
157   159    1
SMALL
USER_CHARGES


@<TRIPOS>ATOM
      1 CA        -47.2277  -27.7678   11.4246 C.3       0 UNK        -0.1975 
      2 C         -47.4447  -27.5675    9.9334 C.2       0 UNK         0.4852 
      3 O         -47.4819  -26.4298    9.4694 O.2       0 UNK        -0.5216 
      4 N         -47.5813  -28.6623    9.1707 N.am      1 UNK        -0.4461 
      5 CA        -47.7621  -28.6625    7.7091 C.3       1 UNK         0.0864 
      6 C6        -49.0434  -27.8919    7.2767 C.3       14 UNK        -0.0898 
      7 S7        -49.8219  -28.5569    5.7682 S.3       14 UNK        -0.2598 
      8 C8        -51.2883  -29.4068    6.4509 C.3       14 UNK         0.0286 
      9 C9        -52.2990  -28.4956    7.1505 C.ar      14 UNK        -0.0844 
     10 C10       -52.4977  -27.1655    6.7570 C.ar      14 UNK        -0.0881 
     11 C11       -53.4355  -26.3616    7.4108 C.ar      14 UNK        -0.0643 
     12 C12       -54.2078  -26.9037    8.4398 C.ar      14 UNK        -0.0930 
     13 C13       -54.0308  -28.2301    8.8395 C.ar      14 UNK        -0.0827 
     14 C14       -53.0694  -29.0160    8.1962 C.ar      14 UNK        -0.1249 
     15 C15       -54.8922  -28.8238    9.9463 C.3       14 UNK         0.0141 
     16 S16       -54.3530  -28.2710   11.5934 S.3       14 UNK        -0.2313 
     17 C17       -55.3353  -26.7472   11.8327 C.3       14 UNK        -0.0915 
     18 CA        -56.3420  -26.8286   13.0097 C.3       13 UNK         0.0968 
     19 C         -57.4369  -27.9168   12.7832 C.2       13 UNK         0.5732 
     20 N         -57.5526  -28.9447   13.6177 N.am      13 UNK        -0.7310 
     21 O         -58.2058  -27.8173   11.8299 O.2       13 UNK        -0.5035 
     22 N         -55.6512  -26.8875   14.3048 N.am      13 UNK        -0.4233 
     23 C         -56.2319  -26.6490   15.4875 C.2       13 UNK         0.4989 
     24 O         -57.3873  -26.2369   15.6091 O.2       13 UNK        -0.4996 
     25 CA        -55.3829  -26.9312   16.7421 C.3       12 UNK         0.0216 
     26 CB        -56.2332  -27.0878   18.0205 C.3       12 UNK        -0.1964 
     27 N         -54.4785  -28.0766   16.5869 N.am      12 UNK        -0.4276 
     28 C         -54.8058  -29.3452   16.2952 C.2       12 UNK         0.5020 
     29 O         -55.9539  -29.7276   16.0640 O.2       12 UNK        -0.5489 
     30 CA        -53.6508  -30.3598   16.2410 C.3       11 UNK         0.0294 
     31 CB        -53.1984  -30.5696   14.7889 C.3       11 UNK        -0.2019 
     32 N         -52.5069  -29.9437   17.0605 N.am      11 UNK        -0.4493 
     33 C         -52.4514  -30.0602   18.3940 C.2       11 UNK         0.4932 
     34 O         -53.3206  -30.6133   19.0681 O.2       11 UNK        -0.5029 
     35 CA        -51.2397  -29.4316   19.1058 C.3       10 UNK         0.0280 
     36 CB        -49.9140  -30.1069   18.6968 C.3       10 UNK        -0.1976 
     37 N         -51.1827  -27.9679   18.9724 N.am      10 UNK        -0.4242 
     38 C         -50.9695  -27.2483   17.8630 C.2       10 UNK         0.5072 
     39 O         -50.7380  -27.7410   16.7550 O.2       10 UNK        -0.5224 
     40 CA        -51.0299  -25.7221   18.0164 C.3       9 UNK         0.0343 
     41 CB        -49.6788  -25.1728   18.5026 C.3       9 UNK        -0.2003 
     42 N         -51.3330  -25.1504   16.7083 N.am      9 UNK        -0.4272 
     43 C         -52.4030  -24.4115   16.3950 C.2       9 UNK         0.4988 
     44 O         -53.1906  -23.9630   17.2284 O.2       9 UNK        -0.5108 
     45 CA        -52.6599  -24.1338   14.8986 C.3       8 UNK         0.0248 
     46 CB        -52.4733  -22.6409   14.5822 C.3       8 UNK        -0.2001 
     47 N         -51.8161  -24.9185   13.9911 N.am      8 UNK        -0.4140 
     48 C         -51.8996  -26.2389   13.7876 C.2       8 UNK         0.5028 
     49 O         -52.7602  -26.9533   14.3037 O.2       8 UNK        -0.5428 
     50 CA        -50.8208  -26.8391   12.8669 C.3       7 UNK         0.0264 
     51 CB        -50.7828  -28.3767   12.8906 C.3       7 UNK        -0.1988 
     52 N         -50.9528  -26.3760   11.4824 N.am      7 UNK        -0.4454 
     53 C         -50.5401  -25.1808   11.0375 C.2       7 UNK         0.5027 
     54 O         -50.0629  -24.3184   11.7797 O.2       7 UNK        -0.5083 
     55 CA        -50.6829  -24.9215    9.5258 C.3       6 UNK         0.0844 
     56 C56       -51.9583  -24.1030    9.1821 C.3       14 UNK        -0.0967 
     57 S57       -52.1675  -23.8829    7.3777 S.3       14 UNK        -0.2604 
     58 C58       -53.6258  -24.9080    7.0029 C.3       14 UNK         0.0134 
     59 N         -49.4295  -24.3843    8.9831 N.am      6 UNK        -0.4116 
     60 C         -48.9550  -23.1308    9.0292 C.2       5 UNK         0.5034 
     61 O         -49.5352  -22.1722    9.5409 O.2       5 UNK        -0.5045 
     62 CA        -47.5928  -22.8955    8.3489 C.3       5 UNK         0.0224 
     63 CB        -46.4363  -23.0616    9.3478 C.3       5 UNK        -0.1978 
     64 N         -47.3678  -23.7637    7.1869 N.am      5 UNK        -0.4737 
     65 C         -48.0329  -23.6487    6.0263 C.2       4 UNK         0.5027 
     66 O         -48.8798  -22.7793    5.8159 O.2       4 UNK        -0.5211 
     67 CA        -47.6851  -24.6616    4.9156 C.3       4 UNK         0.0297 
     68 CB        -48.1867  -24.2271    3.5220 C.3       4 UNK        -0.1993 
     69 N         -46.2594  -25.0059    4.8729 N.am      4 UNK        -0.4486 
     70 C         -45.2233  -24.1692    4.6888 C.2       3 UNK         0.4961 
     71 O         -45.3508  -22.9661    4.4563 O.2       3 UNK        -0.5105 
     72 CA        -43.8009  -24.7701    4.7653 C.3       3 UNK         0.0299 
     73 CB        -42.7809  -23.7829    5.3732 C.3       3 UNK        -0.1972 
     74 N         -43.7307  -26.0728    5.4423 N.am      3 UNK        -0.4305 
     75 C         -44.0599  -26.3426    6.7137 C.2       2 UNK         0.5006 
     76 O         -44.4337  -25.5007    7.5330 O.2       2 UNK        -0.5106 
     77 CA        -44.0209  -27.8264    7.1163 C.3       2 UNK         0.0296 
     78 CB        -42.9492  -28.0727    8.1909 C.3       2 UNK        -0.2002 
     79 N         -45.3213  -28.2825    7.6128 N.am      2 UNK        -0.4032 
     80 C         -46.4869  -28.2109    6.9483 C.2       1 UNK         0.5000 
     81 O         -46.5688  -27.8104    5.7843 O.2       1 UNK        -0.5238 
     82 H82       -47.8858  -27.1094   11.9892 H         1 UNK         0.0889 
     83 H83       -46.1991  -27.5227   11.6872 H         1 UNK         0.0889 
     84 H84       -47.4254  -28.7944   11.7320 H         1 UNK         0.0889 
     85 H85       -47.5478  -29.5759    9.6034 H         1 UNK         0.3028 
     86 H86       -47.8980  -29.7126    7.4457 H         1 UNK         0.0864 
     87 H87       -49.7815  -27.9282    8.0785 H         1 UNK         0.0720 
     88 H88       -48.8371  -26.8313    7.1280 H         1 UNK         0.0720 
     89 H89       -50.9427  -30.1810    7.1380 H         1 UNK         0.0814 
     90 H90       -51.7983  -29.9232    5.6369 H         1 UNK         0.0814 
     91 H91       -51.9180  -26.7426    5.9484 H         1 UNK         0.1469 
     92 H92       -54.9491  -26.2881    8.9266 H         1 UNK         0.1381 
     93 H93       -52.9314  -30.0446    8.5013 H         1 UNK         0.1206 
     94 H94       -54.8391  -29.9131    9.9184 H         1 UNK         0.0813 
     95 H95       -55.9418  -28.5732    9.7857 H         1 UNK         0.0813 
     96 H96       -55.8730  -26.4997   10.9182 H         1 UNK         0.0638 
     97 H97       -54.6395  -25.9226   11.9956 H         1 UNK         0.0638 
     98 H98       -56.8867  -25.8826   13.0069 H         1 UNK         0.0568 
     99 H99       -58.2706  -29.6307   13.4514 H         1 UNK         0.3450 
    100 H100      -56.9350  -29.0484   14.4156 H         1 UNK         0.3450 
    101 H101      -54.6760  -27.1772   14.2806 H         1 UNK         0.2987 
    102 H102      -54.7499  -26.0567   16.8772 H         1 UNK         0.0766 
    103 H103      -56.8128  -26.1856   18.2197 H         1 UNK         0.0798 
    104 H104      -55.6061  -27.2671   18.8939 H         1 UNK         0.0798 
    105 H105      -56.9375  -27.9163   17.9375 H         1 UNK         0.0798 
    106 H106      -53.4916  -27.8652   16.6397 H         1 UNK         0.3198 
    107 H107      -54.0259  -31.3124   16.6218 H         1 UNK         0.0843 
    108 H108      -52.8938  -29.6308   14.3297 H         1 UNK         0.0831 
    109 H109      -54.0117  -30.9718   14.1832 H         1 UNK         0.0831 
    110 H110      -52.3647  -31.2685   14.7226 H         1 UNK         0.0831 
    111 H111      -51.7688  -29.4107   16.6074 H         1 UNK         0.3133 
    112 H112      -51.3739  -29.6201   20.1724 H         1 UNK         0.0566 
    113 H113      -49.0760  -29.7079   19.2682 H         1 UNK         0.0814 
    114 H114      -49.6865  -29.9767   17.6387 H         1 UNK         0.0814 
    115 H115      -49.9524  -31.1803   18.8869 H         1 UNK         0.0814 
    116 H116      -51.3766  -27.4604   19.8253 H         1 UNK         0.3091 
    117 H117      -51.8084  -25.4703   18.7397 H         1 UNK         0.0702 
    118 H118      -49.7041  -24.0865   18.5909 H         1 UNK         0.0785 
    119 H119      -48.8675  -25.4336   17.8214 H         1 UNK         0.0785 
    120 H120      -49.4221  -25.5714   19.4849 H         1 UNK         0.0785 
    121 H121      -50.7955  -25.5430   15.9481 H         1 UNK         0.2998 
    122 H122      -53.7003  -24.3984   14.6983 H         1 UNK         0.0697 
    123 H123      -51.4457  -22.3181   14.7540 H         1 UNK         0.0825 
    124 H124      -53.1185  -22.0234   15.2087 H         1 UNK         0.0825 
    125 H125      -52.7256  -22.4204   13.5447 H         1 UNK         0.0825 
    126 H126      -51.1034  -24.4146   13.4707 H         1 UNK         0.3029 
    127 H127      -49.8603  -26.4975   13.2587 H         1 UNK         0.0897 
    128 H128      -51.6879  -28.8147   12.4740 H         1 UNK         0.0792 
    129 H129      -50.6759  -28.7452   13.9119 H         1 UNK         0.0792 
    130 H130      -49.9388  -28.7626   12.3203 H         1 UNK         0.0792 
    131 H131      -51.3966  -27.0166   10.8388 H         1 UNK         0.3086 
    132 H132      -50.7927  -25.8952    9.0461 H         1 UNK         0.0583 
    133 H133      -52.8444  -24.5901    9.5923 H         1 UNK         0.1020 
    134 H134      -51.9274  -23.1177    9.6494 H         1 UNK         0.1020 
    135 H135      -54.4980  -24.4742    7.4945 H         1 UNK         0.0694 
    136 H136      -53.8238  -24.8604    5.9312 H         1 UNK         0.0694 
    137 H137      -48.7739  -25.0907    8.6683 H         1 UNK         0.2989 
    138 H138      -47.5852  -21.8612    7.9974 H         1 UNK         0.1055 
    139 H139      -46.3647  -24.0829    9.7216 H         1 UNK         0.0806 
    140 H140      -46.5692  -22.4074   10.2104 H         1 UNK         0.0806 
    141 H141      -45.4794  -22.8078    8.8910 H         1 UNK         0.0806 
    142 H142      -46.6598  -24.4819    7.2820 H         1 UNK         0.3061 
    143 H143      -48.2100  -25.5821    5.1735 H         1 UNK         0.0734 
    144 H144      -49.2701  -24.1012    3.5195 H         1 UNK         0.0832 
    145 H145      -47.7490  -23.2780    3.2115 H         1 UNK         0.0832 
    146 H146      -47.9474  -24.9726    2.7639 H         1 UNK         0.0832 
    147 H147      -46.0591  -25.9820    5.0734 H         1 UNK         0.3156 
    148 H148      -43.5019  -24.9542    3.7325 H         1 UNK         0.0589 
    149 H149      -41.7820  -24.2171    5.4129 H         1 UNK         0.0808 
    150 H150      -42.7118  -22.8725    4.7765 H         1 UNK         0.0808 
    151 H151      -43.0587  -23.4856    6.3850 H         1 UNK         0.0808 
    152 H152      -43.4640  -26.8484    4.8506 H         1 UNK         0.3098 
    153 H153      -43.7743  -28.4305    6.2408 H         1 UNK         0.0720 
    154 H154      -41.9660  -27.7557    7.8404 H         1 UNK         0.0791 
    155 H155      -42.8758  -29.1301    8.4457 H         1 UNK         0.0791 
    156 H156      -43.1621  -27.5193    9.1068 H         1 UNK         0.0791 
    157 H157      -45.3497  -28.5969    8.5708 H         1 UNK         0.3028 
@<TRIPOS>BOND
     1    1    2 1    
     2    1   82 1    
     3    1   83 1    
     4    1   84 1    
     5    2    3 2    
     6    2    4 am   BACKBONE|DICT|INTERRES
     7    4    5 1    
     8    4   85 1    
     9    5    6 1    
    10    5   80 1    
    11    5   86 1    
    12    6    7 1    
    13    6   87 1    
    14    6   88 1    
    15    7    8 1    
    16    8    9 1    
    17    8   89 1    
    18    8   90 1    
    19    9   10 ar   
    20    9   14 ar   
    21   10   11 ar   
    22   10   91 1    
    23   11   12 ar   
    24   11   58 1    
    25   12   13 ar   
    26   12   92 1    
    27   13   14 ar   
    28   13   15 1    
    29   14   93 1    
    30   15   16 1    
    31   15   94 1    
    32   15   95 1    
    33   16   17 1    
    34   17   18 1    
    35   17   96 1    
    36   17   97 1    
    37   18   19 1    
    38   18   22 1    
    39   18   98 1    
    40   19   20 am   BACKBONE|DICT|INTERRES
    41   19   21 2    
    42   20   99 1    
    43   20  100 1    
    44   22   23 am   BACKBONE|DICT|INTERRES
    45   22  101 1    
    46   23   24 2    
    47   23   25 1    
    48   25   26 1    
    49   25   27 1    
    50   25  102 1    
    51   26  103 1    
    52   26  104 1    
    53   26  105 1    
    54   27   28 am   BACKBONE|DICT|INTERRES
    55   27  106 1    
    56   28   29 2    
    57   28   30 1    
    58   30   31 1    
    59   30   32 1    
    60   30  107 1    
    61   31  108 1    
    62   31  109 1    
    63   31  110 1    
    64   32   33 am   BACKBONE|DICT|INTERRES
    65   32  111 1    
    66   33   34 2    
    67   33   35 1    
    68   35   36 1    
    69   35   37 1    
    70   35  112 1    
    71   36  113 1    
    72   36  114 1    
    73   36  115 1    
    74   37   38 am   BACKBONE|DICT|INTERRES
    75   37  116 1    
    76   38   39 2    
    77   38   40 1    
    78   40   41 1    
    79   40   42 1    
    80   40  117 1    
    81   41  118 1    
    82   41  119 1    
    83   41  120 1    
    84   42   43 am   BACKBONE|DICT|INTERRES
    85   42  121 1    
    86   43   44 2    
    87   43   45 1    
    88   45   46 1    
    89   45   47 1    
    90   45  122 1    
    91   46  123 1    
    92   46  124 1    
    93   46  125 1    
    94   47   48 am   BACKBONE|DICT|INTERRES
    95   47  126 1    
    96   48   49 2    
    97   48   50 1    
    98   50   51 1    
    99   50   52 1    
   100   50  127 1    
   101   51  128 1    
   102   51  129 1    
   103   51  130 1    
   104   52   53 am   BACKBONE|DICT|INTERRES
   105   52  131 1    
   106   53   54 2    
   107   53   55 1    
   108   55   56 1    
   109   55   59 1    
   110   55  132 1    
   111   56   57 1    
   112   56  133 1    
   113   56  134 1    
   114   57   58 1    
   115   58  135 1    
   116   58  136 1    
   117   59   60 am   BACKBONE|DICT|INTERRES
   118   59  137 1    
   119   60   61 2    
   120   60   62 1    
   121   62   63 1    
   122   62   64 1    
   123   62  138 1    
   124   63  139 1    
   125   63  140 1    
   126   63  141 1    
   127   64   65 am   BACKBONE|DICT|INTERRES
   128   64  142 1    
   129   65   66 2    
   130   65   67 1    
   131   67   68 1    
   132   67   69 1    
   133   67  143 1    
   134   68  144 1    
   135   68  145 1    
   136   68  146 1    
   137   69   70 am   BACKBONE|DICT|INTERRES
   138   69  147 1    
   139   70   71 2    
   140   70   72 1    
   141   72   73 1    
   142   72   74 1    
   143   72  148 1    
   144   73  149 1    
   145   73  150 1    
   146   73  151 1    
   147   74   75 am   BACKBONE|DICT|INTERRES
   148   74  152 1    
   149   75   76 2    
   150   75   77 1    
   151   77   78 1    
   152   77   79 1    
   153   77  153 1    
   154   78  154 1    
   155   78  155 1    
   156   78  156 1    
   157   79   80 am   BACKBONE|DICT|INTERRES
   158   79  157 1    
   159   80   81 2    
@<TRIPOS>SUBSTRUCTURE
     1 UNK         1 GROUP             0       ****    0 ROOT    
