@<TRIPOS>MOLECULE
3R207
157   159    1
SMALL
USER_CHARGES


@<TRIPOS>ATOM
      1 CA        -51.1368  -26.2115    9.9609 C.3       0 UNK        -0.1975 
      2 C         -50.5931  -27.4353    9.2439 C.2       0 UNK         0.4852 
      3 O         -49.6383  -28.0503    9.7227 O.2       0 UNK        -0.5216 
      4 N         -51.1956  -27.7981    8.1030 N.am      1 UNK        -0.4461 
      5 CA        -50.7920  -28.9464    7.2892 C.3       1 UNK         0.0864 
      6 C6        -51.8057  -29.2577    6.1604 C.3       14 UNK        -0.0898 
      7 S7        -51.9863  -27.9468    4.8995 S.3       14 UNK        -0.2598 
      8 C8        -53.7327  -27.4756    5.0771 C.3       14 UNK         0.0286 
      9 C9        -53.9479  -26.4682    6.1969 C.ar      14 UNK        -0.0844 
     10 C10       -53.6713  -25.1170    5.9756 C.ar      14 UNK        -0.0881 
     11 C11       -53.9597  -24.1613    6.9523 C.ar      14 UNK        -0.0643 
     12 C12       -54.5065  -24.5735    8.1726 C.ar      14 UNK        -0.0930 
     13 C13       -54.7918  -25.9248    8.4135 C.ar      14 UNK        -0.0827 
     14 C14       -54.4982  -26.8679    7.4180 C.ar      14 UNK        -0.1249 
     15 C15       -55.5105  -26.2957    9.7145 C.3       14 UNK         0.0141 
     16 S16       -55.5310  -28.0719   10.1540 S.3       14 UNK        -0.2313 
     17 C17       -54.2208  -28.1298   11.4143 C.3       14 UNK        -0.0915 
     18 CA        -53.9103  -29.5582   11.9402 C.3       13 UNK         0.0968 
     19 C         -52.9142  -30.3215   11.0093 C.2       13 UNK         0.5732 
     20 N         -51.7511  -30.7639   11.4747 N.am      13 UNK        -0.7310 
     21 O         -53.2058  -30.5295    9.8347 O.2       13 UNK        -0.5035 
     22 N         -53.5219  -29.4989   13.3580 N.am      13 UNK        -0.4233 
     23 C         -53.4692  -30.5322   14.2083 C.2       13 UNK         0.4989 
     24 O         -53.8724  -31.6654   13.9413 O.2       13 UNK        -0.4996 
     25 CA        -52.8101  -30.2342   15.5730 C.3       12 UNK         0.0216 
     26 CB        -52.4458  -31.5068   16.3665 C.3       12 UNK        -0.1964 
     27 N         -51.6466  -29.3456   15.4274 N.am      12 UNK        -0.4276 
     28 C         -50.5498  -29.5745   14.6885 C.2       12 UNK         0.5020 
     29 O         -50.3027  -30.6489   14.1401 O.2       12 UNK        -0.5489 
     30 CA        -49.6200  -28.3807   14.4192 C.3       11 UNK         0.0294 
     31 CB        -49.9464  -27.7983   13.0384 C.3       11 UNK        -0.2019 
     32 N         -49.7243  -27.2995   15.3967 N.am      11 UNK        -0.4493 
     33 C         -49.2755  -27.3464   16.6567 C.2       11 UNK         0.4932 
     34 O         -48.7051  -28.3179   17.1525 O.2       11 UNK        -0.5029 
     35 CA        -49.5260  -26.0921   17.5057 C.3       10 UNK         0.0280 
     36 CB        -48.4784  -25.0087   17.1993 C.3       10 UNK        -0.1976 
     37 N         -50.8701  -25.5589   17.2729 N.am      10 UNK        -0.4242 
     38 C         -51.9814  -26.0458   17.8430 C.2       10 UNK         0.5072 
     39 O         -51.9837  -26.9577   18.6705 O.2       10 UNK        -0.5224 
     40 CA        -53.3222  -25.4185   17.4230 C.3       9 UNK         0.0343 
     41 CB        -53.6879  -24.2557   18.3595 C.3       9 UNK        -0.2003 
     42 N         -53.3430  -24.9476   16.0365 N.am      9 UNK        -0.4272 
     43 C         -53.3344  -25.7475   14.9619 C.2       9 UNK         0.4988 
     44 O         -53.2830  -26.9766   15.0095 O.2       9 UNK        -0.5108 
     45 CA        -53.3611  -25.0568   13.5914 C.3       8 UNK         0.0248 
     46 CB        -54.7908  -24.6087   13.2473 C.3       8 UNK        -0.2001 
     47 N         -52.4530  -23.9168   13.4468 N.am      8 UNK        -0.4140 
     48 C         -51.1480  -23.8800   13.7468 C.2       8 UNK         0.5028 
     49 O         -50.5514  -24.7743   14.3503 O.2       8 UNK        -0.5428 
     50 CA        -50.3826  -22.6521   13.2201 C.3       7 UNK         0.0264 
     51 CB        -48.9562  -22.5569   13.7909 C.3       7 UNK        -0.1988 
     52 N         -50.3260  -22.6851   11.7531 N.am      7 UNK        -0.4454 
     53 C         -51.3357  -22.3323   10.9408 C.2       7 UNK         0.5027 
     54 O         -52.3950  -21.8671   11.3673 O.2       7 UNK        -0.5083 
     55 CA        -51.1845  -22.6070    9.4255 C.3       6 UNK         0.0844 
     56 C56       -51.9801  -21.6039    8.5505 C.3       14 UNK        -0.0967 
     57 S57       -52.0482  -22.1261    6.8023 S.3       14 UNK        -0.2604 
     58 C58       -53.7750  -22.6820    6.6334 C.3       14 UNK         0.0134 
     59 N         -49.7940  -22.8038    8.9908 N.am      6 UNK        -0.4116 
     60 C         -48.8197  -21.8865    8.9554 C.2       5 UNK         0.5034 
     61 O         -48.9476  -20.7306    9.3623 O.2       5 UNK        -0.5045 
     62 CA        -47.4646  -22.3676    8.3986 C.3       5 UNK         0.0224 
     63 CB        -46.4686  -21.2113    8.1883 C.3       5 UNK        -0.1978 
     64 N         -46.8457  -23.3722    9.2691 N.am      5 UNK        -0.4737 
     65 C         -47.2075  -24.6584    9.3490 C.2       4 UNK         0.5027 
     66 O         -48.1151  -25.1536    8.6798 O.2       4 UNK        -0.5211 
     67 CA        -46.4671  -25.5019   10.3902 C.3       4 UNK         0.0297 
     68 CB        -46.9314  -25.1340   11.8118 C.3       4 UNK        -0.1993 
     69 N         -46.6897  -26.9276   10.1494 N.am      4 UNK        -0.4486 
     70 C         -45.8530  -27.8929   10.5518 C.2       3 UNK         0.4961 
     71 O         -44.8011  -27.6740   11.1548 O.2       3 UNK        -0.5105 
     72 CA        -46.2345  -29.3498   10.2495 C.3       3 UNK         0.0299 
     73 CB        -47.0977  -29.9310   11.3802 C.3       3 UNK        -0.1972 
     74 N         -46.9243  -29.5218    8.9707 N.am      3 UNK        -0.4305 
     75 C         -46.3075  -29.5758    7.7798 C.2       2 UNK         0.5006 
     76 O         -45.0972  -29.3970    7.6350 O.2       2 UNK        -0.5106 
     77 CA        -47.1540  -29.9368    6.5412 C.3       2 UNK         0.0296 
     78 CB        -46.7706  -31.3315    6.0165 C.3       2 UNK        -0.2002 
     79 N         -48.5941  -29.9148    6.8077 N.am      2 UNK        -0.4032 
     80 C         -49.3407  -28.8046    6.7753 C.2       1 UNK         0.5000 
     81 O         -48.9189  -27.7106    6.3905 O.2       1 UNK        -0.5238 
     82 H82       -51.4049  -26.4558   10.9845 H         1 UNK         0.0889 
     83 H83       -52.0216  -25.8168    9.4635 H         1 UNK         0.0889 
     84 H84       -50.3729  -25.4394    9.9990 H         1 UNK         0.0889 
     85 H85       -51.9480  -27.2401    7.7229 H         1 UNK         0.3028 
     86 H86       -50.8109  -29.8026    7.9678 H         1 UNK         0.0864 
     87 H87       -52.7786  -29.4719    6.6054 H         1 UNK         0.0720 
     88 H88       -51.5184  -30.1764    5.6458 H         1 UNK         0.0720 
     89 H89       -54.3485  -28.3643    5.2240 H         1 UNK         0.0814 
     90 H90       -54.0681  -27.0374    4.1359 H         1 UNK         0.0814 
     91 H91       -53.2672  -24.8025    5.0226 H         1 UNK         0.1469 
     92 H92       -54.7576  -23.8319    8.9189 H         1 UNK         0.1381 
     93 H93       -54.7372  -27.9116    7.5641 H         1 UNK         0.1206 
     94 H94       -56.5461  -25.9644    9.6287 H         1 UNK         0.0813 
     95 H95       -55.0798  -25.7291   10.5389 H         1 UNK         0.0813 
     96 H96       -54.5734  -27.5024   12.2332 H         1 UNK         0.0638 
     97 H97       -53.3258  -27.6486   11.0246 H         1 UNK         0.0638 
     98 H98       -54.8363  -30.1354   11.9133 H         1 UNK         0.0568 
     99 H99       -51.1382  -31.2566   10.8470 H         1 UNK         0.3450 
    100 H100      -51.4826  -30.6515   12.4444 H         1 UNK         0.3450 
    101 H101      -53.2188  -28.5969   13.7056 H         1 UNK         0.2987 
    102 H102      -53.5485  -29.6797   16.1544 H         1 UNK         0.0766 
    103 H103      -53.3352  -32.1006   16.5806 H         1 UNK         0.0798 
    104 H104      -51.9842  -31.2584   17.3221 H         1 UNK         0.0798 
    105 H105      -51.7546  -32.1458   15.8161 H         1 UNK         0.0798 
    106 H106      -51.7900  -28.3973   15.7542 H         1 UNK         0.3198 
    107 H107      -48.5935  -28.7536   14.4132 H         1 UNK         0.0843 
    108 H108      -50.9111  -27.2920   13.0455 H         1 UNK         0.0831 
    109 H109      -49.9990  -28.5779   12.2792 H         1 UNK         0.0831 
    110 H110      -49.1906  -27.0832   12.7182 H         1 UNK         0.0831 
    111 H111      -50.1211  -26.4226   15.0604 H         1 UNK         0.3133 
    112 H112      -49.4286  -26.3673   18.5582 H         1 UNK         0.0566 
    113 H113      -48.6286  -24.1250   17.8196 H         1 UNK         0.0814 
    114 H114      -48.5092  -24.6945   16.1554 H         1 UNK         0.0814 
    115 H115      -47.4707  -25.3762   17.3976 H         1 UNK         0.0814 
    116 H116      -50.9618  -24.8605   16.5463 H         1 UNK         0.3091 
    117 H117      -54.0888  -26.1900   17.5250 H         1 UNK         0.0702 
    118 H118      -54.6764  -23.8572   18.1303 H         1 UNK         0.0785 
    119 H119      -52.9699  -23.4376   18.2889 H         1 UNK         0.0785 
    120 H120      -53.7066  -24.5840   19.3998 H         1 UNK         0.0785 
    121 H121      -53.3763  -23.9490   15.8907 H         1 UNK         0.2998 
    122 H122      -53.0442  -25.7924   12.8517 H         1 UNK         0.0697 
    123 H123      -55.1637  -23.8694   13.9574 H         1 UNK         0.0825 
    124 H124      -55.4835  -25.4514   13.2636 H         1 UNK         0.0825 
    125 H125      -54.8419  -24.1625   12.2545 H         1 UNK         0.0825 
    126 H126      -52.8089  -23.1296   12.9138 H         1 UNK         0.3029 
    127 H127      -50.9247  -21.7584   13.5378 H         1 UNK         0.0897 
    128 H128      -48.3744  -23.4551   13.5901 H         1 UNK         0.0792 
    129 H129      -48.9832  -22.4301   14.8738 H         1 UNK         0.0792 
    130 H130      -48.4166  -21.7042   13.3786 H         1 UNK         0.0792 
    131 H131      -49.4933  -23.0765   11.3402 H         1 UNK         0.3086 
    132 H132      -51.6693  -23.5699    9.2801 H         1 UNK         0.0583 
    133 H133      -52.9991  -21.4840    8.9217 H         1 UNK         0.1020 
    134 H134      -51.5319  -20.6103    8.6007 H         1 UNK         0.1020 
    135 H135      -54.4364  -22.0673    7.2454 H         1 UNK         0.0694 
    136 H136      -54.0865  -22.5037    5.6030 H         1 UNK         0.0694 
    137 H137      -49.5515  -23.7361    8.6688 H         1 UNK         0.2989 
    138 H138      -47.6588  -22.8187    7.4223 H         1 UNK         0.1055 
    139 H139      -46.2112  -20.7205    9.1278 H         1 UNK         0.0806 
    140 H140      -46.8875  -20.4509    7.5275 H         1 UNK         0.0806 
    141 H141      -45.5445  -21.5623    7.7286 H         1 UNK         0.0806 
    142 H142      -46.1111  -23.0395    9.8781 H         1 UNK         0.3061 
    143 H143      -45.4007  -25.2876   10.2897 H         1 UNK         0.0734 
    144 H144      -48.0105  -25.2437   11.9207 H         1 UNK         0.0832 
    145 H145      -46.4543  -25.7583   12.5674 H         1 UNK         0.0832 
    146 H146      -46.6788  -24.1002   12.0485 H         1 UNK         0.0832 
    147 H147      -47.5416  -27.1611    9.6472 H         1 UNK         0.3156 
    148 H148      -45.3079  -29.9275   10.2183 H         1 UNK         0.0589 
    149 H149      -48.0670  -29.4393   11.4369 H         1 UNK         0.0808 
    150 H150      -46.6122  -29.8073   12.3493 H         1 UNK         0.0808 
    151 H151      -47.2722  -30.9977   11.2393 H         1 UNK         0.0808 
    152 H152      -47.9318  -29.5944    9.0096 H         1 UNK         0.3098 
    153 H153      -46.9184  -29.2081    5.7623 H         1 UNK         0.0720 
    154 H154      -45.7098  -31.3773    5.7657 H         1 UNK         0.0791 
    155 H155      -47.3252  -31.5812    5.1116 H         1 UNK         0.0791 
    156 H156      -46.9639  -32.1098    6.7558 H         1 UNK         0.0791 
    157 H157      -49.0099  -30.7830    7.1147 H         1 UNK         0.3028 
@<TRIPOS>BOND
     1    1    2 1    
     2    1   82 1    
     3    1   83 1    
     4    1   84 1    
     5    2    3 2    
     6    2    4 am   BACKBONE|DICT|INTERRES
     7    4    5 1    
     8    4   85 1    
     9    5    6 1    
    10    5   80 1    
    11    5   86 1    
    12    6    7 1    
    13    6   87 1    
    14    6   88 1    
    15    7    8 1    
    16    8    9 1    
    17    8   89 1    
    18    8   90 1    
    19    9   10 ar   
    20    9   14 ar   
    21   10   11 ar   
    22   10   91 1    
    23   11   12 ar   
    24   11   58 1    
    25   12   13 ar   
    26   12   92 1    
    27   13   14 ar   
    28   13   15 1    
    29   14   93 1    
    30   15   16 1    
    31   15   94 1    
    32   15   95 1    
    33   16   17 1    
    34   17   18 1    
    35   17   96 1    
    36   17   97 1    
    37   18   19 1    
    38   18   22 1    
    39   18   98 1    
    40   19   20 am   BACKBONE|DICT|INTERRES
    41   19   21 2    
    42   20   99 1    
    43   20  100 1    
    44   22   23 am   BACKBONE|DICT|INTERRES
    45   22  101 1    
    46   23   24 2    
    47   23   25 1    
    48   25   26 1    
    49   25   27 1    
    50   25  102 1    
    51   26  103 1    
    52   26  104 1    
    53   26  105 1    
    54   27   28 am   BACKBONE|DICT|INTERRES
    55   27  106 1    
    56   28   29 2    
    57   28   30 1    
    58   30   31 1    
    59   30   32 1    
    60   30  107 1    
    61   31  108 1    
    62   31  109 1    
    63   31  110 1    
    64   32   33 am   BACKBONE|DICT|INTERRES
    65   32  111 1    
    66   33   34 2    
    67   33   35 1    
    68   35   36 1    
    69   35   37 1    
    70   35  112 1    
    71   36  113 1    
    72   36  114 1    
    73   36  115 1    
    74   37   38 am   BACKBONE|DICT|INTERRES
    75   37  116 1    
    76   38   39 2    
    77   38   40 1    
    78   40   41 1    
    79   40   42 1    
    80   40  117 1    
    81   41  118 1    
    82   41  119 1    
    83   41  120 1    
    84   42   43 am   BACKBONE|DICT|INTERRES
    85   42  121 1    
    86   43   44 2    
    87   43   45 1    
    88   45   46 1    
    89   45   47 1    
    90   45  122 1    
    91   46  123 1    
    92   46  124 1    
    93   46  125 1    
    94   47   48 am   BACKBONE|DICT|INTERRES
    95   47  126 1    
    96   48   49 2    
    97   48   50 1    
    98   50   51 1    
    99   50   52 1    
   100   50  127 1    
   101   51  128 1    
   102   51  129 1    
   103   51  130 1    
   104   52   53 am   BACKBONE|DICT|INTERRES
   105   52  131 1    
   106   53   54 2    
   107   53   55 1    
   108   55   56 1    
   109   55   59 1    
   110   55  132 1    
   111   56   57 1    
   112   56  133 1    
   113   56  134 1    
   114   57   58 1    
   115   58  135 1    
   116   58  136 1    
   117   59   60 am   BACKBONE|DICT|INTERRES
   118   59  137 1    
   119   60   61 2    
   120   60   62 1    
   121   62   63 1    
   122   62   64 1    
   123   62  138 1    
   124   63  139 1    
   125   63  140 1    
   126   63  141 1    
   127   64   65 am   BACKBONE|DICT|INTERRES
   128   64  142 1    
   129   65   66 2    
   130   65   67 1    
   131   67   68 1    
   132   67   69 1    
   133   67  143 1    
   134   68  144 1    
   135   68  145 1    
   136   68  146 1    
   137   69   70 am   BACKBONE|DICT|INTERRES
   138   69  147 1    
   139   70   71 2    
   140   70   72 1    
   141   72   73 1    
   142   72   74 1    
   143   72  148 1    
   144   73  149 1    
   145   73  150 1    
   146   73  151 1    
   147   74   75 am   BACKBONE|DICT|INTERRES
   148   74  152 1    
   149   75   76 2    
   150   75   77 1    
   151   77   78 1    
   152   77   79 1    
   153   77  153 1    
   154   78  154 1    
   155   78  155 1    
   156   78  156 1    
   157   79   80 am   BACKBONE|DICT|INTERRES
   158   79  157 1    
   159   80   81 2    
@<TRIPOS>SUBSTRUCTURE
     1 UNK         1 GROUP             0       ****    0 ROOT    
