@<TRIPOS>MOLECULE
3R207
157   159    1
SMALL
USER_CHARGES


@<TRIPOS>ATOM
      1 CA        -50.0306  -29.2622    6.6739 C.3       0 UNK        -0.1975 
      2 C         -50.0573  -27.7962    6.2683 C.2       0 UNK         0.4852 
      3 O         -49.6082  -27.4514    5.1740 O.2       0 UNK        -0.5216 
      4 N         -50.5849  -26.9321    7.1455 N.am      1 UNK        -0.4461 
      5 CA        -50.6926  -25.4811    6.9604 C.3       1 UNK         0.0864 
      6 C6        -51.4459  -24.7843    8.1259 C.3       14 UNK        -0.0898 
      7 S7        -53.2570  -25.0334    8.2891 S.3       14 UNK        -0.2598 
      8 C8        -53.6735  -26.6640    7.5741 C.3       14 UNK         0.0286 
      9 C9        -53.3371  -27.8849    8.4363 C.ar      14 UNK        -0.0844 
     10 C10       -52.4673  -27.8306    9.5336 C.ar      14 UNK        -0.0881 
     11 C11       -52.1474  -28.9843   10.2530 C.ar      14 UNK        -0.0643 
     12 C12       -52.7215  -30.2035    9.8909 C.ar      14 UNK        -0.0930 
     13 C13       -53.6161  -30.2712    8.8201 C.ar      14 UNK        -0.0827 
     14 C14       -53.9092  -29.1139    8.0930 C.ar      14 UNK        -0.1249 
     15 C15       -54.2530  -31.5999    8.4426 C.3       14 UNK         0.0141 
     16 S16       -55.4250  -32.1834    9.7094 S.3       14 UNK        -0.2313 
     17 C17       -56.8181  -31.0097    9.5407 C.3       14 UNK        -0.0915 
     18 CA        -57.1435  -30.2033   10.8292 C.3       13 UNK         0.0968 
     19 C         -57.6553  -31.1134   11.9849 C.2       13 UNK         0.5732 
     20 N         -58.9081  -31.5451   11.9185 N.am      13 UNK        -0.7310 
     21 O         -56.9310  -31.4575   12.9172 O.2       13 UNK        -0.5035 
     22 N         -56.0378  -29.3071   11.1955 N.am      13 UNK        -0.4233 
     23 C         -56.0813  -28.3705   12.1522 C.2       13 UNK         0.4989 
     24 O         -57.0685  -28.1288   12.8506 O.2       13 UNK        -0.4996 
     25 CA        -54.8188  -27.5115   12.3183 C.3       12 UNK         0.0216 
     26 CB        -55.0874  -26.0433   11.9486 C.3       12 UNK        -0.1964 
     27 N         -54.2497  -27.5876   13.6631 N.am      12 UNK        -0.4276 
     28 C         -53.6858  -28.6801   14.1974 C.2       12 UNK         0.5020 
     29 O         -53.6171  -29.7608   13.6117 O.2       12 UNK        -0.5489 
     30 CA        -53.0472  -28.5457   15.5941 C.3       11 UNK         0.0294 
     31 CB        -51.6890  -29.2674   15.6632 C.3       11 UNK        -0.2019 
     32 N         -52.8483  -27.1506   15.9984 N.am      11 UNK        -0.4493 
     33 C         -53.7060  -26.4401   16.7445 C.2       11 UNK         0.4932 
     34 O         -54.7939  -26.8756   17.1231 O.2       11 UNK        -0.5029 
     35 CA        -53.2943  -24.9977   17.1030 C.3       10 UNK         0.0280 
     36 CB        -53.9785  -24.4780   18.3855 C.3       10 UNK        -0.1976 
     37 N         -51.8404  -24.8011   17.1606 N.am      10 UNK        -0.4242 
     38 C         -50.9661  -25.3768   18.0049 C.2       10 UNK         0.5072 
     39 O         -51.2968  -26.1397   18.9136 O.2       10 UNK        -0.5224 
     40 CA        -49.4661  -25.0815   17.7974 C.3       9 UNK         0.0343 
     41 CB        -48.6667  -26.3876   17.6384 C.3       9 UNK        -0.2003 
     42 N         -49.2197  -24.2370   16.6271 N.am      9 UNK        -0.4272 
     43 C         -49.1629  -22.8973   16.6395 C.2       9 UNK         0.4988 
     44 O         -49.2127  -22.2191   17.6657 O.2       9 UNK        -0.5108 
     45 CA        -49.0692  -22.1879   15.2746 C.3       8 UNK         0.0248 
     46 CB        -47.6121  -21.8082   14.9666 C.3       8 UNK        -0.2001 
     47 N         -49.6181  -22.9822   14.1680 N.am      8 UNK        -0.4140 
     48 C         -50.9180  -23.2985   14.0399 C.2       8 UNK         0.5028 
     49 O         -51.7865  -22.9109   14.8205 O.2       8 UNK        -0.5428 
     50 CA        -51.3213  -24.2617   12.9074 C.3       7 UNK         0.0264 
     51 CB        -51.8030  -23.4787   11.6779 C.3       7 UNK        -0.1988 
     52 N         -50.2538  -25.1859   12.5179 N.am      7 UNK        -0.4454 
     53 C         -49.7021  -26.0968   13.3334 C.2       7 UNK         0.5027 
     54 O         -50.1334  -26.3292   14.4650 O.2       7 UNK        -0.5083 
     55 CA        -48.4287  -26.8225   12.8401 C.3       6 UNK         0.0844 
     56 C56       -48.6890  -28.3162   12.5221 C.3       14 UNK        -0.0967 
     57 S57       -49.5062  -28.5958   10.9124 S.3       14 UNK        -0.2604 
     58 C58       -51.2132  -28.8934   11.4464 C.3       14 UNK         0.0134 
     59 N         -47.7392  -26.1502   11.7311 N.am      6 UNK        -0.4116 
     60 C         -47.1853  -24.9304   11.7479 C.2       5 UNK         0.5034 
     61 O         -47.2496  -24.1766   12.7192 O.2       5 UNK        -0.5045 
     62 CA        -46.5033  -24.4422   10.4529 C.3       5 UNK         0.0224 
     63 CB        -45.1693  -23.7197   10.7330 C.3       5 UNK        -0.1978 
     64 N         -46.3519  -25.4772    9.4171 N.am      5 UNK        -0.4737 
     65 C         -45.5673  -26.5658    9.4391 C.2       4 UNK         0.5027 
     66 O         -44.8049  -26.8423   10.3644 O.2       4 UNK        -0.5211 
     67 CA        -45.6687  -27.5334    8.2500 C.3       4 UNK         0.0297 
     68 CB        -46.7436  -28.5974    8.5221 C.3       4 UNK        -0.1993 
     69 N         -45.9885  -26.8559    6.9899 N.am      4 UNK        -0.4486 
     70 C         -45.2007  -26.8516    5.9050 C.2       3 UNK         0.4961 
     71 O         -44.0862  -27.3746    5.8665 O.2       3 UNK        -0.5105 
     72 CA        -45.7395  -26.1786    4.6273 C.3       3 UNK         0.0299 
     73 CB        -46.2493  -27.2419    3.6407 C.3       3 UNK        -0.1972 
     74 N         -46.8097  -25.2129    4.8802 N.am      3 UNK        -0.4305 
     75 C         -46.6214  -23.9900    5.3964 C.2       2 UNK         0.5006 
     76 O         -45.5115  -23.5200    5.6486 O.2       2 UNK        -0.5106 
     77 CA        -47.8754  -23.1464    5.7033 C.3       2 UNK         0.0296 
     78 CB        -48.1060  -22.1090    4.5921 C.3       2 UNK        -0.2002 
     79 N         -49.1133  -23.9106    5.9122 N.am      2 UNK        -0.4032 
     80 C         -49.2856  -24.8634    6.8387 C.2       1 UNK         0.5000 
     81 O         -48.3894  -25.2526    7.5924 O.2       1 UNK        -0.5238 
     82 H82       -50.7226  -29.8338    6.0563 H         1 UNK         0.0889 
     83 H83       -50.3139  -29.4006    7.7177 H         1 UNK         0.0889 
     84 H84       -49.0307  -29.6724    6.5377 H         1 UNK         0.0889 
     85 H85       -50.9408  -27.2877    8.0210 H         1 UNK         0.3028 
     86 H86       -51.2340  -25.3006    6.0297 H         1 UNK         0.0864 
     87 H87       -50.9771  -25.0465    9.0755 H         1 UNK         0.0720 
     88 H88       -51.3250  -23.7016    8.0458 H         1 UNK         0.0720 
     89 H89       -53.2210  -26.7684    6.5881 H         1 UNK         0.0814 
     90 H90       -54.7509  -26.6620    7.4018 H         1 UNK         0.0814 
     91 H91       -52.0296  -26.8971    9.8512 H         1 UNK         0.1469 
     92 H92       -52.4896  -31.0977   10.4537 H         1 UNK         0.1381 
     93 H93       -54.5868  -29.1699    7.2516 H         1 UNK         0.1206 
     94 H94       -53.4678  -32.3473    8.3202 H         1 UNK         0.0813 
     95 H95       -54.7628  -31.5343    7.4801 H         1 UNK         0.0813 
     96 H96       -57.6942  -31.5765    9.2214 H         1 UNK         0.0638 
     97 H97       -56.6111  -30.3185    8.7227 H         1 UNK         0.0638 
     98 H98       -57.9749  -29.5405   10.5814 H         1 UNK         0.0568 
     99 H99       -59.2569  -32.1457   12.6489 H         1 UNK         0.3450 
    100 H100      -59.5122  -31.2827   11.1554 H         1 UNK         0.3450 
    101 H101      -55.1705  -29.4659   10.7016 H         1 UNK         0.2987 
    102 H102      -54.0666  -27.8870   11.6336 H         1 UNK         0.0766 
    103 H103      -54.1717  -25.4538   11.9687 H         1 UNK         0.0798 
    104 H104      -55.8049  -25.5790   12.6264 H         1 UNK         0.0798 
    105 H105      -55.4935  -25.9659   10.9389 H         1 UNK         0.0798 
    106 H106      -54.3090  -26.7587   14.2343 H         1 UNK         0.3198 
    107 H107      -53.7209  -29.0400   16.2974 H         1 UNK         0.0843 
    108 H108      -50.9840  -28.8639   14.9375 H         1 UNK         0.0831 
    109 H109      -51.7968  -30.3328   15.4560 H         1 UNK         0.0831 
    110 H110      -51.2405  -29.1758   16.6527 H         1 UNK         0.0831 
    111 H111      -51.9811  -26.7189   15.6988 H         1 UNK         0.3133 
    112 H112      -53.6444  -24.3775   16.2768 H         1 UNK         0.0566 
    113 H113      -53.6761  -23.4551   18.6098 H         1 UNK         0.0814 
    114 H114      -55.0637  -24.4761   18.2772 H         1 UNK         0.0814 
    115 H115      -53.7415  -25.0963   19.2518 H         1 UNK         0.0814 
    116 H116      -51.4776  -24.1682   16.4562 H         1 UNK         0.3091 
    117 H117      -49.1089  -24.5747   18.6962 H         1 UNK         0.0702 
    118 H118      -47.6054  -26.1881   17.4896 H         1 UNK         0.0785 
    119 H119      -49.0192  -26.9797   16.7934 H         1 UNK         0.0785 
    120 H120      -48.7545  -27.0111   18.5291 H         1 UNK         0.0785 
    121 H121      -49.1975  -24.7164   15.7363 H         1 UNK         0.2998 
    122 H122      -49.6525  -21.2671   15.3433 H         1 UNK         0.0697 
    123 H123      -46.9653  -22.6856   14.9276 H         1 UNK         0.0825 
    124 H124      -47.2122  -21.1450   15.7348 H         1 UNK         0.0825 
    125 H125      -47.5282  -21.2870   14.0128 H         1 UNK         0.0825 
    126 H126      -48.9439  -23.3622   13.5106 H         1 UNK         0.3029 
    127 H127      -52.1556  -24.8596   13.2802 H         1 UNK         0.0897 
    128 H128      -52.2410  -24.1453   10.9373 H         1 UNK         0.0792 
    129 H129      -52.5752  -22.7577   11.9506 H         1 UNK         0.0792 
    130 H130      -50.9923  -22.9254   11.2023 H         1 UNK         0.0792 
    131 H131      -49.8453  -25.0575   11.6046 H         1 UNK         0.3086 
    132 H132      -47.7393  -26.7934   13.6866 H         1 UNK         0.0583 
    133 H133      -47.7330  -28.8412   12.4898 H         1 UNK         0.1020 
    134 H134      -49.2488  -28.8020   13.3229 H         1 UNK         0.1020 
    135 H135      -51.2525  -29.8064   12.0428 H         1 UNK         0.0694 
    136 H136      -51.5410  -28.0818   12.0967 H         1 UNK         0.0694 
    137 H137      -47.6624  -26.6875   10.8801 H         1 UNK         0.2989 
    138 H138      -47.1863  -23.7047   10.0279 H         1 UNK         0.1055 
    139 H139      -45.3222  -22.8521   11.3762 H         1 UNK         0.0806 
    140 H140      -44.7117  -23.3609    9.8110 H         1 UNK         0.0806 
    141 H141      -44.4513  -24.3687   11.2350 H         1 UNK         0.0806 
    142 H142      -47.0058  -25.3803    8.6395 H         1 UNK         0.3061 
    143 H143      -44.7056  -28.0431    8.1782 H         1 UNK         0.0734 
    144 H144      -46.7360  -29.3696    7.7530 H         1 UNK         0.0832 
    145 H145      -46.5771  -29.0935    9.4795 H         1 UNK         0.0832 
    146 H146      -47.7424  -28.1610    8.5460 H         1 UNK         0.0832 
    147 H147      -46.8757  -26.3648    6.9505 H         1 UNK         0.3156 
    148 H148      -44.9058  -25.6532    4.1564 H         1 UNK         0.0589 
    149 H149      -47.0859  -27.8074    4.0531 H         1 UNK         0.0808 
    150 H150      -46.5772  -26.7911    2.7038 H         1 UNK         0.0808 
    151 H151      -45.4626  -27.9571    3.3963 H         1 UNK         0.0808 
    152 H152      -47.7552  -25.5278    4.7090 H         1 UNK         0.3098 
    153 H153      -47.6719  -22.6090    6.6319 H         1 UNK         0.0720 
    154 H154      -48.9162  -21.4255    4.8470 H         1 UNK         0.0791 
    155 H155      -48.3516  -22.5841    3.6414 H         1 UNK         0.0791 
    156 H156      -47.2136  -21.5020    4.4316 H         1 UNK         0.0791 
    157 H157      -49.8972  -23.6553    5.3283 H         1 UNK         0.3028 
@<TRIPOS>BOND
     1    1    2 1    
     2    1   82 1    
     3    1   83 1    
     4    1   84 1    
     5    2    3 2    
     6    2    4 am   BACKBONE|DICT|INTERRES
     7    4    5 1    
     8    4   85 1    
     9    5    6 1    
    10    5   80 1    
    11    5   86 1    
    12    6    7 1    
    13    6   87 1    
    14    6   88 1    
    15    7    8 1    
    16    8    9 1    
    17    8   89 1    
    18    8   90 1    
    19    9   10 ar   
    20    9   14 ar   
    21   10   11 ar   
    22   10   91 1    
    23   11   12 ar   
    24   11   58 1    
    25   12   13 ar   
    26   12   92 1    
    27   13   14 ar   
    28   13   15 1    
    29   14   93 1    
    30   15   16 1    
    31   15   94 1    
    32   15   95 1    
    33   16   17 1    
    34   17   18 1    
    35   17   96 1    
    36   17   97 1    
    37   18   19 1    
    38   18   22 1    
    39   18   98 1    
    40   19   20 am   BACKBONE|DICT|INTERRES
    41   19   21 2    
    42   20   99 1    
    43   20  100 1    
    44   22   23 am   BACKBONE|DICT|INTERRES
    45   22  101 1    
    46   23   24 2    
    47   23   25 1    
    48   25   26 1    
    49   25   27 1    
    50   25  102 1    
    51   26  103 1    
    52   26  104 1    
    53   26  105 1    
    54   27   28 am   BACKBONE|DICT|INTERRES
    55   27  106 1    
    56   28   29 2    
    57   28   30 1    
    58   30   31 1    
    59   30   32 1    
    60   30  107 1    
    61   31  108 1    
    62   31  109 1    
    63   31  110 1    
    64   32   33 am   BACKBONE|DICT|INTERRES
    65   32  111 1    
    66   33   34 2    
    67   33   35 1    
    68   35   36 1    
    69   35   37 1    
    70   35  112 1    
    71   36  113 1    
    72   36  114 1    
    73   36  115 1    
    74   37   38 am   BACKBONE|DICT|INTERRES
    75   37  116 1    
    76   38   39 2    
    77   38   40 1    
    78   40   41 1    
    79   40   42 1    
    80   40  117 1    
    81   41  118 1    
    82   41  119 1    
    83   41  120 1    
    84   42   43 am   BACKBONE|DICT|INTERRES
    85   42  121 1    
    86   43   44 2    
    87   43   45 1    
    88   45   46 1    
    89   45   47 1    
    90   45  122 1    
    91   46  123 1    
    92   46  124 1    
    93   46  125 1    
    94   47   48 am   BACKBONE|DICT|INTERRES
    95   47  126 1    
    96   48   49 2    
    97   48   50 1    
    98   50   51 1    
    99   50   52 1    
   100   50  127 1    
   101   51  128 1    
   102   51  129 1    
   103   51  130 1    
   104   52   53 am   BACKBONE|DICT|INTERRES
   105   52  131 1    
   106   53   54 2    
   107   53   55 1    
   108   55   56 1    
   109   55   59 1    
   110   55  132 1    
   111   56   57 1    
   112   56  133 1    
   113   56  134 1    
   114   57   58 1    
   115   58  135 1    
   116   58  136 1    
   117   59   60 am   BACKBONE|DICT|INTERRES
   118   59  137 1    
   119   60   61 2    
   120   60   62 1    
   121   62   63 1    
   122   62   64 1    
   123   62  138 1    
   124   63  139 1    
   125   63  140 1    
   126   63  141 1    
   127   64   65 am   BACKBONE|DICT|INTERRES
   128   64  142 1    
   129   65   66 2    
   130   65   67 1    
   131   67   68 1    
   132   67   69 1    
   133   67  143 1    
   134   68  144 1    
   135   68  145 1    
   136   68  146 1    
   137   69   70 am   BACKBONE|DICT|INTERRES
   138   69  147 1    
   139   70   71 2    
   140   70   72 1    
   141   72   73 1    
   142   72   74 1    
   143   72  148 1    
   144   73  149 1    
   145   73  150 1    
   146   73  151 1    
   147   74   75 am   BACKBONE|DICT|INTERRES
   148   74  152 1    
   149   75   76 2    
   150   75   77 1    
   151   77   78 1    
   152   77   79 1    
   153   77  153 1    
   154   78  154 1    
   155   78  155 1    
   156   78  156 1    
   157   79   80 am   BACKBONE|DICT|INTERRES
   158   79  157 1    
   159   80   81 2    
@<TRIPOS>SUBSTRUCTURE
     1 UNK         1 GROUP             0       ****    0 ROOT    
