@<TRIPOS>MOLECULE
3R207
157   159    1
SMALL
USER_CHARGES


@<TRIPOS>ATOM
      1 CA        -46.8874  -30.3672    9.0152 C.3       0 UNK        -0.1975 
      2 C         -47.5512  -29.2084    8.2883 C.2       0 UNK         0.4852 
      3 O         -47.3725  -28.0556    8.6836 O.2       0 UNK        -0.5216 
      4 N         -48.3003  -29.4993    7.2149 N.am      1 UNK        -0.4461 
      5 CA        -49.0612  -28.5326    6.4059 C.3       1 UNK         0.0864 
      6 C6        -50.2719  -27.9288    7.1712 C.3       14 UNK        -0.0898 
      7 S7        -51.4517  -29.2197    7.6997 S.3       14 UNK        -0.2598 
      8 C8        -52.8232  -28.9710    6.5251 C.3       14 UNK         0.0286 
      9 C9        -53.9376  -28.1254    7.1267 C.ar      14 UNK        -0.0844 
     10 C10       -53.7180  -26.7847    7.4550 C.ar      14 UNK        -0.0881 
     11 C11       -54.7294  -26.0172    8.0401 C.ar      14 UNK        -0.0643 
     12 C12       -55.9879  -26.5893    8.2544 C.ar      14 UNK        -0.0930 
     13 C13       -56.2254  -27.9266    7.9190 C.ar      14 UNK        -0.0827 
     14 C14       -55.1959  -28.6876    7.3577 C.ar      14 UNK        -0.1249 
     15 C15       -57.5908  -28.5590    8.1537 C.3       14 UNK         0.0141 
     16 S16       -57.5415  -29.8162    9.4724 S.3       14 UNK        -0.2313 
     17 C17       -57.6127  -28.7935   10.9825 C.3       14 UNK        -0.0915 
     18 CA        -56.2256  -28.2808   11.4690 C.3       13 UNK         0.0968 
     19 C         -56.3233  -27.3489   12.7153 C.2       13 UNK         0.5732 
     20 N         -55.2974  -27.2601   13.5533 N.am      13 UNK        -0.7310 
     21 O         -57.3269  -26.6677   12.9118 O.2       13 UNK        -0.5035 
     22 N         -55.2019  -29.3318   11.5769 N.am      13 UNK        -0.4233 
     23 C         -55.1998  -30.3530   12.4417 C.2       13 UNK         0.4989 
     24 O         -56.1283  -30.6227   13.2050 O.2       13 UNK        -0.4996 
     25 CA        -53.9105  -31.1938   12.5137 C.3       12 UNK         0.0216 
     26 CB        -53.0532  -31.1464   11.2251 C.3       12 UNK        -0.1964 
     27 N         -53.1122  -30.8233   13.6913 N.am      12 UNK        -0.4276 
     28 C         -52.6260  -29.6052   13.9722 C.2       12 UNK         0.5020 
     29 O         -52.7428  -28.6319   13.2239 O.2       12 UNK        -0.5489 
     30 CA        -51.8936  -29.4480   15.3111 C.3       11 UNK         0.0294 
     31 CB        -50.4952  -30.0840   15.2462 C.3       11 UNK        -0.2019 
     32 N         -51.7410  -28.0267   15.6188 N.am      11 UNK        -0.4493 
     33 C         -52.3773  -27.3629   16.5918 C.2       11 UNK         0.4932 
     34 O         -53.1665  -27.8870   17.3798 O.2       11 UNK        -0.5029 
     35 CA        -52.0572  -25.8570   16.6998 C.3       10 UNK         0.0280 
     36 CB        -52.5286  -25.2193   18.0240 C.3       10 UNK        -0.1976 
     37 N         -50.6379  -25.5841   16.4427 N.am      10 UNK        -0.4242 
     38 C         -49.5842  -26.0268   17.1469 C.2       10 UNK         0.5072 
     39 O         -49.6698  -26.5841   18.2419 O.2       10 UNK        -0.5224 
     40 CA        -48.1934  -25.8615   16.5129 C.3       9 UNK         0.0343 
     41 CB        -47.7052  -27.2107   15.9549 C.3       9 UNK        -0.2003 
     42 N         -48.1718  -24.8724   15.4292 N.am      9 UNK        -0.4272 
     43 C         -47.4454  -23.7466   15.4474 C.2       9 UNK         0.4988 
     44 O         -46.7451  -23.3938   16.3974 O.2       9 UNK        -0.5108 
     45 CA        -47.4810  -22.8660   14.1881 C.3       8 UNK         0.0248 
     46 CB        -46.4573  -23.3609   13.1528 C.3       8 UNK        -0.2001 
     47 N         -48.8006  -22.7716   13.5617 N.am      8 UNK        -0.4140 
     48 C         -49.8410  -22.0996   14.0760 C.2       8 UNK         0.5028 
     49 O         -49.8309  -21.5634   15.1843 O.2       8 UNK        -0.5428 
     50 CA        -51.0994  -21.9897   13.2040 C.3       7 UNK         0.0264 
     51 CB        -50.9165  -20.9026   12.1316 C.3       7 UNK        -0.1988 
     52 N         -51.3976  -23.2617   12.5494 N.am      7 UNK        -0.4454 
     53 C         -52.4089  -24.0752   12.8803 C.2       7 UNK         0.5027 
     54 O         -53.2420  -23.8112   13.7482 O.2       7 UNK        -0.5083 
     55 CA        -52.5065  -25.4266   12.1387 C.3       6 UNK         0.0844 
     56 C56       -53.5463  -25.3836   10.9923 C.3       14 UNK        -0.0967 
     57 S57       -53.0120  -24.4050    9.5431 S.3       14 UNK        -0.2604 
     58 C58       -54.4593  -24.5721    8.4435 C.3       14 UNK         0.0134 
     59 N         -51.2160  -25.9474   11.6804 N.am      6 UNK        -0.4116 
     60 C         -50.1792  -26.2629   12.4658 C.2       5 UNK         0.5034 
     61 O         -50.2073  -26.2122   13.6957 O.2       5 UNK        -0.5045 
     62 CA        -48.8566  -26.6321   11.7721 C.3       5 UNK         0.0224 
     63 CB        -48.7320  -28.1571   11.6528 C.3       5 UNK        -0.1978 
     64 N         -48.6330  -26.0145   10.4556 N.am      5 UNK        -0.4737 
     65 C         -48.7204  -24.7037   10.1750 C.2       4 UNK         0.5027 
     66 O         -49.0629  -23.8537   10.9992 O.2       4 UNK        -0.5211 
     67 CA        -48.3764  -24.2793    8.7369 C.3       4 UNK         0.0297 
     68 CB        -48.3164  -22.7473    8.5594 C.3       4 UNK        -0.1993 
     69 N         -47.1514  -24.9180    8.2483 N.am      4 UNK        -0.4486 
     70 C         -45.9137  -24.8192    8.7625 C.2       3 UNK         0.4961 
     71 O         -45.6176  -24.0813    9.7026 O.2       3 UNK        -0.5105 
     72 CA        -44.8109  -25.7007    8.1438 C.3       3 UNK         0.0299 
     73 CB        -44.2220  -26.6527    9.2003 C.3       3 UNK        -0.1972 
     74 N         -45.2980  -26.4954    7.0143 N.am      3 UNK        -0.4305 
     75 C         -45.2616  -26.1105    5.7305 C.2       2 UNK         0.5006 
     76 O         -44.7335  -25.0674    5.3440 O.2       2 UNK        -0.5106 
     77 CA        -45.9396  -27.0314    4.6962 C.3       2 UNK         0.0296 
     78 CB        -44.8913  -27.9100    3.9940 C.3       2 UNK        -0.2002 
     79 N         -46.9914  -27.8900    5.2532 N.am      2 UNK        -0.4032 
     80 C         -48.1407  -27.4527    5.7908 C.2       1 UNK         0.5000 
     81 O         -48.4416  -26.2596    5.8623 O.2       1 UNK        -0.5238 
     82 H82       -45.8312  -30.1530    9.1759 H         1 UNK         0.0889 
     83 H83       -46.9630  -31.2971    8.4522 H         1 UNK         0.0889 
     84 H84       -47.3571  -30.5177    9.9864 H         1 UNK         0.0889 
     85 H85       -48.4110  -30.4665    6.9434 H         1 UNK         0.3028 
     86 H86       -49.4584  -29.0891    5.5553 H         1 UNK         0.0864 
     87 H87       -49.9408  -27.3837    8.0563 H         1 UNK         0.0720 
     88 H88       -50.7896  -27.1997    6.5472 H         1 UNK         0.0720 
     89 H89       -53.2053  -29.9527    6.2412 H         1 UNK         0.0814 
     90 H90       -52.4656  -28.5129    5.6021 H         1 UNK         0.0814 
     91 H91       -52.7493  -26.3387    7.2840 H         1 UNK         0.1469 
     92 H92       -56.7789  -25.9989    8.6965 H         1 UNK         0.1381 
     93 H93       -55.3785  -29.7239    7.1070 H         1 UNK         0.1206 
     94 H94       -57.9194  -29.0373    7.2299 H         1 UNK         0.0813 
     95 H95       -58.3430  -27.8039    8.3867 H         1 UNK         0.0813 
     96 H96       -58.0873  -29.3885   11.7640 H         1 UNK         0.0638 
     97 H97       -58.2867  -27.9558   10.7960 H         1 UNK         0.0638 
     98 H98       -55.8468  -27.6185   10.6961 H         1 UNK         0.0568 
     99 H99       -54.4464  -27.7921   13.3926 H         1 UNK         0.3450 
    100 H100      -55.3710  -26.6497   14.3503 H         1 UNK         0.3450 
    101 H101      -54.3669  -29.1816   11.0306 H         1 UNK         0.2987 
    102 H102      -54.2267  -32.2280   12.6589 H         1 UNK         0.0766 
    103 H103      -52.2295  -31.8580   11.2813 H         1 UNK         0.0798 
    104 H104      -52.6184  -30.1634   11.0407 H         1 UNK         0.0798 
    105 H105      -53.6458  -31.4136   10.3488 H         1 UNK         0.0798 
    106 H106      -52.9919  -31.5541   14.3792 H         1 UNK         0.3198 
    107 H107      -52.4780  -29.9486   16.0860 H         1 UNK         0.0843 
    108 H108      -49.8870  -29.6409   14.4586 H         1 UNK         0.0831 
    109 H109      -50.5546  -31.1550   15.0495 H         1 UNK         0.0831 
    110 H110      -49.9612  -29.9582   16.1885 H         1 UNK         0.0831 
    111 H111      -51.1932  -27.4916   14.9520 H         1 UNK         0.3133 
    112 H112      -52.6081  -25.3751   15.8918 H         1 UNK         0.0566 
    113 H113      -52.2821  -24.1584   18.0625 H         1 UNK         0.0814 
    114 H114      -53.6105  -25.3043   18.1321 H         1 UNK         0.0814 
    115 H115      -52.0789  -25.7013   18.8924 H         1 UNK         0.0814 
    116 H116      -50.4434  -25.2122   15.5226 H         1 UNK         0.3091 
    117 H117      -47.5168  -25.5668   17.3176 H         1 UNK         0.0702 
    118 H118      -46.6936  -27.1312   15.5568 H         1 UNK         0.0785 
    119 H119      -48.3512  -27.5779   15.1569 H         1 UNK         0.0785 
    120 H120      -47.6869  -27.9735   16.7346 H         1 UNK         0.0785 
    121 H121      -48.7231  -25.0920   14.6088 H         1 UNK         0.2998 
    122 H122      -47.1874  -21.8577   14.4884 H         1 UNK         0.0697 
    123 H123      -45.4545  -23.3979   13.5803 H         1 UNK         0.0825 
    124 H124      -46.4151  -22.6992   12.2871 H         1 UNK         0.0825 
    125 H125      -46.6933  -24.3610   12.7900 H         1 UNK         0.0825 
    126 H126      -48.8845  -23.1582   12.6221 H         1 UNK         0.3029 
    127 H127      -51.9256  -21.6884   13.8518 H         1 UNK         0.0897 
    128 H128      -50.6855  -19.9388   12.5873 H         1 UNK         0.0792 
    129 H129      -51.8250  -20.7740   11.5430 H         1 UNK         0.0792 
    130 H130      -50.1050  -21.1430   11.4430 H         1 UNK         0.0792 
    131 H131      -50.7391  -23.5661   11.8365 H         1 UNK         0.3086 
    132 H132      -52.8735  -26.1315   12.8834 H         1 UNK         0.0583 
    133 H133      -53.7400  -26.4038   10.6587 H         1 UNK         0.1020 
    134 H134      -54.5038  -25.0018   11.3526 H         1 UNK         0.1020 
    135 H135      -55.3285  -24.1356    8.9381 H         1 UNK         0.0694 
    136 H136      -54.2869  -23.9815    7.5429 H         1 UNK         0.0694 
    137 H137      -51.0905  -25.9971   10.6806 H         1 UNK         0.2989 
    138 H138      -48.0555  -26.2836   12.4253 H         1 UNK         0.1055 
    139 H139      -48.9253  -28.6445   12.6078 H         1 UNK         0.0806 
    140 H140      -47.7255  -28.4440   11.3498 H         1 UNK         0.0806 
    141 H141      -49.4367  -28.5653   10.9268 H         1 UNK         0.0806 
    142 H142      -48.2843  -26.6370    9.7301 H         1 UNK         0.3061 
    143 H143      -49.1870  -24.6514    8.1085 H         1 UNK         0.0734 
    144 H144      -48.0857  -22.4758    7.5295 H         1 UNK         0.0832 
    145 H145      -49.2747  -22.2897    8.8087 H         1 UNK         0.0832 
    146 H146      -47.5642  -22.2926    9.2048 H         1 UNK         0.0832 
    147 H147      -47.2912  -25.5512    7.4690 H         1 UNK         0.3156 
    148 H148      -44.0125  -25.0358    7.8082 H         1 UNK         0.0589 
    149 H149      -44.9817  -27.3122    9.6210 H         1 UNK         0.0808 
    150 H150      -43.4321  -27.2746    8.7791 H         1 UNK         0.0808 
    151 H151      -43.7847  -26.0940   10.0289 H         1 UNK         0.0808 
    152 H152      -45.7930  -27.3438    7.2580 H         1 UNK         0.3098 
    153 H153      -46.4028  -26.3870    3.9460 H         1 UNK         0.0720 
    154 H154      -45.3388  -28.5015    3.1949 H         1 UNK         0.0791 
    155 H155      -44.4062  -28.5954    4.6902 H         1 UNK         0.0791 
    156 H156      -44.1093  -27.2984    3.5413 H         1 UNK         0.0791 
    157 H157      -46.8136  -28.8843    5.2511 H         1 UNK         0.3028 
@<TRIPOS>BOND
     1    1    2 1    
     2    1   82 1    
     3    1   83 1    
     4    1   84 1    
     5    2    3 2    
     6    2    4 am   BACKBONE|DICT|INTERRES
     7    4    5 1    
     8    4   85 1    
     9    5    6 1    
    10    5   80 1    
    11    5   86 1    
    12    6    7 1    
    13    6   87 1    
    14    6   88 1    
    15    7    8 1    
    16    8    9 1    
    17    8   89 1    
    18    8   90 1    
    19    9   10 ar   
    20    9   14 ar   
    21   10   11 ar   
    22   10   91 1    
    23   11   12 ar   
    24   11   58 1    
    25   12   13 ar   
    26   12   92 1    
    27   13   14 ar   
    28   13   15 1    
    29   14   93 1    
    30   15   16 1    
    31   15   94 1    
    32   15   95 1    
    33   16   17 1    
    34   17   18 1    
    35   17   96 1    
    36   17   97 1    
    37   18   19 1    
    38   18   22 1    
    39   18   98 1    
    40   19   20 am   BACKBONE|DICT|INTERRES
    41   19   21 2    
    42   20   99 1    
    43   20  100 1    
    44   22   23 am   BACKBONE|DICT|INTERRES
    45   22  101 1    
    46   23   24 2    
    47   23   25 1    
    48   25   26 1    
    49   25   27 1    
    50   25  102 1    
    51   26  103 1    
    52   26  104 1    
    53   26  105 1    
    54   27   28 am   BACKBONE|DICT|INTERRES
    55   27  106 1    
    56   28   29 2    
    57   28   30 1    
    58   30   31 1    
    59   30   32 1    
    60   30  107 1    
    61   31  108 1    
    62   31  109 1    
    63   31  110 1    
    64   32   33 am   BACKBONE|DICT|INTERRES
    65   32  111 1    
    66   33   34 2    
    67   33   35 1    
    68   35   36 1    
    69   35   37 1    
    70   35  112 1    
    71   36  113 1    
    72   36  114 1    
    73   36  115 1    
    74   37   38 am   BACKBONE|DICT|INTERRES
    75   37  116 1    
    76   38   39 2    
    77   38   40 1    
    78   40   41 1    
    79   40   42 1    
    80   40  117 1    
    81   41  118 1    
    82   41  119 1    
    83   41  120 1    
    84   42   43 am   BACKBONE|DICT|INTERRES
    85   42  121 1    
    86   43   44 2    
    87   43   45 1    
    88   45   46 1    
    89   45   47 1    
    90   45  122 1    
    91   46  123 1    
    92   46  124 1    
    93   46  125 1    
    94   47   48 am   BACKBONE|DICT|INTERRES
    95   47  126 1    
    96   48   49 2    
    97   48   50 1    
    98   50   51 1    
    99   50   52 1    
   100   50  127 1    
   101   51  128 1    
   102   51  129 1    
   103   51  130 1    
   104   52   53 am   BACKBONE|DICT|INTERRES
   105   52  131 1    
   106   53   54 2    
   107   53   55 1    
   108   55   56 1    
   109   55   59 1    
   110   55  132 1    
   111   56   57 1    
   112   56  133 1    
   113   56  134 1    
   114   57   58 1    
   115   58  135 1    
   116   58  136 1    
   117   59   60 am   BACKBONE|DICT|INTERRES
   118   59  137 1    
   119   60   61 2    
   120   60   62 1    
   121   62   63 1    
   122   62   64 1    
   123   62  138 1    
   124   63  139 1    
   125   63  140 1    
   126   63  141 1    
   127   64   65 am   BACKBONE|DICT|INTERRES
   128   64  142 1    
   129   65   66 2    
   130   65   67 1    
   131   67   68 1    
   132   67   69 1    
   133   67  143 1    
   134   68  144 1    
   135   68  145 1    
   136   68  146 1    
   137   69   70 am   BACKBONE|DICT|INTERRES
   138   69  147 1    
   139   70   71 2    
   140   70   72 1    
   141   72   73 1    
   142   72   74 1    
   143   72  148 1    
   144   73  149 1    
   145   73  150 1    
   146   73  151 1    
   147   74   75 am   BACKBONE|DICT|INTERRES
   148   74  152 1    
   149   75   76 2    
   150   75   77 1    
   151   77   78 1    
   152   77   79 1    
   153   77  153 1    
   154   78  154 1    
   155   78  155 1    
   156   78  156 1    
   157   79   80 am   BACKBONE|DICT|INTERRES
   158   79  157 1    
   159   80   81 2    
@<TRIPOS>SUBSTRUCTURE
     1 UNK         1 GROUP             0       ****    0 ROOT    
