@<TRIPOS>MOLECULE
3R207
157   159    1
SMALL
USER_CHARGES


@<TRIPOS>ATOM
      1 CA        -45.8841  -26.7735    5.2577 C.3       0 UNK        -0.1975 
      2 C         -45.9567  -27.9177    6.2669 C.2       0 UNK         0.4852 
      3 O         -44.9571  -28.1996    6.9238 O.2       0 UNK        -0.5216 
      4 N         -47.0915  -28.6153    6.4252 N.am      1 UNK        -0.4461 
      5 CA        -48.3935  -28.3850    5.7887 C.3       1 UNK         0.0864 
      6 C6        -49.3632  -29.5519    6.1112 C.3       14 UNK        -0.0898 
      7 S7        -50.9638  -29.4462    5.2347 S.3       14 UNK        -0.2598 
      8 C8        -52.1097  -30.2404    6.4115 C.3       14 UNK         0.0286 
      9 C9        -52.1873  -29.5393    7.7645 C.ar      14 UNK        -0.0844 
     10 C10       -52.6314  -28.2165    7.8641 C.ar      14 UNK        -0.0881 
     11 C11       -52.7304  -27.5901    9.1120 C.ar      14 UNK        -0.0643 
     12 C12       -52.3974  -28.3039   10.2675 C.ar      14 UNK        -0.0930 
     13 C13       -51.9573  -29.6270   10.1824 C.ar      14 UNK        -0.0827 
     14 C14       -51.8454  -30.2342    8.9283 C.ar      14 UNK        -0.1249 
     15 C15       -51.5851  -30.4026   11.4373 C.3       14 UNK         0.0141 
     16 S16       -52.7761  -31.7399   11.7747 S.3       14 UNK        -0.2313 
     17 C17       -53.6133  -31.1949   13.2998 C.3       14 UNK        -0.0915 
     18 CA        -55.0804  -30.7654   13.0485 C.3       13 UNK         0.0968 
     19 C         -55.8816  -30.7370   14.3788 C.2       13 UNK         0.5732 
     20 N         -56.4749  -31.8570   14.7683 N.am      13 UNK        -0.7310 
     21 O         -55.9369  -29.7274   15.0777 O.2       13 UNK        -0.5035 
     22 N         -55.1478  -29.4786   12.3460 N.am      13 UNK        -0.4233 
     23 C         -56.2414  -28.9943   11.7495 C.2       13 UNK         0.4989 
     24 O         -57.2914  -29.6265   11.6169 O.2       13 UNK        -0.4996 
     25 CA        -56.1489  -27.5396   11.2554 C.3       12 UNK         0.0216 
     26 CB        -57.2718  -27.1723   10.2679 C.3       12 UNK        -0.1964 
     27 N         -56.1753  -26.6052   12.3838 N.am      12 UNK        -0.4276 
     28 C         -55.1403  -26.3528   13.1942 C.2       12 UNK         0.5020 
     29 O         -54.0101  -26.8194   13.0233 O.2       12 UNK        -0.5489 
     30 CA        -55.4225  -25.4615   14.4109 C.3       11 UNK         0.0294 
     31 CB        -56.2803  -26.2190   15.4461 C.3       11 UNK        -0.2019 
     32 N         -54.1426  -25.0748   14.9965 N.am      11 UNK        -0.4493 
     33 C         -53.9333  -24.1902   15.9794 C.2       11 UNK         0.4932 
     34 O         -54.8310  -23.5205   16.4933 O.2       11 UNK        -0.5029 
     35 CA        -52.4775  -24.0096   16.4605 C.3       10 UNK         0.0280 
     36 CB        -52.3775  -23.5953   17.9442 C.3       10 UNK        -0.1976 
     37 N         -51.6234  -25.1673   16.1644 N.am      10 UNK        -0.4242 
     38 C         -51.7097  -26.4057   16.6733 C.2       10 UNK         0.5072 
     39 O         -52.4878  -26.7332   17.5700 O.2       10 UNK        -0.5224 
     40 CA        -50.7951  -27.4785   16.0573 C.3       9 UNK         0.0343 
     41 CB        -51.5473  -28.2574   14.9687 C.3       9 UNK        -0.2003 
     42 N         -49.5518  -26.9444   15.4946 N.am      9 UNK        -0.4272 
     43 C         -48.5046  -26.5532   16.2348 C.2       9 UNK         0.4988 
     44 O         -48.4790  -26.6005   17.4654 O.2       9 UNK        -0.5108 
     45 CA        -47.2728  -26.0277   15.4791 C.3       8 UNK         0.0248 
     46 CB        -46.4832  -27.1881   14.8517 C.3       8 UNK        -0.2001 
     47 N         -47.6102  -25.0419   14.4503 N.am      8 UNK        -0.4140 
     48 C         -48.1093  -23.8226   14.7014 C.2       8 UNK         0.5028 
     49 O         -48.3040  -23.3786   15.8334 O.2       8 UNK        -0.5428 
     50 CA        -48.4723  -22.9524   13.4860 C.3       7 UNK         0.0264 
     51 CB        -47.2266  -22.2494   12.9233 C.3       7 UNK        -0.1988 
     52 N         -49.1357  -23.7048   12.4196 N.am      7 UNK        -0.4454 
     53 C         -50.3250  -24.3131   12.5421 C.2       7 UNK         0.5027 
     54 O         -51.0117  -24.2776   13.5609 O.2       7 UNK        -0.5083 
     55 CA        -50.8154  -25.1274   11.3336 C.3       6 UNK         0.0844 
     56 C56       -51.4542  -24.1856   10.2834 C.3       14 UNK        -0.0967 
     57 S57       -51.9052  -24.9864    8.7119 S.3       14 UNK        -0.2604 
     58 C58       -53.2118  -26.1487    9.2038 C.3       14 UNK         0.0134 
     59 N         -49.7464  -25.9717   10.7970 N.am      6 UNK        -0.4116 
     60 C         -49.1494  -26.9669   11.4687 C.2       5 UNK         0.5034 
     61 O         -49.4674  -27.3267   12.6024 O.2       5 UNK        -0.5045 
     62 CA        -47.9479  -27.6309   10.7832 C.3       5 UNK         0.0224 
     63 CB        -48.4045  -28.7491    9.8373 C.3       5 UNK        -0.1978 
     64 N         -47.1202  -26.6536   10.0671 N.am      5 UNK        -0.4737 
     65 C         -46.3592  -25.7487   10.7009 C.2       4 UNK         0.5027 
     66 O         -46.2891  -25.6619   11.9264 O.2       4 UNK        -0.5211 
     67 CA        -45.5609  -24.7549    9.8433 C.3       4 UNK         0.0297 
     68 CB        -44.2350  -25.3817    9.3860 C.3       4 UNK        -0.1993 
     69 N         -46.2825  -24.2287    8.6825 N.am      4 UNK        -0.4486 
     70 C         -47.4267  -23.5328    8.7300 C.2       3 UNK         0.4961 
     71 O         -48.0845  -23.3563    9.7554 O.2       3 UNK        -0.5105 
     72 CA        -47.9290  -22.9536    7.4035 C.3       3 UNK         0.0299 
     73 CB        -46.7903  -22.4818    6.4709 C.3       3 UNK        -0.1972 
     74 N         -48.7457  -23.9769    6.7695 N.am      3 UNK        -0.4305 
     75 C         -49.5716  -23.8364    5.7322 C.2       2 UNK         0.5006 
     76 O         -49.7195  -22.7765    5.1205 O.2       2 UNK        -0.5106 
     77 CA        -50.3741  -25.0911    5.3132 C.3       2 UNK         0.0296 
     78 CB        -51.1382  -24.8845    3.9913 C.3       2 UNK        -0.2002 
     79 N         -49.6045  -26.3383    5.2132 N.am      2 UNK        -0.4032 
     80 C         -48.9840  -27.0158    6.1918 C.2       1 UNK         0.5000 
     81 O         -48.8560  -26.6126    7.3525 O.2       1 UNK        -0.5238 
     82 H82       -44.8449  -26.5464    5.0204 H         1 UNK         0.0889 
     83 H83       -46.3355  -25.8707    5.6665 H         1 UNK         0.0889 
     84 H84       -46.3813  -27.0251    4.3220 H         1 UNK         0.0889 
     85 H85       -47.0831  -29.3633    7.1021 H         1 UNK         0.3028 
     86 H86       -48.2281  -28.3875    4.7097 H         1 UNK         0.0864 
     87 H87       -48.9042  -30.5017    5.8322 H         1 UNK         0.0720 
     88 H88       -49.5369  -29.6113    7.1854 H         1 UNK         0.0720 
     89 H89       -51.8144  -31.2838    6.5325 H         1 UNK         0.0814 
     90 H90       -53.1067  -30.2579    5.9694 H         1 UNK         0.0814 
     91 H91       -52.8936  -27.6709    6.9680 H         1 UNK         0.1469 
     92 H92       -52.4759  -27.8306   11.2349 H         1 UNK         0.1381 
     93 H93       -51.5051  -31.2588    8.8647 H         1 UNK         0.1206 
     94 H94       -50.6013  -30.8515   11.2998 H         1 UNK         0.0813 
     95 H95       -51.4905  -29.7328   12.2922 H         1 UNK         0.0813 
     96 H96       -53.5758  -32.0437   13.9855 H         1 UNK         0.0638 
     97 H97       -53.0525  -30.3977   13.7861 H         1 UNK         0.0638 
     98 H98       -55.5483  -31.5139   12.4055 H         1 UNK         0.0568 
     99 H99       -56.9866  -31.8616   15.6366 H         1 UNK         0.3450 
    100 H100      -56.4262  -32.6956   14.2108 H         1 UNK         0.3450 
    101 H101      -54.3757  -28.8410   12.4975 H         1 UNK         0.2987 
    102 H102      -55.2018  -27.4405   10.7269 H         1 UNK         0.0766 
    103 H103      -57.1403  -26.1632    9.8769 H         1 UNK         0.0798 
    104 H104      -58.2572  -27.2271   10.7324 H         1 UNK         0.0798 
    105 H105      -57.2753  -27.8509    9.4137 H         1 UNK         0.0798 
    106 H106      -57.0754  -26.2078   12.6126 H         1 UNK         0.3198 
    107 H107      -55.9439  -24.5633   14.0745 H         1 UNK         0.0843 
    108 H108      -57.2111  -26.5817   15.0088 H         1 UNK         0.0831 
    109 H109      -56.5533  -25.5829   16.2876 H         1 UNK         0.0831 
    110 H110      -55.7494  -27.0853   15.8433 H         1 UNK         0.0831 
    111 H111      -53.3518  -25.5546   14.5803 H         1 UNK         0.3133 
    112 H112      -52.0706  -23.1882   15.8694 H         1 UNK         0.0566 
    113 H113      -51.3386  -23.4833   18.2547 H         1 UNK         0.0814 
    114 H114      -52.8709  -22.6380   18.1159 H         1 UNK         0.0814 
    115 H115      -52.8499  -24.3240   18.6032 H         1 UNK         0.0814 
    116 H116      -51.0013  -25.0245   15.3739 H         1 UNK         0.3091 
    117 H117      -50.5390  -28.1808   16.8536 H         1 UNK         0.0702 
    118 H118      -52.5051  -28.6261   15.3392 H         1 UNK         0.0785 
    119 H119      -51.7514  -27.6344   14.0977 H         1 UNK         0.0785 
    120 H120      -50.9702  -29.1194   14.6346 H         1 UNK         0.0785 
    121 H121      -49.4818  -26.9206   14.4796 H         1 UNK         0.2998 
    122 H122      -46.6238  -25.5360   16.2068 H         1 UNK         0.0697 
    123 H123      -47.0606  -27.7016   14.0824 H         1 UNK         0.0825 
    124 H124      -46.2103  -27.9283   15.6050 H         1 UNK         0.0825 
    125 H125      -45.5586  -26.8356   14.3941 H         1 UNK         0.0825 
    126 H126      -47.4068  -25.2984   13.4877 H         1 UNK         0.3029 
    127 H127      -49.1701  -22.1852   13.8285 H         1 UNK         0.0897 
    128 H128      -47.4861  -21.5786   12.1039 H         1 UNK         0.0792 
    129 H129      -46.4934  -22.9644   12.5492 H         1 UNK         0.0792 
    130 H130      -46.7363  -21.6501   13.6916 H         1 UNK         0.0792 
    131 H131      -48.6612  -23.7411   11.5195 H         1 UNK         0.3086 
    132 H132      -51.5952  -25.7944   11.7028 H         1 UNK         0.0583 
    133 H133      -52.3467  -23.7112   10.6963 H         1 UNK         0.1020 
    134 H134      -50.7733  -23.3696   10.0332 H         1 UNK         0.1020 
    135 H135      -53.5566  -25.9130   10.2112 H         1 UNK         0.0694 
    136 H136      -54.0722  -26.0117    8.5474 H         1 UNK         0.0694 
    137 H137      -49.4264  -25.7552    9.8636 H         1 UNK         0.2989 
    138 H138      -47.3308  -28.0851   11.5618 H         1 UNK         0.1055 
    139 H139      -48.8309  -29.5763   10.4033 H         1 UNK         0.0806 
    140 H140      -47.5738  -29.1506    9.2587 H         1 UNK         0.0806 
    141 H141      -49.1751  -28.4057    9.1477 H         1 UNK         0.0806 
    142 H142      -47.1796  -26.6433    9.0573 H         1 UNK         0.3061 
    143 H143      -45.3230  -23.9017   10.4821 H         1 UNK         0.0734 
    144 H144      -43.6034  -24.6535    8.8770 H         1 UNK         0.0832 
    145 H145      -43.6679  -25.7583   10.2386 H         1 UNK         0.0832 
    146 H146      -44.3961  -26.2205    8.7084 H         1 UNK         0.0832 
    147 H147      -45.8233  -24.3221    7.7891 H         1 UNK         0.3156 
    148 H148      -48.5647  -22.0982    7.6405 H         1 UNK         0.0589 
    149 H149      -46.2189  -23.3133    6.0580 H         1 UNK         0.0808 
    150 H150      -47.1833  -21.9094    5.6306 H         1 UNK         0.0808 
    151 H151      -46.0949  -21.8279    6.9993 H         1 UNK         0.0808 
    152 H152      -48.7272  -24.8991    7.2086 H         1 UNK         0.3098 
    153 H153      -51.1250  -25.2505    6.0842 H         1 UNK         0.0720 
    154 H154      -51.7634  -25.7457    3.7542 H         1 UNK         0.0791 
    155 H155      -50.4578  -24.7201    3.1549 H         1 UNK         0.0791 
    156 H156      -51.7998  -24.0191    4.0501 H         1 UNK         0.0791 
    157 H157      -49.6263  -26.7694    4.3005 H         1 UNK         0.3028 
@<TRIPOS>BOND
     1    1    2 1    
     2    1   82 1    
     3    1   83 1    
     4    1   84 1    
     5    2    3 2    
     6    2    4 am   BACKBONE|DICT|INTERRES
     7    4    5 1    
     8    4   85 1    
     9    5    6 1    
    10    5   80 1    
    11    5   86 1    
    12    6    7 1    
    13    6   87 1    
    14    6   88 1    
    15    7    8 1    
    16    8    9 1    
    17    8   89 1    
    18    8   90 1    
    19    9   10 ar   
    20    9   14 ar   
    21   10   11 ar   
    22   10   91 1    
    23   11   12 ar   
    24   11   58 1    
    25   12   13 ar   
    26   12   92 1    
    27   13   14 ar   
    28   13   15 1    
    29   14   93 1    
    30   15   16 1    
    31   15   94 1    
    32   15   95 1    
    33   16   17 1    
    34   17   18 1    
    35   17   96 1    
    36   17   97 1    
    37   18   19 1    
    38   18   22 1    
    39   18   98 1    
    40   19   20 am   BACKBONE|DICT|INTERRES
    41   19   21 2    
    42   20   99 1    
    43   20  100 1    
    44   22   23 am   BACKBONE|DICT|INTERRES
    45   22  101 1    
    46   23   24 2    
    47   23   25 1    
    48   25   26 1    
    49   25   27 1    
    50   25  102 1    
    51   26  103 1    
    52   26  104 1    
    53   26  105 1    
    54   27   28 am   BACKBONE|DICT|INTERRES
    55   27  106 1    
    56   28   29 2    
    57   28   30 1    
    58   30   31 1    
    59   30   32 1    
    60   30  107 1    
    61   31  108 1    
    62   31  109 1    
    63   31  110 1    
    64   32   33 am   BACKBONE|DICT|INTERRES
    65   32  111 1    
    66   33   34 2    
    67   33   35 1    
    68   35   36 1    
    69   35   37 1    
    70   35  112 1    
    71   36  113 1    
    72   36  114 1    
    73   36  115 1    
    74   37   38 am   BACKBONE|DICT|INTERRES
    75   37  116 1    
    76   38   39 2    
    77   38   40 1    
    78   40   41 1    
    79   40   42 1    
    80   40  117 1    
    81   41  118 1    
    82   41  119 1    
    83   41  120 1    
    84   42   43 am   BACKBONE|DICT|INTERRES
    85   42  121 1    
    86   43   44 2    
    87   43   45 1    
    88   45   46 1    
    89   45   47 1    
    90   45  122 1    
    91   46  123 1    
    92   46  124 1    
    93   46  125 1    
    94   47   48 am   BACKBONE|DICT|INTERRES
    95   47  126 1    
    96   48   49 2    
    97   48   50 1    
    98   50   51 1    
    99   50   52 1    
   100   50  127 1    
   101   51  128 1    
   102   51  129 1    
   103   51  130 1    
   104   52   53 am   BACKBONE|DICT|INTERRES
   105   52  131 1    
   106   53   54 2    
   107   53   55 1    
   108   55   56 1    
   109   55   59 1    
   110   55  132 1    
   111   56   57 1    
   112   56  133 1    
   113   56  134 1    
   114   57   58 1    
   115   58  135 1    
   116   58  136 1    
   117   59   60 am   BACKBONE|DICT|INTERRES
   118   59  137 1    
   119   60   61 2    
   120   60   62 1    
   121   62   63 1    
   122   62   64 1    
   123   62  138 1    
   124   63  139 1    
   125   63  140 1    
   126   63  141 1    
   127   64   65 am   BACKBONE|DICT|INTERRES
   128   64  142 1    
   129   65   66 2    
   130   65   67 1    
   131   67   68 1    
   132   67   69 1    
   133   67  143 1    
   134   68  144 1    
   135   68  145 1    
   136   68  146 1    
   137   69   70 am   BACKBONE|DICT|INTERRES
   138   69  147 1    
   139   70   71 2    
   140   70   72 1    
   141   72   73 1    
   142   72   74 1    
   143   72  148 1    
   144   73  149 1    
   145   73  150 1    
   146   73  151 1    
   147   74   75 am   BACKBONE|DICT|INTERRES
   148   74  152 1    
   149   75   76 2    
   150   75   77 1    
   151   77   78 1    
   152   77   79 1    
   153   77  153 1    
   154   78  154 1    
   155   78  155 1    
   156   78  156 1    
   157   79   80 am   BACKBONE|DICT|INTERRES
   158   79  157 1    
   159   80   81 2    
@<TRIPOS>SUBSTRUCTURE
     1 UNK         1 GROUP             0       ****    0 ROOT    
