@<TRIPOS>MOLECULE
3R207
157   159    1
SMALL
USER_CHARGES


@<TRIPOS>ATOM
      1 CA        -49.8697  -23.5877    7.0886 C.3       0 UNK        -0.1975 
      2 C         -50.3338  -23.4720    5.6375 C.2       0 UNK         0.4852 
      3 O         -50.4832  -22.3555    5.1444 O.2       0 UNK        -0.5216 
      4 N         -50.5891  -24.5748    4.9163 N.am      1 UNK        -0.4461 
      5 CA        -50.4052  -25.9745    5.3207 C.3       1 UNK         0.0864 
      6 C6        -51.1057  -26.9340    4.3262 C.3       14 UNK        -0.0898 
      7 S7        -51.5079  -28.5575    5.0659 S.3       14 UNK        -0.2598 
      8 C8        -53.3200  -28.4915    5.2258 C.3       14 UNK         0.0286 
      9 C9        -53.7650  -27.8856    6.5502 C.ar      14 UNK        -0.0844 
     10 C10       -53.9808  -26.5092    6.6674 C.ar      14 UNK        -0.0881 
     11 C11       -54.4710  -25.9611    7.8582 C.ar      14 UNK        -0.0643 
     12 C12       -54.7432  -26.8120    8.9392 C.ar      14 UNK        -0.0930 
     13 C13       -54.5111  -28.1886    8.8437 C.ar      14 UNK        -0.0827 
     14 C14       -54.0207  -28.7168    7.6453 C.ar      14 UNK        -0.1249 
     15 C15       -54.8385  -29.1175   10.0079 C.3       14 UNK         0.0141 
     16 S16       -53.9186  -28.7004   11.5237 S.3       14 UNK        -0.2313 
     17 C17       -54.2675  -30.1620   12.5634 C.3       14 UNK        -0.0915 
     18 CA        -53.0239  -31.0192   12.9324 C.3       13 UNK         0.0968 
     19 C         -52.2346  -31.5185   11.6857 C.2       13 UNK         0.5732 
     20 N         -51.0000  -31.0870   11.4624 N.am      13 UNK        -0.7310 
     21 O         -52.7532  -32.3249   10.9169 O.2       13 UNK        -0.5035 
     22 N         -52.2164  -30.4021   14.0009 N.am      13 UNK        -0.4233 
     23 C         -51.3565  -31.0807   14.7777 C.2       13 UNK         0.4989 
     24 O         -51.1267  -32.2836   14.6418 O.2       13 UNK        -0.4996 
     25 CA        -50.6652  -30.3366   15.9365 C.3       12 UNK         0.0216 
     26 CB        -49.1499  -30.1856   15.7149 C.3       12 UNK        -0.1964 
     27 N         -51.2502  -29.0249   16.2265 N.am      12 UNK        -0.4276 
     28 C         -52.2163  -28.8163   17.1317 C.2       12 UNK         0.5020 
     29 O         -52.7367  -29.7091   17.8023 O.2       12 UNK        -0.5489 
     30 CA        -52.6778  -27.3644   17.3307 C.3       11 UNK         0.0294 
     31 CB        -51.7680  -26.6410   18.3365 C.3       11 UNK        -0.2019 
     32 N         -52.7214  -26.6087   16.0778 N.am      11 UNK        -0.4493 
     33 C         -53.6690  -26.7681   15.1402 C.2       11 UNK         0.4932 
     34 O         -54.5811  -27.5894   15.2382 O.2       11 UNK        -0.5029 
     35 CA        -53.5788  -25.8859   13.8791 C.3       10 UNK         0.0280 
     36 CB        -54.9567  -25.5650   13.2621 C.3       10 UNK        -0.1976 
     37 N         -52.7796  -24.6722   14.0676 N.am      10 UNK        -0.4242 
     38 C         -53.0411  -23.6367   14.8814 C.2       10 UNK         0.5072 
     39 O         -54.0798  -23.5240   15.5340 O.2       10 UNK        -0.5224 
     40 CA        -51.9501  -22.5507   15.0050 C.3       9 UNK         0.0343 
     41 CB        -51.9057  -21.9300   16.4176 C.3       9 UNK        -0.2003 
     42 N         -50.6055  -22.9876   14.6007 N.am      9 UNK        -0.4272 
     43 C         -49.8852  -24.0010   15.1101 C.2       9 UNK         0.4988 
     44 O         -50.3027  -24.7488   15.9964 O.2       9 UNK        -0.5108 
     45 CA        -48.5001  -24.2523   14.4845 C.3       8 UNK         0.0248 
     46 CB        -48.0427  -25.7107   14.6772 C.3       8 UNK        -0.2001 
     47 N         -48.5294  -23.9454   13.0529 N.am      8 UNK        -0.4140 
     48 C         -47.9868  -22.8691   12.4655 C.2       8 UNK         0.5028 
     49 O         -47.2968  -22.0409   13.0603 O.2       8 UNK        -0.5428 
     50 CA        -48.3046  -22.6416   10.9717 C.3       7 UNK         0.0264 
     51 CB        -47.1700  -23.1822   10.0902 C.3       7 UNK        -0.1988 
     52 N         -49.5719  -23.2437   10.5429 N.am      7 UNK        -0.4454 
     53 C         -50.7846  -22.8565   10.9707 C.2       7 UNK         0.5027 
     54 O         -50.9597  -21.8737   11.6911 O.2       7 UNK        -0.5083 
     55 CA        -52.0038  -23.7388   10.6057 C.3       6 UNK         0.0844 
     56 C56       -52.8738  -23.0708    9.5141 C.3       14 UNK        -0.0967 
     57 S57       -54.5879  -23.6920    9.5492 S.3       14 UNK        -0.2604 
     58 C58       -54.7937  -24.4681    7.9096 C.3       14 UNK         0.0134 
     59 N         -51.6596  -25.1284   10.2677 N.am      6 UNK        -0.4116 
     60 C         -50.9932  -25.9800   11.0615 C.2       5 UNK         0.5034 
     61 O         -50.6356  -25.6829   12.2034 O.2       5 UNK        -0.5045 
     62 CA        -50.6245  -27.3581   10.4843 C.3       5 UNK         0.0224 
     63 CB        -50.8342  -27.4747    8.9657 C.3       5 UNK        -0.1978 
     64 N         -49.2300  -27.6767   10.7934 N.am      5 UNK        -0.4737 
     65 C         -48.8434  -28.3765   11.8680 C.2       4 UNK         0.5027 
     66 O         -49.6410  -28.8456   12.6801 O.2       4 UNK        -0.5211 
     67 CA        -47.3394  -28.6517   12.0632 C.3       4 UNK         0.0297 
     68 CB        -47.0842  -30.1625   12.2091 C.3       4 UNK        -0.1993 
     69 N         -46.5164  -28.1478   10.9608 N.am      4 UNK        -0.4486 
     70 C         -45.8751  -26.9715   10.9409 C.2       3 UNK         0.4961 
     71 O         -45.8610  -26.1791   11.8808 O.2       3 UNK        -0.5105 
     72 CA        -45.1318  -26.6049    9.6393 C.3       3 UNK         0.0299 
     73 CB        -43.6464  -26.9844    9.7500 C.3       3 UNK        -0.1972 
     74 N         -45.6980  -27.2128    8.4274 N.am      3 UNK        -0.4305 
     75 C         -46.9506  -27.0269    7.9890 C.2       2 UNK         0.5006 
     76 O         -47.7720  -26.3079    8.5643 O.2       2 UNK        -0.5106 
     77 CA        -47.3665  -27.8470    6.7546 C.3       2 UNK         0.0296 
     78 CB        -47.4477  -29.3435    7.1070 C.3       2 UNK        -0.2002 
     79 N         -48.6745  -27.4263    6.2558 N.am      2 UNK        -0.4032 
     80 C         -48.9125  -26.3332    5.5235 C.2       1 UNK         0.5000 
     81 O         -48.0249  -25.6299    5.0325 O.2       1 UNK        -0.5238 
     82 H82       -50.4406  -24.3319    7.6384 H         1 UNK         0.0889 
     83 H83       -49.9910  -22.6333    7.6007 H         1 UNK         0.0889 
     84 H84       -48.8137  -23.8537    7.1319 H         1 UNK         0.0889 
     85 H85       -50.8665  -24.4467    3.9539 H         1 UNK         0.3028 
     86 H86       -50.9100  -26.0842    6.2805 H         1 UNK         0.0864 
     87 H87       -50.4933  -27.0935    3.4364 H         1 UNK         0.0720 
     88 H88       -52.0312  -26.4853    3.9629 H         1 UNK         0.0720 
     89 H89       -53.7051  -29.5093    5.1457 H         1 UNK         0.0814 
     90 H90       -53.7593  -27.9481    4.3881 H         1 UNK         0.0814 
     91 H91       -53.8011  -25.8683    5.8149 H         1 UNK         0.1469 
     92 H92       -55.1522  -26.4116    9.8564 H         1 UNK         0.1381 
     93 H93       -53.8577  -29.7822    7.5546 H         1 UNK         0.1206 
     94 H94       -54.6188  -30.1520    9.7383 H         1 UNK         0.0813 
     95 H95       -55.9085  -29.0705   10.2143 H         1 UNK         0.0813 
     96 H96       -54.7638  -29.8176   13.4719 H         1 UNK         0.0638 
     97 H97       -55.0032  -30.7903   12.0587 H         1 UNK         0.0638 
     98 H98       -53.4285  -31.9315   13.3754 H         1 UNK         0.0568 
     99 H99       -50.5815  -30.3844   12.0651 H         1 UNK         0.3450 
    100 H100      -50.5008  -31.4274   10.6582 H         1 UNK         0.3450 
    101 H101      -52.3425  -29.4132   14.1474 H         1 UNK         0.2987 
    102 H102      -50.7862  -30.9813   16.8099 H         1 UNK         0.0766 
    103 H103      -48.6468  -29.9233   16.6457 H         1 UNK         0.0798 
    104 H104      -48.9125  -29.4098   14.9904 H         1 UNK         0.0798 
    105 H105      -48.7043  -31.1164   15.3615 H         1 UNK         0.0798 
    106 H106      -50.8810  -28.2338   15.7180 H         1 UNK         0.3198 
    107 H107      -53.6868  -27.3908   17.7486 H         1 UNK         0.0843 
    108 H108      -52.1079  -25.6209   18.5169 H         1 UNK         0.0831 
    109 H109      -50.7356  -26.5918   17.9879 H         1 UNK         0.0831 
    110 H110      -51.7629  -27.1565   19.2979 H         1 UNK         0.0831 
    111 H111      -51.9962  -25.9104   15.9403 H         1 UNK         0.3133 
    112 H112      -53.0306  -26.4826   13.1525 H         1 UNK         0.0566 
    113 H113      -54.8551  -24.9703   12.3549 H         1 UNK         0.0814 
    114 H114      -55.4857  -26.4785   12.9884 H         1 UNK         0.0814 
    115 H115      -55.5964  -25.0182   13.9548 H         1 UNK         0.0814 
    116 H116      -51.8804  -24.6898   13.5997 H         1 UNK         0.3091 
    117 H117      -52.2335  -21.7632   14.3052 H         1 UNK         0.0702 
    118 H118      -51.1446  -21.1528   16.4859 H         1 UNK         0.0785 
    119 H119      -51.6902  -22.6791   17.1805 H         1 UNK         0.0785 
    120 H120      -52.8596  -21.4684   16.6756 H         1 UNK         0.0785 
    121 H121      -50.1995  -22.4594   13.8386 H         1 UNK         0.2998 
    122 H122      -47.7917  -23.6020   15.0009 H         1 UNK         0.0697 
    123 H123      -47.0602  -25.8771   14.2374 H         1 UNK         0.0825 
    124 H124      -47.9669  -25.9646   15.7353 H         1 UNK         0.0825 
    125 H125      -48.7406  -26.4137   14.2209 H         1 UNK         0.0825 
    126 H126      -49.1222  -24.5600   12.5019 H         1 UNK         0.3029 
    127 H127      -48.3748  -21.5628   10.8154 H         1 UNK         0.0897 
    128 H128      -47.3276  -22.9390    9.0395 H         1 UNK         0.0792 
    129 H129      -46.2086  -22.7571   10.3816 H         1 UNK         0.0792 
    130 H130      -47.0877  -24.2646   10.1763 H         1 UNK         0.0792 
    131 H131      -49.5013  -24.0698    9.9676 H         1 UNK         0.3086 
    132 H132      -52.6029  -23.7835   11.5159 H         1 UNK         0.0583 
    133 H133      -52.9381  -21.9920    9.6740 H         1 UNK         0.1020 
    134 H134      -52.4355  -23.1967    8.5240 H         1 UNK         0.1020 
    135 H135      -55.8367  -24.3482    7.6140 H         1 UNK         0.0694 
    136 H136      -54.2078  -23.9184    7.1714 H         1 UNK         0.0694 
    137 H137      -51.9816  -25.4613    9.3714 H         1 UNK         0.2989 
    138 H138      -51.2764  -28.0875   10.9628 H         1 UNK         0.1055 
    139 H139      -51.8799  -27.3430    8.7014 H         1 UNK         0.0806 
    140 H140      -50.5398  -28.4593    8.6024 H         1 UNK         0.0806 
    141 H141      -50.2622  -26.7257    8.4247 H         1 UNK         0.0806 
    142 H142      -48.5284  -27.2725   10.1825 H         1 UNK         0.3061 
    143 H143      -47.0447  -28.1675   12.9963 H         1 UNK         0.0734 
    144 H144      -46.0292  -30.3711   12.3871 H         1 UNK         0.0832 
    145 H145      -47.6385  -30.5774   13.0516 H         1 UNK         0.0832 
    146 H146      -47.3909  -30.7123   11.3185 H         1 UNK         0.0832 
    147 H147      -46.4637  -28.7294   10.1377 H         1 UNK         0.3156 
    148 H148      -45.1935  -25.5218    9.5202 H         1 UNK         0.0589 
    149 H149      -43.5096  -28.0627    9.8417 H         1 UNK         0.0808 
    150 H150      -43.0828  -26.6454    8.8806 H         1 UNK         0.0808 
    151 H151      -43.1907  -26.5230   10.6275 H         1 UNK         0.0808 
    152 H152      -45.0866  -27.8220    7.9023 H         1 UNK         0.3098 
    153 H153      -46.6206  -27.7013    5.9705 H         1 UNK         0.0720 
    154 H154      -46.4773  -29.7358    7.4134 H         1 UNK         0.0791 
    155 H155      -47.7707  -29.9336    6.2488 H         1 UNK         0.0791 
    156 H156      -48.1488  -29.5309    7.9219 H         1 UNK         0.0791 
    157 H157      -49.4665  -27.9654    6.5749 H         1 UNK         0.3028 
@<TRIPOS>BOND
     1    1    2 1    
     2    1   82 1    
     3    1   83 1    
     4    1   84 1    
     5    2    3 2    
     6    2    4 am   BACKBONE|DICT|INTERRES
     7    4    5 1    
     8    4   85 1    
     9    5    6 1    
    10    5   80 1    
    11    5   86 1    
    12    6    7 1    
    13    6   87 1    
    14    6   88 1    
    15    7    8 1    
    16    8    9 1    
    17    8   89 1    
    18    8   90 1    
    19    9   10 ar   
    20    9   14 ar   
    21   10   11 ar   
    22   10   91 1    
    23   11   12 ar   
    24   11   58 1    
    25   12   13 ar   
    26   12   92 1    
    27   13   14 ar   
    28   13   15 1    
    29   14   93 1    
    30   15   16 1    
    31   15   94 1    
    32   15   95 1    
    33   16   17 1    
    34   17   18 1    
    35   17   96 1    
    36   17   97 1    
    37   18   19 1    
    38   18   22 1    
    39   18   98 1    
    40   19   20 am   BACKBONE|DICT|INTERRES
    41   19   21 2    
    42   20   99 1    
    43   20  100 1    
    44   22   23 am   BACKBONE|DICT|INTERRES
    45   22  101 1    
    46   23   24 2    
    47   23   25 1    
    48   25   26 1    
    49   25   27 1    
    50   25  102 1    
    51   26  103 1    
    52   26  104 1    
    53   26  105 1    
    54   27   28 am   BACKBONE|DICT|INTERRES
    55   27  106 1    
    56   28   29 2    
    57   28   30 1    
    58   30   31 1    
    59   30   32 1    
    60   30  107 1    
    61   31  108 1    
    62   31  109 1    
    63   31  110 1    
    64   32   33 am   BACKBONE|DICT|INTERRES
    65   32  111 1    
    66   33   34 2    
    67   33   35 1    
    68   35   36 1    
    69   35   37 1    
    70   35  112 1    
    71   36  113 1    
    72   36  114 1    
    73   36  115 1    
    74   37   38 am   BACKBONE|DICT|INTERRES
    75   37  116 1    
    76   38   39 2    
    77   38   40 1    
    78   40   41 1    
    79   40   42 1    
    80   40  117 1    
    81   41  118 1    
    82   41  119 1    
    83   41  120 1    
    84   42   43 am   BACKBONE|DICT|INTERRES
    85   42  121 1    
    86   43   44 2    
    87   43   45 1    
    88   45   46 1    
    89   45   47 1    
    90   45  122 1    
    91   46  123 1    
    92   46  124 1    
    93   46  125 1    
    94   47   48 am   BACKBONE|DICT|INTERRES
    95   47  126 1    
    96   48   49 2    
    97   48   50 1    
    98   50   51 1    
    99   50   52 1    
   100   50  127 1    
   101   51  128 1    
   102   51  129 1    
   103   51  130 1    
   104   52   53 am   BACKBONE|DICT|INTERRES
   105   52  131 1    
   106   53   54 2    
   107   53   55 1    
   108   55   56 1    
   109   55   59 1    
   110   55  132 1    
   111   56   57 1    
   112   56  133 1    
   113   56  134 1    
   114   57   58 1    
   115   58  135 1    
   116   58  136 1    
   117   59   60 am   BACKBONE|DICT|INTERRES
   118   59  137 1    
   119   60   61 2    
   120   60   62 1    
   121   62   63 1    
   122   62   64 1    
   123   62  138 1    
   124   63  139 1    
   125   63  140 1    
   126   63  141 1    
   127   64   65 am   BACKBONE|DICT|INTERRES
   128   64  142 1    
   129   65   66 2    
   130   65   67 1    
   131   67   68 1    
   132   67   69 1    
   133   67  143 1    
   134   68  144 1    
   135   68  145 1    
   136   68  146 1    
   137   69   70 am   BACKBONE|DICT|INTERRES
   138   69  147 1    
   139   70   71 2    
   140   70   72 1    
   141   72   73 1    
   142   72   74 1    
   143   72  148 1    
   144   73  149 1    
   145   73  150 1    
   146   73  151 1    
   147   74   75 am   BACKBONE|DICT|INTERRES
   148   74  152 1    
   149   75   76 2    
   150   75   77 1    
   151   77   78 1    
   152   77   79 1    
   153   77  153 1    
   154   78  154 1    
   155   78  155 1    
   156   78  156 1    
   157   79   80 am   BACKBONE|DICT|INTERRES
   158   79  157 1    
   159   80   81 2    
@<TRIPOS>SUBSTRUCTURE
     1 UNK         1 GROUP             0       ****    0 ROOT    
