@<TRIPOS>MOLECULE
3R207
157   159    1
SMALL
USER_CHARGES


@<TRIPOS>ATOM
      1 CA        -48.8927  -30.8062    2.4711 C.3       0 UNK        -0.1975 
      2 C         -48.5965  -29.3349    2.7234 C.2       0 UNK         0.4852 
      3 O         -47.5414  -28.8452    2.3170 O.2       0 UNK        -0.5216 
      4 N         -49.5243  -28.6279    3.3814 N.am      1 UNK        -0.4461 
      5 CA        -49.3766  -27.2278    3.7932 C.3       1 UNK         0.0864 
      6 C6        -50.7652  -26.5327    3.9363 C.3       14 UNK        -0.0898 
      7 S7        -51.5946  -26.6484    5.5609 S.3       14 UNK        -0.2598 
      8 C8        -52.4363  -28.2596    5.4626 C.3       14 UNK         0.0286 
      9 C9        -52.4763  -28.9332    6.8267 C.ar      14 UNK        -0.0844 
     10 C10       -51.2837  -29.3217    7.4423 C.ar      14 UNK        -0.0881 
     11 C11       -51.2887  -29.9213    8.7062 C.ar      14 UNK        -0.0643 
     12 C12       -52.5139  -30.1709    9.3351 C.ar      14 UNK        -0.0930 
     13 C13       -53.7173  -29.8097    8.7202 C.ar      14 UNK        -0.0827 
     14 C14       -53.6916  -29.1809    7.4706 C.ar      14 UNK        -0.1249 
     15 C15       -55.0504  -30.1235    9.3839 C.3       14 UNK         0.0141 
     16 S16       -55.6735  -28.7160   10.3516 S.3       14 UNK        -0.2313 
     17 C17       -55.1343  -29.1572   12.0376 C.3       14 UNK        -0.0915 
     18 CA        -55.5415  -28.0648   13.0682 C.3       13 UNK         0.0968 
     19 C         -57.0471  -28.0652   13.4650 C.2       13 UNK         0.5732 
     20 N         -57.4931  -27.0509   14.1952 N.am      13 UNK        -0.7310 
     21 O         -57.8090  -28.9709   13.1332 O.2       13 UNK        -0.5035 
     22 N         -54.6596  -28.0251   14.2432 N.am      13 UNK        -0.4233 
     23 C         -54.5713  -28.9431   15.2160 C.2       13 UNK         0.4989 
     24 O         -55.1376  -30.0358   15.1894 O.2       13 UNK        -0.4996 
     25 CA        -53.7141  -28.5740   16.4420 C.3       12 UNK         0.0216 
     26 CB        -52.3615  -29.3030   16.4067 C.3       12 UNK        -0.1964 
     27 N         -53.4886  -27.1271   16.5323 N.am      12 UNK        -0.4276 
     28 C         -54.3055  -26.2752   17.1689 C.2       12 UNK         0.5020 
     29 O         -55.2553  -26.6283   17.8690 O.2       12 UNK        -0.5489 
     30 CA        -54.0471  -24.7732   16.9585 C.3       11 UNK         0.0294 
     31 CB        -52.9806  -24.2616   17.9381 C.3       11 UNK        -0.2019 
     32 N         -53.6537  -24.4594   15.5814 N.am      11 UNK        -0.4493 
     33 C         -54.4744  -24.5441   14.5237 C.2       11 UNK         0.4932 
     34 O         -55.6624  -24.8542   14.6195 O.2       11 UNK        -0.5029 
     35 CA        -53.8784  -24.3297   13.1177 C.3       10 UNK         0.0280 
     36 CB        -54.8364  -23.5672   12.1793 C.3       10 UNK        -0.1976 
     37 N         -52.5332  -23.7477   13.1036 N.am      10 UNK        -0.4242 
     38 C         -52.1618  -22.5099   13.4602 C.2       10 UNK         0.5072 
     39 O         -52.9339  -21.6354   13.8560 O.2       10 UNK        -0.5224 
     40 CA        -50.6515  -22.2326   13.3565 C.3       9 UNK         0.0343 
     41 CB        -50.2193  -20.8971   13.9980 C.3       9 UNK        -0.2003 
     42 N         -49.8524  -23.3582   13.8614 N.am      9 UNK        -0.4272 
     43 C         -49.8212  -23.8252   15.1190 C.2       9 UNK         0.4988 
     44 O         -50.4377  -23.3166   16.0555 O.2       9 UNK        -0.5108 
     45 CA        -48.9969  -25.1083   15.3445 C.3       8 UNK         0.0248 
     46 CB        -49.1303  -25.6713   16.7756 C.3       8 UNK        -0.2001 
     47 N         -49.2959  -26.1522   14.3581 N.am      8 UNK        -0.4140 
     48 C         -50.4919  -26.6981   14.0851 C.2       8 UNK         0.5028 
     49 O         -51.5365  -26.3920   14.6631 O.2       8 UNK        -0.5428 
     50 CA        -50.5537  -27.7454   12.9621 C.3       7 UNK         0.0264 
     51 CB        -51.6401  -27.3904   11.9330 C.3       7 UNK        -0.1988 
     52 N         -49.2719  -27.8937   12.2703 N.am      7 UNK        -0.4454 
     53 C         -48.4217  -28.9116   12.4586 C.2       7 UNK         0.5027 
     54 O         -48.6027  -29.8134   13.2780 O.2       7 UNK        -0.5083 
     55 CA        -47.1579  -28.9416   11.5756 C.3       6 UNK         0.0844 
     56 C56       -47.3673  -29.7835   10.2917 C.3       14 UNK        -0.0967 
     57 S57       -48.6367  -29.1219    9.1600 S.3       14 UNK        -0.2604 
     58 C58       -49.9860  -30.3305    9.3889 C.3       14 UNK         0.0134 
     59 N         -46.5966  -27.6130   11.2972 N.am      6 UNK        -0.4116 
     60 C         -45.9519  -26.8764   12.2150 C.2       5 UNK         0.5034 
     61 O         -45.9330  -27.1438   13.4167 O.2       5 UNK        -0.5045 
     62 CA        -45.1795  -25.6503   11.7133 C.3       5 UNK         0.0224 
     63 CB        -44.0978  -26.0449   10.6912 C.3       5 UNK        -0.1978 
     64 N         -46.0894  -24.6826   11.1126 N.am      5 UNK        -0.4737 
     65 C         -46.5660  -23.5964   11.7347 C.2       4 UNK         0.5027 
     66 O         -46.2549  -23.2663   12.8787 O.2       4 UNK        -0.5211 
     67 CA        -47.5777  -22.7338   10.9567 C.3       4 UNK         0.0297 
     68 CB        -46.8530  -21.6021   10.2118 C.3       4 UNK        -0.1993 
     69 N         -48.3901  -23.4965   10.0038 N.am      4 UNK        -0.4486 
     70 C         -49.1903  -24.5242   10.3197 C.2       3 UNK         0.4961 
     71 O         -49.4208  -24.8742   11.4767 O.2       3 UNK        -0.5105 
     72 CA        -49.7992  -25.3293    9.1581 C.3       3 UNK         0.0299 
     73 CB        -51.2282  -24.8386    8.8746 C.3       3 UNK        -0.1972 
     74 N         -49.0078  -25.3130    7.9179 N.am      3 UNK        -0.4305 
     75 C         -47.7233  -25.6912    7.8027 C.2       2 UNK         0.5006 
     76 O         -47.0446  -26.0928    8.7524 O.2       2 UNK        -0.5106 
     77 CA        -47.0753  -25.5268    6.4118 C.3       2 UNK         0.0296 
     78 CB        -45.7093  -26.2400    6.3029 C.3       2 UNK        -0.2002 
     79 N         -47.9593  -25.8960    5.2956 N.am      2 UNK        -0.4032 
     80 C         -48.4632  -27.1134    5.0389 C.2       1 UNK         0.5000 
     81 O         -48.2452  -28.1089    5.7343 O.2       1 UNK        -0.5238 
     82 H82       -48.1306  -31.4271    2.9413 H         1 UNK         0.0889 
     83 H83       -48.8884  -31.0121    1.4011 H         1 UNK         0.0889 
     84 H84       -49.8632  -31.1017    2.8694 H         1 UNK         0.0889 
     85 H85       -50.3478  -29.0983    3.7232 H         1 UNK         0.3028 
     86 H86       -48.8541  -26.7164    2.9811 H         1 UNK         0.0864 
     87 H87       -51.4506  -26.8767    3.1596 H         1 UNK         0.0720 
     88 H88       -50.6388  -25.4667    3.7411 H         1 UNK         0.0720 
     89 H89       -51.9225  -28.9188    4.7645 H         1 UNK         0.0814 
     90 H90       -53.4416  -28.1121    5.0652 H         1 UNK         0.0814 
     91 H91       -50.3448  -29.1350    6.9392 H         1 UNK         0.1469 
     92 H92       -52.5332  -30.6522   10.3033 H         1 UNK         0.1381 
     93 H93       -54.6207  -28.8932    6.9975 H         1 UNK         0.1206 
     94 H94       -54.9681  -31.0095   10.0154 H         1 UNK         0.0813 
     95 H95       -55.7875  -30.3707    8.6184 H         1 UNK         0.0813 
     96 H96       -55.5370  -30.1330   12.3142 H         1 UNK         0.0638 
     97 H97       -54.0504  -29.2736   12.0144 H         1 UNK         0.0638 
     98 H98       -55.3816  -27.1021   12.5819 H         1 UNK         0.0568 
     99 H99       -58.4614  -27.0303   14.4717 H         1 UNK         0.3450 
    100 H100      -56.8775  -26.2818   14.4469 H         1 UNK         0.3450 
    101 H101      -54.1645  -27.1597   14.3876 H         1 UNK         0.2987 
    102 H102      -54.2517  -28.9142   17.3296 H         1 UNK         0.0766 
    103 H103      -51.7815  -29.0412   15.5239 H         1 UNK         0.0798 
    104 H104      -52.5025  -30.3846   16.3933 H         1 UNK         0.0798 
    105 H105      -51.7605  -29.0653   17.2845 H         1 UNK         0.0798 
    106 H106      -52.7264  -26.7500   15.9665 H         1 UNK         0.3198 
    107 H107      -54.9793  -24.2440   17.1686 H         1 UNK         0.0843 
    108 H108      -52.8169  -23.1899   17.8232 H         1 UNK         0.0831 
    109 H109      -52.0236  -24.7621   17.7920 H         1 UNK         0.0831 
    110 H110      -53.2847  -24.4356   18.9710 H         1 UNK         0.0831 
    111 H111      -52.6772  -24.2450   15.4224 H         1 UNK         0.3133 
    112 H112      -53.7563  -25.3279   12.6996 H         1 UNK         0.0566 
    113 H113      -55.7798  -24.1023   12.0632 H         1 UNK         0.0814 
    114 H114      -55.0744  -22.5743   12.5615 H         1 UNK         0.0814 
    115 H115      -54.4085  -23.4514   11.1835 H         1 UNK         0.0814 
    116 H116      -51.7933  -24.3838   12.8396 H         1 UNK         0.3091 
    117 H117      -50.4462  -22.1621   12.2881 H         1 UNK         0.0702 
    118 H118      -49.1469  -20.7351   13.8900 H         1 UNK         0.0785 
    119 H119      -50.4601  -20.8581   15.0607 H         1 UNK         0.0785 
    120 H120      -50.7241  -20.0558   13.5217 H         1 UNK         0.0785 
    121 H121      -49.3861  -23.9081   13.1442 H         1 UNK         0.2998 
    122 H122      -47.9530  -24.8286   15.1934 H         1 UNK         0.0697 
    123 H123      -48.4706  -26.5257   16.9256 H         1 UNK         0.0825 
    124 H124      -48.8618  -24.9211   17.5204 H         1 UNK         0.0825 
    125 H125      -50.1482  -25.9961   16.9907 H         1 UNK         0.0825 
    126 H126      -48.5097  -26.4717   13.8095 H         1 UNK         0.3029 
    127 H127      -50.8385  -28.6924   13.4229 H         1 UNK         0.0897 
    128 H128      -51.6546  -28.1004   11.1072 H         1 UNK         0.0792 
    129 H129      -52.6274  -27.4091   12.3895 H         1 UNK         0.0792 
    130 H130      -51.5004  -26.3968   11.5134 H         1 UNK         0.0792 
    131 H131      -49.0400  -27.1779   11.5938 H         1 UNK         0.3086 
    132 H132      -46.4028  -29.4724   12.1603 H         1 UNK         0.0583 
    133 H133      -46.4283  -29.8440    9.7394 H         1 UNK         0.1020 
    134 H134      -47.6109  -30.8150   10.5538 H         1 UNK         0.1020 
    135 H135      -49.6703  -31.2973    8.9951 H         1 UNK         0.0694 
    136 H136      -50.1545  -30.4641   10.4586 H         1 UNK         0.0694 
    137 H137      -46.6346  -27.2912   10.3342 H         1 UNK         0.2989 
    138 H138      -44.6725  -25.2066   12.5736 H         1 UNK         0.1055 
    139 H139      -44.5225  -26.4613    9.7771 H         1 UNK         0.0806 
    140 H140      -43.4212  -26.7924   11.1076 H         1 UNK         0.0806 
    141 H141      -43.4922  -25.1832   10.4102 H         1 UNK         0.0806 
    142 H142      -46.4496  -24.9211   10.1929 H         1 UNK         0.3061 
    143 H143      -48.2463  -22.2795   11.6870 H         1 UNK         0.0734 
    144 H144      -47.5594  -20.9278    9.7273 H         1 UNK         0.0832 
    145 H145      -46.2570  -21.0018   10.9009 H         1 UNK         0.0832 
    146 H146      -46.1762  -21.9884    9.4485 H         1 UNK         0.0832 
    147 H147      -48.2715  -23.2743    9.0265 H         1 UNK         0.3156 
    148 H148      -49.8591  -26.3676    9.4886 H         1 UNK         0.0589 
    149 H149      -51.2338  -23.8637    8.3862 H         1 UNK         0.0808 
    150 H150      -51.7666  -25.5401    8.2387 H         1 UNK         0.0808 
    151 H151      -51.8073  -24.7426    9.7940 H         1 UNK         0.0808 
    152 H152      -49.4933  -25.0193    7.0826 H         1 UNK         0.3098 
    153 H153      -46.8866  -24.4580    6.3017 H         1 UNK         0.0720 
    154 H154      -45.0047  -25.8496    7.0385 H         1 UNK         0.0791 
    155 H155      -45.7973  -27.3126    6.4792 H         1 UNK         0.0791 
    156 H156      -45.2621  -26.0962    5.3195 H         1 UNK         0.0791 
    157 H157      -48.2039  -25.1405    4.6699 H         1 UNK         0.3028 
@<TRIPOS>BOND
     1    1    2 1    
     2    1   82 1    
     3    1   83 1    
     4    1   84 1    
     5    2    3 2    
     6    2    4 am   BACKBONE|DICT|INTERRES
     7    4    5 1    
     8    4   85 1    
     9    5    6 1    
    10    5   80 1    
    11    5   86 1    
    12    6    7 1    
    13    6   87 1    
    14    6   88 1    
    15    7    8 1    
    16    8    9 1    
    17    8   89 1    
    18    8   90 1    
    19    9   10 ar   
    20    9   14 ar   
    21   10   11 ar   
    22   10   91 1    
    23   11   12 ar   
    24   11   58 1    
    25   12   13 ar   
    26   12   92 1    
    27   13   14 ar   
    28   13   15 1    
    29   14   93 1    
    30   15   16 1    
    31   15   94 1    
    32   15   95 1    
    33   16   17 1    
    34   17   18 1    
    35   17   96 1    
    36   17   97 1    
    37   18   19 1    
    38   18   22 1    
    39   18   98 1    
    40   19   20 am   BACKBONE|DICT|INTERRES
    41   19   21 2    
    42   20   99 1    
    43   20  100 1    
    44   22   23 am   BACKBONE|DICT|INTERRES
    45   22  101 1    
    46   23   24 2    
    47   23   25 1    
    48   25   26 1    
    49   25   27 1    
    50   25  102 1    
    51   26  103 1    
    52   26  104 1    
    53   26  105 1    
    54   27   28 am   BACKBONE|DICT|INTERRES
    55   27  106 1    
    56   28   29 2    
    57   28   30 1    
    58   30   31 1    
    59   30   32 1    
    60   30  107 1    
    61   31  108 1    
    62   31  109 1    
    63   31  110 1    
    64   32   33 am   BACKBONE|DICT|INTERRES
    65   32  111 1    
    66   33   34 2    
    67   33   35 1    
    68   35   36 1    
    69   35   37 1    
    70   35  112 1    
    71   36  113 1    
    72   36  114 1    
    73   36  115 1    
    74   37   38 am   BACKBONE|DICT|INTERRES
    75   37  116 1    
    76   38   39 2    
    77   38   40 1    
    78   40   41 1    
    79   40   42 1    
    80   40  117 1    
    81   41  118 1    
    82   41  119 1    
    83   41  120 1    
    84   42   43 am   BACKBONE|DICT|INTERRES
    85   42  121 1    
    86   43   44 2    
    87   43   45 1    
    88   45   46 1    
    89   45   47 1    
    90   45  122 1    
    91   46  123 1    
    92   46  124 1    
    93   46  125 1    
    94   47   48 am   BACKBONE|DICT|INTERRES
    95   47  126 1    
    96   48   49 2    
    97   48   50 1    
    98   50   51 1    
    99   50   52 1    
   100   50  127 1    
   101   51  128 1    
   102   51  129 1    
   103   51  130 1    
   104   52   53 am   BACKBONE|DICT|INTERRES
   105   52  131 1    
   106   53   54 2    
   107   53   55 1    
   108   55   56 1    
   109   55   59 1    
   110   55  132 1    
   111   56   57 1    
   112   56  133 1    
   113   56  134 1    
   114   57   58 1    
   115   58  135 1    
   116   58  136 1    
   117   59   60 am   BACKBONE|DICT|INTERRES
   118   59  137 1    
   119   60   61 2    
   120   60   62 1    
   121   62   63 1    
   122   62   64 1    
   123   62  138 1    
   124   63  139 1    
   125   63  140 1    
   126   63  141 1    
   127   64   65 am   BACKBONE|DICT|INTERRES
   128   64  142 1    
   129   65   66 2    
   130   65   67 1    
   131   67   68 1    
   132   67   69 1    
   133   67  143 1    
   134   68  144 1    
   135   68  145 1    
   136   68  146 1    
   137   69   70 am   BACKBONE|DICT|INTERRES
   138   69  147 1    
   139   70   71 2    
   140   70   72 1    
   141   72   73 1    
   142   72   74 1    
   143   72  148 1    
   144   73  149 1    
   145   73  150 1    
   146   73  151 1    
   147   74   75 am   BACKBONE|DICT|INTERRES
   148   74  152 1    
   149   75   76 2    
   150   75   77 1    
   151   77   78 1    
   152   77   79 1    
   153   77  153 1    
   154   78  154 1    
   155   78  155 1    
   156   78  156 1    
   157   79   80 am   BACKBONE|DICT|INTERRES
   158   79  157 1    
   159   80   81 2    
@<TRIPOS>SUBSTRUCTURE
     1 UNK         1 GROUP             0       ****    0 ROOT    
