@<TRIPOS>MOLECULE
3R207
157   159    1
SMALL
USER_CHARGES


@<TRIPOS>ATOM
      1 CA        -45.0066  -29.0907    7.6225 C.3       0 UNK        -0.1975 
      2 C         -46.0844  -28.4196    6.7855 C.2       0 UNK         0.4852 
      3 O         -46.6485  -27.4159    7.2214 O.2       0 UNK        -0.5216 
      4 N         -46.3398  -28.9543    5.5812 N.am      1 UNK        -0.4461 
      5 CA        -47.3754  -28.5889    4.5943 C.3       1 UNK         0.0864 
      6 C6        -48.7972  -29.0946    4.9779 C.3       14 UNK        -0.0898 
      7 S7        -49.6460  -28.1846    6.3163 S.3       14 UNK        -0.2598 
      8 C8        -51.3477  -28.7724    6.0688 C.3       14 UNK         0.0286 
      9 C9        -52.2568  -28.3403    7.2086 C.ar      14 UNK        -0.0844 
     10 C10       -52.7216  -27.0240    7.2749 C.ar      14 UNK        -0.0881 
     11 C11       -53.5641  -26.6209    8.3159 C.ar      14 UNK        -0.0643 
     12 C12       -53.9681  -27.5533    9.2742 C.ar      14 UNK        -0.0930 
     13 C13       -53.4975  -28.8685    9.2279 C.ar      14 UNK        -0.0827 
     14 C14       -52.6399  -29.2563    8.1934 C.ar      14 UNK        -0.1249 
     15 C15       -53.9130  -29.8640   10.2996 C.3       14 UNK         0.0141 
     16 S16       -53.3315  -29.3415   11.9412 S.3       14 UNK        -0.2313 
     17 C17       -53.7958  -30.7837   12.9531 C.3       14 UNK        -0.0915 
     18 CA        -55.2254  -30.6920   13.5482 C.3       13 UNK         0.0968 
     19 C         -55.5396  -31.9786   14.3620 C.2       13 UNK         0.5732 
     20 N         -56.1411  -32.9802   13.7344 N.am      13 UNK        -0.7310 
     21 O         -55.2009  -32.0915   15.5389 O.2       13 UNK        -0.5035 
     22 N         -55.4166  -29.4542   14.3205 N.am      13 UNK        -0.4233 
     23 C         -56.5548  -29.0755   14.9184 C.2       13 UNK         0.4989 
     24 O         -57.6130  -29.7029   14.8537 O.2       13 UNK        -0.4996 
     25 CA        -56.5146  -27.7628   15.7183 C.3       12 UNK         0.0216 
     26 CB        -56.0950  -28.0344   17.1717 C.3       12 UNK        -0.1964 
     27 N         -55.6345  -26.7501   15.1235 N.am      12 UNK        -0.4276 
     28 C         -55.9386  -26.0629   14.0099 C.2       12 UNK         0.5020 
     29 O         -56.9808  -26.2457   13.3779 O.2       12 UNK        -0.5489 
     30 CA        -54.9359  -25.0095   13.4895 C.3       11 UNK         0.0294 
     31 CB        -55.6415  -23.7427   12.9627 C.3       11 UNK        -0.2019 
     32 N         -53.8647  -24.6510   14.4241 N.am      11 UNK        -0.4493 
     33 C         -53.9570  -24.0817   15.6344 C.2       11 UNK         0.4932 
     34 O         -55.0156  -23.7123   16.1448 O.2       11 UNK        -0.5029 
     35 CA        -52.6289  -23.9559   16.4150 C.3       10 UNK         0.0280 
     36 CB        -52.8416  -23.6827   17.9185 C.3       10 UNK        -0.1976 
     37 N         -51.7417  -25.1143   16.2235 N.am      10 UNK        -0.4242 
     38 C         -52.0480  -26.4048   16.4376 C.2       10 UNK         0.5072 
     39 O         -53.1317  -26.7745   16.8900 O.2       10 UNK        -0.5224 
     40 CA        -51.0267  -27.4810   16.0260 C.3       9 UNK         0.0343 
     41 CB        -51.6579  -28.4436   15.0092 C.3       9 UNK        -0.2003 
     42 N         -49.7981  -26.9338   15.4481 N.am      9 UNK        -0.4272 
     43 C         -48.7354  -26.5426   16.1631 C.2       9 UNK         0.4988 
     44 O         -48.6668  -26.6220   17.3902 O.2       9 UNK        -0.5108 
     45 CA        -47.5552  -25.9404   15.3821 C.3       8 UNK         0.0248 
     46 CB        -46.6499  -27.0554   14.8347 C.3       8 UNK        -0.2001 
     47 N         -47.9637  -25.0521   14.2886 N.am      8 UNK        -0.4140 
     48 C         -48.6722  -23.9236   14.4449 C.2       8 UNK         0.5028 
     49 O         -49.0791  -23.5134   15.5324 O.2       8 UNK        -0.5428 
     50 CA        -49.0245  -23.1359   13.1723 C.3       7 UNK         0.0264 
     51 CB        -47.8049  -22.3611   12.6482 C.3       7 UNK        -0.1988 
     52 N         -49.5692  -23.9764   12.1051 N.am      7 UNK        -0.4454 
     53 C         -50.6877  -24.7114   12.2040 C.2       7 UNK         0.5027 
     54 O         -51.3878  -24.7676   13.2137 O.2       7 UNK        -0.5083 
     55 CA        -51.0551  -25.5694   10.9795 C.3       6 UNK         0.0844 
     56 C56       -51.5686  -24.6850    9.8098 C.3       14 UNK        -0.0967 
     57 S57       -53.3614  -24.3615    9.9291 S.3       14 UNK        -0.2604 
     58 C58       -54.0086  -25.1695    8.4263 C.3       14 UNK         0.0134 
     59 N         -49.9361  -26.4321   10.5905 N.am      6 UNK        -0.4116 
     60 C         -49.3415  -27.3405   11.3816 C.2       5 UNK         0.5034 
     61 O         -49.7050  -27.6150   12.5249 O.2       5 UNK        -0.5045 
     62 CA        -48.0735  -28.0044   10.8210 C.3       5 UNK         0.0224 
     63 CB        -48.4371  -29.1963    9.9225 C.3       5 UNK        -0.1978 
     64 N         -47.2357  -27.0536   10.0832 N.am      5 UNK        -0.4737 
     65 C         -46.6358  -25.9899   10.6413 C.2       4 UNK         0.5027 
     66 O         -46.6453  -25.7514   11.8477 O.2       4 UNK        -0.5211 
     67 CA        -45.9851  -24.9833    9.6834 C.3       4 UNK         0.0297 
     68 CB        -44.5639  -25.4217    9.2998 C.3       4 UNK        -0.1993 
     69 N         -46.7962  -24.8085    8.4793 N.am      4 UNK        -0.4486 
     70 C         -47.9701  -24.1644    8.4426 C.2       3 UNK         0.4961 
     71 O         -48.4531  -23.5912    9.4202 O.2       3 UNK        -0.5105 
     72 CA        -48.7754  -24.2298    7.1293 C.3       3 UNK         0.0299 
     73 CB        -49.5178  -22.9130    6.8217 C.3       3 UNK        -0.1972 
     74 N         -47.9978  -24.7009    5.9768 N.am      3 UNK        -0.4305 
     75 C         -46.9829  -24.0888    5.3452 C.2       2 UNK         0.5006 
     76 O         -46.5931  -22.9539    5.6228 O.2       2 UNK        -0.5106 
     77 CA        -46.2519  -24.8933    4.2449 C.3       2 UNK         0.0296 
     78 CB        -44.7645  -24.5063    4.1402 C.3       2 UNK        -0.2002 
     79 N         -46.3434  -26.3412    4.4605 N.am      2 UNK        -0.4032 
     80 C         -47.3651  -27.1239    4.0901 C.2       1 UNK         0.5000 
     81 O         -48.2933  -26.7182    3.3881 O.2       1 UNK        -0.5238 
     82 H82       -44.8299  -30.1179    7.3046 H         1 UNK         0.0889 
     83 H83       -45.2994  -29.1099    8.6716 H         1 UNK         0.0889 
     84 H84       -44.0703  -28.5400    7.5408 H         1 UNK         0.0889 
     85 H85       -45.7854  -29.7533    5.3048 H         1 UNK         0.3028 
     86 H86       -47.0915  -29.1582    3.7078 H         1 UNK         0.0864 
     87 H87       -49.4388  -29.0740    4.0949 H         1 UNK         0.0720 
     88 H88       -48.7432  -30.1443    5.2701 H         1 UNK         0.0720 
     89 H89       -51.3444  -29.8599    5.9789 H         1 UNK         0.0814 
     90 H90       -51.7310  -28.3852    5.1235 H         1 UNK         0.0814 
     91 H91       -52.4091  -26.3107    6.5243 H         1 UNK         0.1469 
     92 H92       -54.6189  -27.2438   10.0808 H         1 UNK         0.1381 
     93 H93       -52.2721  -30.2725    8.1519 H         1 UNK         0.1206 
     94 H94       -55.0000  -29.9534   10.3102 H         1 UNK         0.0813 
     95 H95       -53.5177  -30.8559   10.0756 H         1 UNK         0.0813 
     96 H96       -53.6884  -31.6853   12.3472 H         1 UNK         0.0638 
     97 H97       -53.0588  -30.8735   13.7532 H         1 UNK         0.0638 
     98 H98       -55.9322  -30.6448   12.7177 H         1 UNK         0.0568 
     99 H99       -56.3369  -33.8279   14.2433 H         1 UNK         0.3450 
    100 H100      -56.4121  -32.9041   12.7665 H         1 UNK         0.3450 
    101 H101      -54.6026  -28.8689   14.4205 H         1 UNK         0.2987 
    102 H102      -57.5283  -27.3563   15.7366 H         1 UNK         0.0766 
    103 H103      -56.0589  -27.1141   17.7552 H         1 UNK         0.0798 
    104 H104      -55.1136  -28.5067   17.2286 H         1 UNK         0.0798 
    105 H105      -56.8039  -28.7030   17.6618 H         1 UNK         0.0798 
    106 H106      -54.7699  -26.5473   15.6163 H         1 UNK         0.3198 
    107 H107      -54.4347  -25.4801   12.6421 H         1 UNK         0.0843 
    108 H108      -56.2198  -23.2471   13.7428 H         1 UNK         0.0831 
    109 H109      -56.3290  -23.9850   12.1514 H         1 UNK         0.0831 
    110 H110      -54.9222  -23.0252   12.5676 H         1 UNK         0.0831 
    111 H111      -52.9216  -24.8478   14.0840 H         1 UNK         0.3133 
    112 H112      -52.1044  -23.0987   15.9904 H         1 UNK         0.0566 
    113 H113      -51.8903  -23.5777   18.4400 H         1 UNK         0.0814 
    114 H114      -53.3990  -22.7583   18.0737 H         1 UNK         0.0814 
    115 H115      -53.4015  -24.4855   18.3996 H         1 UNK         0.0814 
    116 H116      -50.8371  -24.9025   15.8186 H         1 UNK         0.3091 
    117 H117      -50.7796  -28.0533   16.9225 H         1 UNK         0.0702 
    118 H118      -52.5265  -28.9505   15.4307 H         1 UNK         0.0785 
    119 H119      -50.9534  -29.2149   14.6973 H         1 UNK         0.0785 
    120 H120      -51.9846  -27.9102   14.1159 H         1 UNK         0.0785 
    121 H121      -49.7621  -26.8772   14.4341 H         1 UNK         0.2998 
    122 H122      -46.9696  -25.3425   16.0834 H         1 UNK         0.0697 
    123 H123      -47.1673  -27.6651   14.0931 H         1 UNK         0.0825 
    124 H124      -46.3200  -27.7206   15.6338 H         1 UNK         0.0825 
    125 H125      -45.7558  -26.6452   14.3649 H         1 UNK         0.0825 
    126 H126      -47.6378  -25.3017   13.3560 H         1 UNK         0.3029 
    127 H127      -49.7969  -22.4115   13.4397 H         1 UNK         0.0897 
    128 H128      -48.0694  -21.7371   11.7941 H         1 UNK         0.0792 
    129 H129      -47.3997  -21.7032   13.4182 H         1 UNK         0.0792 
    130 H130      -47.0032  -23.0306   12.3350 H         1 UNK         0.0792 
    131 H131      -49.0687  -23.9663   11.2196 H         1 UNK         0.3086 
    132 H132      -51.8556  -26.2494   11.2812 H         1 UNK         0.0583 
    133 H133      -51.0525  -23.7250    9.7589 H         1 UNK         0.1020 
    134 H134      -51.3602  -25.1635    8.8543 H         1 UNK         0.1020 
    135 H135      -55.0984  -25.1266    8.4414 H         1 UNK         0.0694 
    136 H136      -53.6890  -24.5972    7.5539 H         1 UNK         0.0694 
    137 H137      -49.5411  -26.2803    9.6763 H         1 UNK         0.2989 
    138 H138      -47.4930  -28.3769   11.6677 H         1 UNK         0.1055 
    139 H139      -49.0379  -29.9248   10.4687 H         1 UNK         0.0806 
    140 H140      -47.5478  -29.7139    9.5643 H         1 UNK         0.0806 
    141 H141      -49.0177  -28.8854    9.0548 H         1 UNK         0.0806 
    142 H142      -47.1594  -27.1786    9.0764 H         1 UNK         0.3061 
    143 H143      -45.9188  -24.0219   10.1974 H         1 UNK         0.0734 
    144 H144      -44.0842  -24.6873    8.6526 H         1 UNK         0.0832 
    145 H145      -43.9388  -25.5294   10.1873 H         1 UNK         0.0832 
    146 H146      -44.5594  -26.3796    8.7809 H         1 UNK         0.0832 
    147 H147      -46.5365  -25.3648    7.6734 H         1 UNK         0.3156 
    148 H148      -49.5331  -24.9973    7.2894 H         1 UNK         0.0589 
    149 H149      -50.2203  -22.6632    7.6174 H         1 UNK         0.0808 
    150 H150      -48.8308  -22.0720    6.7255 H         1 UNK         0.0808 
    151 H151      -50.0915  -22.9871    5.8980 H         1 UNK         0.0808 
    152 H152      -48.2223  -25.6395    5.6733 H         1 UNK         0.3098 
    153 H153      -46.7306  -24.6419    3.2962 H         1 UNK         0.0720 
    154 H154      -44.2604  -25.0753    3.3586 H         1 UNK         0.0791 
    155 H155      -44.2355  -24.6812    5.0780 H         1 UNK         0.0791 
    156 H156      -44.6485  -23.4505    3.8914 H         1 UNK         0.0791 
    157 H157      -45.6506  -26.7500    5.0717 H         1 UNK         0.3028 
@<TRIPOS>BOND
     1    1    2 1    
     2    1   82 1    
     3    1   83 1    
     4    1   84 1    
     5    2    3 2    
     6    2    4 am   BACKBONE|DICT|INTERRES
     7    4    5 1    
     8    4   85 1    
     9    5    6 1    
    10    5   80 1    
    11    5   86 1    
    12    6    7 1    
    13    6   87 1    
    14    6   88 1    
    15    7    8 1    
    16    8    9 1    
    17    8   89 1    
    18    8   90 1    
    19    9   10 ar   
    20    9   14 ar   
    21   10   11 ar   
    22   10   91 1    
    23   11   12 ar   
    24   11   58 1    
    25   12   13 ar   
    26   12   92 1    
    27   13   14 ar   
    28   13   15 1    
    29   14   93 1    
    30   15   16 1    
    31   15   94 1    
    32   15   95 1    
    33   16   17 1    
    34   17   18 1    
    35   17   96 1    
    36   17   97 1    
    37   18   19 1    
    38   18   22 1    
    39   18   98 1    
    40   19   20 am   BACKBONE|DICT|INTERRES
    41   19   21 2    
    42   20   99 1    
    43   20  100 1    
    44   22   23 am   BACKBONE|DICT|INTERRES
    45   22  101 1    
    46   23   24 2    
    47   23   25 1    
    48   25   26 1    
    49   25   27 1    
    50   25  102 1    
    51   26  103 1    
    52   26  104 1    
    53   26  105 1    
    54   27   28 am   BACKBONE|DICT|INTERRES
    55   27  106 1    
    56   28   29 2    
    57   28   30 1    
    58   30   31 1    
    59   30   32 1    
    60   30  107 1    
    61   31  108 1    
    62   31  109 1    
    63   31  110 1    
    64   32   33 am   BACKBONE|DICT|INTERRES
    65   32  111 1    
    66   33   34 2    
    67   33   35 1    
    68   35   36 1    
    69   35   37 1    
    70   35  112 1    
    71   36  113 1    
    72   36  114 1    
    73   36  115 1    
    74   37   38 am   BACKBONE|DICT|INTERRES
    75   37  116 1    
    76   38   39 2    
    77   38   40 1    
    78   40   41 1    
    79   40   42 1    
    80   40  117 1    
    81   41  118 1    
    82   41  119 1    
    83   41  120 1    
    84   42   43 am   BACKBONE|DICT|INTERRES
    85   42  121 1    
    86   43   44 2    
    87   43   45 1    
    88   45   46 1    
    89   45   47 1    
    90   45  122 1    
    91   46  123 1    
    92   46  124 1    
    93   46  125 1    
    94   47   48 am   BACKBONE|DICT|INTERRES
    95   47  126 1    
    96   48   49 2    
    97   48   50 1    
    98   50   51 1    
    99   50   52 1    
   100   50  127 1    
   101   51  128 1    
   102   51  129 1    
   103   51  130 1    
   104   52   53 am   BACKBONE|DICT|INTERRES
   105   52  131 1    
   106   53   54 2    
   107   53   55 1    
   108   55   56 1    
   109   55   59 1    
   110   55  132 1    
   111   56   57 1    
   112   56  133 1    
   113   56  134 1    
   114   57   58 1    
   115   58  135 1    
   116   58  136 1    
   117   59   60 am   BACKBONE|DICT|INTERRES
   118   59  137 1    
   119   60   61 2    
   120   60   62 1    
   121   62   63 1    
   122   62   64 1    
   123   62  138 1    
   124   63  139 1    
   125   63  140 1    
   126   63  141 1    
   127   64   65 am   BACKBONE|DICT|INTERRES
   128   64  142 1    
   129   65   66 2    
   130   65   67 1    
   131   67   68 1    
   132   67   69 1    
   133   67  143 1    
   134   68  144 1    
   135   68  145 1    
   136   68  146 1    
   137   69   70 am   BACKBONE|DICT|INTERRES
   138   69  147 1    
   139   70   71 2    
   140   70   72 1    
   141   72   73 1    
   142   72   74 1    
   143   72  148 1    
   144   73  149 1    
   145   73  150 1    
   146   73  151 1    
   147   74   75 am   BACKBONE|DICT|INTERRES
   148   74  152 1    
   149   75   76 2    
   150   75   77 1    
   151   77   78 1    
   152   77   79 1    
   153   77  153 1    
   154   78  154 1    
   155   78  155 1    
   156   78  156 1    
   157   79   80 am   BACKBONE|DICT|INTERRES
   158   79  157 1    
   159   80   81 2    
@<TRIPOS>SUBSTRUCTURE
     1 UNK         1 GROUP             0       ****    0 ROOT    
