@<TRIPOS>MOLECULE
3R207
157   159    1
SMALL
USER_CHARGES


@<TRIPOS>ATOM
      1 CA        -52.1860  -26.3861    9.2711 C.3       0 UNK        -0.1975 
      2 C         -53.3563  -26.8356    8.4019 C.2       0 UNK         0.4852 
      3 O         -54.5049  -26.6611    8.8025 O.2       0 UNK        -0.5216 
      4 N         -53.1308  -27.4244    7.2201 N.am      1 UNK        -0.4461 
      5 CA        -51.8421  -27.6344    6.5461 C.3       1 UNK         0.0864 
      6 C6        -51.9506  -28.7089    5.4246 C.3       14 UNK        -0.0898 
      7 S7        -52.8881  -30.2111    5.8774 S.3       14 UNK        -0.2598 
      8 C8        -51.5705  -31.3919    6.3032 C.3       14 UNK         0.0286 
      9 C9        -50.9112  -31.0481    7.6297 C.ar      14 UNK        -0.0844 
     10 C10       -49.5651  -30.6747    7.6756 C.ar      14 UNK        -0.0881 
     11 C11       -48.9625  -30.3537    8.8950 C.ar      14 UNK        -0.0643 
     12 C12       -49.7104  -30.4198   10.0749 C.ar      14 UNK        -0.0930 
     13 C13       -51.0584  -30.7840   10.0384 C.ar      14 UNK        -0.0827 
     14 C14       -51.6511  -31.1054    8.8150 C.ar      14 UNK        -0.1249 
     15 C15       -51.8777  -30.8098   11.3174 C.3       14 UNK         0.0141 
     16 S16       -52.4798  -29.1451   11.7259 S.3       14 UNK        -0.2313 
     17 C17       -53.5186  -29.4951   13.1795 C.3       14 UNK        -0.0915 
     18 CA        -55.0314  -29.3244   12.8788 C.3       13 UNK         0.0968 
     19 C         -55.9034  -29.8474   14.0591 C.2       13 UNK         0.5732 
     20 N         -56.7370  -29.0368   14.7025 N.am      13 UNK        -0.7310 
     21 O         -55.8281  -31.0269   14.3947 O.2       13 UNK        -0.5035 
     22 N         -55.3543  -27.9531   12.4538 N.am      13 UNK        -0.4233 
     23 C         -56.4401  -27.6189   11.7418 C.2       13 UNK         0.4989 
     24 O         -57.2242  -28.4476   11.2741 O.2       13 UNK        -0.4996 
     25 CA        -56.7135  -26.1112   11.5353 C.3       12 UNK         0.0216 
     26 CB        -58.2045  -25.8108   11.2681 C.3       12 UNK        -0.1964 
     27 N         -56.2068  -25.2618   12.6224 N.am      12 UNK        -0.4276 
     28 C         -56.5178  -25.3497   13.9232 C.2       12 UNK         0.5020 
     29 O         -57.3184  -26.1602   14.3957 O.2       12 UNK        -0.5489 
     30 CA        -55.7438  -24.4184   14.8702 C.3       11 UNK         0.0294 
     31 CB        -56.7041  -23.5287   15.6770 C.3       11 UNK        -0.2019 
     32 N         -54.9022  -25.1892   15.7887 N.am      11 UNK        -0.4493 
     33 C         -53.9148  -26.0121   15.4117 C.2       11 UNK         0.4932 
     34 O         -53.5750  -26.1902   14.2380 O.2       11 UNK        -0.5029 
     35 CA        -53.2153  -26.7896   16.5316 C.3       10 UNK         0.0280 
     36 CB        -54.0481  -28.0273   16.9295 C.3       10 UNK        -0.1976 
     37 N         -51.8838  -27.1563   16.0562 N.am      10 UNK        -0.4242 
     38 C         -50.9322  -27.8191   16.7234 C.2       10 UNK         0.5072 
     39 O         -51.0642  -28.2727   17.8610 O.2       10 UNK        -0.5224 
     40 CA        -49.5813  -27.9695   16.0041 C.3       9 UNK         0.0343 
     41 CB        -49.6574  -29.0526   14.9145 C.3       9 UNK        -0.2003 
     42 N         -49.1170  -26.7003   15.4317 N.am      9 UNK        -0.4272 
     43 C         -48.7324  -25.6459   16.1722 C.2       9 UNK         0.4988 
     44 O         -48.6848  -25.6674   17.4032 O.2       9 UNK        -0.5108 
     45 CA        -48.3123  -24.3464   15.4566 C.3       8 UNK         0.0248 
     46 CB        -46.7859  -24.1707   15.5246 C.3       8 UNK        -0.2001 
     47 N         -48.7455  -24.2469   14.0624 N.am      8 UNK        -0.4140 
     48 C         -50.0168  -24.1433   13.6522 C.2       8 UNK         0.5028 
     49 O         -50.9750  -24.0473   14.4188 O.2       8 UNK        -0.5428 
     50 CA        -50.2645  -24.1918   12.1319 C.3       7 UNK         0.0264 
     51 CB        -50.2707  -22.7757   11.5363 C.3       7 UNK        -0.1988 
     52 N         -49.3011  -25.0213   11.3967 N.am      7 UNK        -0.4454 
     53 C         -49.1063  -26.3325   11.6082 C.2       7 UNK         0.5027 
     54 O         -49.7141  -26.9820   12.4563 O.2       7 UNK        -0.5083 
     55 CA        -48.0157  -27.0207   10.7695 C.3       6 UNK         0.0844 
     56 C56       -48.4991  -27.2589    9.3193 C.3       14 UNK        -0.0967 
     57 S57       -47.3131  -28.1988    8.3011 S.3       14 UNK        -0.2604 
     58 C58       -47.5128  -29.8966    8.9347 C.3       14 UNK         0.0134 
     59 N         -46.7683  -26.2614   10.8426 N.am      6 UNK        -0.4116 
     60 C         -45.9670  -26.2193   11.9163 C.2       5 UNK         0.5034 
     61 O         -46.1419  -26.8896   12.9335 O.2       5 UNK        -0.5045 
     62 CA        -44.7786  -25.2432   11.8566 C.3       5 UNK         0.0224 
     63 CB        -43.5335  -25.9478   11.2947 C.3       5 UNK        -0.1978 
     64 N         -45.0573  -24.0430   11.0618 N.am      5 UNK        -0.4737 
     65 C         -45.9700  -23.1129   11.3789 C.2       4 UNK         0.5027 
     66 O         -46.6458  -23.1407   12.4048 O.2       4 UNK        -0.5211 
     67 CA        -46.2158  -22.0063   10.3397 C.3       4 UNK         0.0297 
     68 CB        -45.2131  -20.8568   10.5245 C.3       4 UNK        -0.1993 
     69 N         -46.1522  -22.5072    8.9623 N.am      4 UNK        -0.4486 
     70 C         -46.9880  -23.4224    8.4558 C.2       3 UNK         0.4961 
     71 O         -47.9385  -23.9077    9.0770 O.2       3 UNK        -0.5105 
     72 CA        -46.6642  -23.9333    7.0509 C.3       3 UNK         0.0299 
     73 CB        -45.5316  -24.9781    7.1071 C.3       3 UNK        -0.1972 
     74 N         -47.8801  -24.5020    6.4730 N.am      3 UNK        -0.4305 
     75 C         -48.0699  -24.7575    5.1745 C.2       2 UNK         0.5006 
     76 O         -47.1843  -24.6526    4.3236 O.2       2 UNK        -0.5106 
     77 CA        -49.4891  -25.1675    4.7530 C.3       2 UNK         0.0296 
     78 CB        -49.5819  -25.5899    3.2712 C.3       2 UNK        -0.2002 
     79 N         -50.0403  -26.2325    5.5994 N.am      2 UNK        -0.4032 
     80 C         -51.3392  -26.3106    5.9234 C.2       1 UNK         0.5000 
     81 O         -52.1480  -25.4083    5.6856 O.2       1 UNK        -0.5238 
     82 H82       -51.5295  -25.6956    8.7440 H         1 UNK         0.0889 
     83 H83       -51.6138  -27.2510    9.5988 H         1 UNK         0.0889 
     84 H84       -52.5499  -25.8800   10.1651 H         1 UNK         0.0889 
     85 H85       -53.9312  -27.7135    6.6775 H         1 UNK         0.3028 
     86 H86       -51.1153  -27.9780    7.2846 H         1 UNK         0.0864 
     87 H87       -50.9562  -29.0002    5.0815 H         1 UNK         0.0720 
     88 H88       -52.4547  -28.2951    4.5482 H         1 UNK         0.0720 
     89 H89       -50.8400  -31.4341    5.4938 H         1 UNK         0.0814 
     90 H90       -52.0042  -32.3903    6.3745 H         1 UNK         0.0814 
     91 H91       -48.9864  -30.6174    6.7637 H         1 UNK         0.1469 
     92 H92       -49.2549  -30.1582   11.0204 H         1 UNK         0.1381 
     93 H93       -52.6960  -31.3828    8.7797 H         1 UNK         0.1206 
     94 H94       -52.7260  -31.4879   11.2114 H         1 UNK         0.0813 
     95 H95       -51.2728  -31.1908   12.1417 H         1 UNK         0.0813 
     96 H96       -53.3024  -30.5046   13.5335 H         1 UNK         0.0638 
     97 H97       -53.2067  -28.8248   13.9793 H         1 UNK         0.0638 
     98 H98       -55.2620  -29.9857   12.0415 H         1 UNK         0.0568 
     99 H99       -56.8400  -28.0602   14.4444 H         1 UNK         0.3450 
    100 H100      -57.2925  -29.4104   15.4545 H         1 UNK         0.3450 
    101 H101      -54.7587  -27.2248   12.8312 H         1 UNK         0.2987 
    102 H102      -56.1576  -25.8233   10.6432 H         1 UNK         0.0766 
    103 H103      -58.5549  -26.3279   10.3739 H         1 UNK         0.0798 
    104 H104      -58.8359  -26.1310   12.0977 H         1 UNK         0.0798 
    105 H105      -58.3731  -24.7457   11.1097 H         1 UNK         0.0798 
    106 H106      -55.4983  -24.5932   12.3515 H         1 UNK         0.3198 
    107 H107      -55.0895  -23.7698   14.2834 H         1 UNK         0.0843 
    108 H108      -56.1606  -22.8303   16.3136 H         1 UNK         0.0831 
    109 H109      -57.3656  -24.1193   16.3124 H         1 UNK         0.0831 
    110 H110      -57.3355  -22.9365   15.0131 H         1 UNK         0.0831 
    111 H111      -55.1382  -25.1329   16.7689 H         1 UNK         0.3133 
    112 H112      -53.1017  -26.1303   17.3940 H         1 UNK         0.0566 
    113 H113      -54.0352  -28.7919   16.1546 H         1 UNK         0.0814 
    114 H114      -53.6778  -28.4821   17.8476 H         1 UNK         0.0814 
    115 H115      -55.0915  -27.7648   17.1089 H         1 UNK         0.0814 
    116 H116      -51.6835  -26.8141   15.1225 H         1 UNK         0.3091 
    117 H117      -48.8425  -28.2907   16.7415 H         1 UNK         0.0702 
    118 H118      -48.7073  -29.1577   14.3903 H         1 UNK         0.0785 
    119 H119      -50.4256  -28.8319   14.1726 H         1 UNK         0.0785 
    120 H120      -49.8996  -30.0231   15.3492 H         1 UNK         0.0785 
    121 H121      -49.1500  -26.6169   14.4209 H         1 UNK         0.2998 
    122 H122      -48.7721  -23.5199   16.0021 H         1 UNK         0.0697 
    123 H123      -46.2669  -24.9474   14.9622 H         1 UNK         0.0825 
    124 H124      -46.4294  -24.2197   16.5544 H         1 UNK         0.0825 
    125 H125      -46.4791  -23.2041   15.1249 H         1 UNK         0.0825 
    126 H126      -48.0113  -24.2040   13.3618 H         1 UNK         0.3029 
    127 H127      -51.2529  -24.6321   11.9837 H         1 UNK         0.0897 
    128 H128      -49.3033  -22.2870   11.6551 H         1 UNK         0.0792 
    129 H129      -51.0161  -22.1492   12.0280 H         1 UNK         0.0792 
    130 H130      -50.5098  -22.7923   10.4727 H         1 UNK         0.0792 
    131 H131      -48.7626  -24.5574   10.6685 H         1 UNK         0.3086 
    132 H132      -47.8377  -27.9977   11.2235 H         1 UNK         0.0583 
    133 H133      -49.4515  -27.7854    9.3167 H         1 UNK         0.1020 
    134 H134      -48.6944  -26.3149    8.8128 H         1 UNK         0.1020 
    135 H135      -46.9020  -30.5721    8.3342 H         1 UNK         0.0694 
    136 H136      -47.1166  -29.9507    9.9497 H         1 UNK         0.0694 
    137 H137      -46.5643  -25.6563   10.0621 H         1 UNK         0.2989 
    138 H138      -44.5652  -24.9264   12.8801 H         1 UNK         0.1055 
    139 H139      -43.2889  -26.8339   11.8825 H         1 UNK         0.0806 
    140 H140      -42.6613  -25.2943   11.3209 H         1 UNK         0.0806 
    141 H141      -43.6812  -26.2719   10.2636 H         1 UNK         0.0806 
    142 H142      -44.5404  -23.9321   10.2017 H         1 UNK         0.3061 
    143 H143      -47.2207  -21.6128   10.5061 H         1 UNK         0.0734 
    144 H144      -44.1862  -21.1798   10.3488 H         1 UNK         0.0832 
    145 H145      -45.4269  -20.0303    9.8466 H         1 UNK         0.0832 
    146 H146      -45.2601  -20.4603   11.5398 H         1 UNK         0.0832 
    147 H147      -45.3996  -22.1596    8.3844 H         1 UNK         0.3156 
    148 H148      -46.3505  -23.0851    6.4387 H         1 UNK         0.0589 
    149 H149      -45.7897  -25.8199    7.7476 H         1 UNK         0.0808 
    150 H150      -45.2960  -25.3736    6.1194 H         1 UNK         0.0808 
    151 H151      -44.6127  -24.5419    7.5001 H         1 UNK         0.0808 
    152 H152      -48.6526  -24.5728    7.1237 H         1 UNK         0.3098 
    153 H153      -50.0845  -24.2595    4.8716 H         1 UNK         0.0720 
    154 H154      -50.6123  -25.7941    2.9796 H         1 UNK         0.0791 
    155 H155      -48.9934  -26.4862    3.0721 H         1 UNK         0.0791 
    156 H156      -49.2144  -24.8022    2.6121 H         1 UNK         0.0791 
    157 H157      -49.4099  -26.9879    5.8348 H         1 UNK         0.3028 
@<TRIPOS>BOND
     1    1    2 1    
     2    1   82 1    
     3    1   83 1    
     4    1   84 1    
     5    2    3 2    
     6    2    4 am   BACKBONE|DICT|INTERRES
     7    4    5 1    
     8    4   85 1    
     9    5    6 1    
    10    5   80 1    
    11    5   86 1    
    12    6    7 1    
    13    6   87 1    
    14    6   88 1    
    15    7    8 1    
    16    8    9 1    
    17    8   89 1    
    18    8   90 1    
    19    9   10 ar   
    20    9   14 ar   
    21   10   11 ar   
    22   10   91 1    
    23   11   12 ar   
    24   11   58 1    
    25   12   13 ar   
    26   12   92 1    
    27   13   14 ar   
    28   13   15 1    
    29   14   93 1    
    30   15   16 1    
    31   15   94 1    
    32   15   95 1    
    33   16   17 1    
    34   17   18 1    
    35   17   96 1    
    36   17   97 1    
    37   18   19 1    
    38   18   22 1    
    39   18   98 1    
    40   19   20 am   BACKBONE|DICT|INTERRES
    41   19   21 2    
    42   20   99 1    
    43   20  100 1    
    44   22   23 am   BACKBONE|DICT|INTERRES
    45   22  101 1    
    46   23   24 2    
    47   23   25 1    
    48   25   26 1    
    49   25   27 1    
    50   25  102 1    
    51   26  103 1    
    52   26  104 1    
    53   26  105 1    
    54   27   28 am   BACKBONE|DICT|INTERRES
    55   27  106 1    
    56   28   29 2    
    57   28   30 1    
    58   30   31 1    
    59   30   32 1    
    60   30  107 1    
    61   31  108 1    
    62   31  109 1    
    63   31  110 1    
    64   32   33 am   BACKBONE|DICT|INTERRES
    65   32  111 1    
    66   33   34 2    
    67   33   35 1    
    68   35   36 1    
    69   35   37 1    
    70   35  112 1    
    71   36  113 1    
    72   36  114 1    
    73   36  115 1    
    74   37   38 am   BACKBONE|DICT|INTERRES
    75   37  116 1    
    76   38   39 2    
    77   38   40 1    
    78   40   41 1    
    79   40   42 1    
    80   40  117 1    
    81   41  118 1    
    82   41  119 1    
    83   41  120 1    
    84   42   43 am   BACKBONE|DICT|INTERRES
    85   42  121 1    
    86   43   44 2    
    87   43   45 1    
    88   45   46 1    
    89   45   47 1    
    90   45  122 1    
    91   46  123 1    
    92   46  124 1    
    93   46  125 1    
    94   47   48 am   BACKBONE|DICT|INTERRES
    95   47  126 1    
    96   48   49 2    
    97   48   50 1    
    98   50   51 1    
    99   50   52 1    
   100   50  127 1    
   101   51  128 1    
   102   51  129 1    
   103   51  130 1    
   104   52   53 am   BACKBONE|DICT|INTERRES
   105   52  131 1    
   106   53   54 2    
   107   53   55 1    
   108   55   56 1    
   109   55   59 1    
   110   55  132 1    
   111   56   57 1    
   112   56  133 1    
   113   56  134 1    
   114   57   58 1    
   115   58  135 1    
   116   58  136 1    
   117   59   60 am   BACKBONE|DICT|INTERRES
   118   59  137 1    
   119   60   61 2    
   120   60   62 1    
   121   62   63 1    
   122   62   64 1    
   123   62  138 1    
   124   63  139 1    
   125   63  140 1    
   126   63  141 1    
   127   64   65 am   BACKBONE|DICT|INTERRES
   128   64  142 1    
   129   65   66 2    
   130   65   67 1    
   131   67   68 1    
   132   67   69 1    
   133   67  143 1    
   134   68  144 1    
   135   68  145 1    
   136   68  146 1    
   137   69   70 am   BACKBONE|DICT|INTERRES
   138   69  147 1    
   139   70   71 2    
   140   70   72 1    
   141   72   73 1    
   142   72   74 1    
   143   72  148 1    
   144   73  149 1    
   145   73  150 1    
   146   73  151 1    
   147   74   75 am   BACKBONE|DICT|INTERRES
   148   74  152 1    
   149   75   76 2    
   150   75   77 1    
   151   77   78 1    
   152   77   79 1    
   153   77  153 1    
   154   78  154 1    
   155   78  155 1    
   156   78  156 1    
   157   79   80 am   BACKBONE|DICT|INTERRES
   158   79  157 1    
   159   80   81 2    
@<TRIPOS>SUBSTRUCTURE
     1 UNK         1 GROUP             0       ****    0 ROOT    
