@<TRIPOS>MOLECULE
3R207
157   159    1
SMALL
USER_CHARGES


@<TRIPOS>ATOM
      1 CA        -53.4210  -22.7649    4.5005 C.3       0 UNK        -0.1975 
      2 C         -52.3401  -23.4903    5.2871 C.2       0 UNK         0.4852 
      3 O         -51.9346  -24.5861    4.8958 O.2       0 UNK        -0.5216 
      4 N         -51.8717  -22.8856    6.3890 N.am      1 UNK        -0.4461 
      5 CA        -50.8450  -23.3683    7.3291 C.3       1 UNK         0.0864 
      6 C6        -51.1868  -24.7174    8.0185 C.3       14 UNK        -0.0898 
      7 S7        -52.7603  -24.6710    8.9499 S.3       14 UNK        -0.2598 
      8 C8        -53.8599  -25.7073    7.9192 C.3       14 UNK         0.0286 
      9 C9        -53.8645  -27.1728    8.3426 C.ar      14 UNK        -0.0844 
     10 C10       -52.6754  -27.9018    8.3856 C.ar      14 UNK        -0.0881 
     11 C11       -52.6569  -29.2224    8.8345 C.ar      14 UNK        -0.0643 
     12 C12       -53.8615  -29.8548    9.1548 C.ar      14 UNK        -0.0930 
     13 C13       -55.0725  -29.1584    9.0609 C.ar      14 UNK        -0.0827 
     14 C14       -55.0627  -27.8123    8.6759 C.ar      14 UNK        -0.1249 
     15 C15       -56.3988  -29.8591    9.3287 C.3       14 UNK         0.0141 
     16 S16       -56.7285  -30.0891   11.1039 S.3       14 UNK        -0.2313 
     17 C17       -56.1376  -31.7972   11.3627 C.3       14 UNK        -0.0915 
     18 CA        -55.5343  -32.0321   12.7712 C.3       13 UNK         0.0968 
     19 C         -55.1170  -33.5227   12.9421 C.2       13 UNK         0.5732 
     20 N         -53.8343  -33.8487   13.0507 N.am      13 UNK        -0.7310 
     21 O         -55.9773  -34.3993   12.9792 O.2       13 UNK        -0.5035 
     22 N         -54.4874  -31.0474   13.0872 N.am      13 UNK        -0.4233 
     23 C         -53.9986  -30.8147   14.3118 C.2       13 UNK         0.4989 
     24 O         -54.3465  -31.4264   15.3225 O.2       13 UNK        -0.4996 
     25 CA        -52.9386  -29.7069   14.4326 C.3       12 UNK         0.0216 
     26 CB        -51.5354  -30.3028   14.2233 C.3       12 UNK        -0.1964 
     27 N         -53.1458  -28.5831   13.5100 N.am      12 UNK        -0.4276 
     28 C         -54.1971  -27.7487   13.5453 C.2       12 UNK         0.5020 
     29 O         -55.1271  -27.8508   14.3472 O.2       12 UNK        -0.5489 
     30 CA        -54.1711  -26.5886   12.5374 C.3       11 UNK         0.0294 
     31 CB        -55.5550  -26.2826   11.9282 C.3       11 UNK        -0.2019 
     32 N         -53.5491  -25.4068   13.1448 N.am      11 UNK        -0.4493 
     33 C         -54.0317  -24.5736   14.0800 C.2       11 UNK         0.4932 
     34 O         -55.1803  -24.5964   14.5248 O.2       11 UNK        -0.5029 
     35 CA        -53.0210  -23.5350   14.6066 C.3       10 UNK         0.0280 
     36 CB        -53.6328  -22.5180   15.5942 C.3       10 UNK        -0.1976 
     37 N         -51.8346  -24.1882   15.1708 N.am      10 UNK        -0.4242 
     38 C         -51.7705  -24.9995   16.2377 C.2       10 UNK         0.5072 
     39 O         -52.7115  -25.2130   17.0029 O.2       10 UNK        -0.5224 
     40 CA        -50.4383  -25.7327   16.4906 C.3       9 UNK         0.0343 
     41 CB        -50.5767  -27.2098   16.0942 C.3       9 UNK        -0.2003 
     42 N         -49.2907  -25.1599   15.7799 N.am      9 UNK        -0.4272 
     43 C         -48.6797  -24.0159   16.1195 C.2       9 UNK         0.4988 
     44 O         -48.9990  -23.3310   17.0918 O.2       9 UNK        -0.5108 
     45 CA        -47.5281  -23.5465   15.2128 C.3       8 UNK         0.0248 
     46 CB        -46.2211  -24.2689   15.5771 C.3       8 UNK        -0.2001 
     47 N         -47.8096  -23.7295   13.7865 N.am      8 UNK        -0.4140 
     48 C         -48.7819  -23.0969   13.1121 C.2       8 UNK         0.5028 
     49 O         -49.5248  -22.2495   13.6074 O.2       8 UNK        -0.5428 
     50 CA        -48.9977  -23.5214   11.6497 C.3       7 UNK         0.0264 
     51 CB        -47.9421  -22.8828   10.7355 C.3       7 UNK        -0.1988 
     52 N         -48.9881  -24.9775   11.4854 N.am      7 UNK        -0.4454 
     53 C         -49.8719  -25.8031   12.0631 C.2       7 UNK         0.5027 
     54 O         -50.8216  -25.4131   12.7377 O.2       7 UNK        -0.5083 
     55 CA        -49.6677  -27.3185   11.8972 C.3       6 UNK         0.0844 
     56 C56       -50.3962  -27.8274   10.6384 C.3       14 UNK        -0.0967 
     57 S57       -50.5520  -29.6454   10.6036 S.3       14 UNK        -0.2604 
     58 C58       -51.3241  -29.9444    8.9763 C.3       14 UNK         0.0134 
     59 N         -48.2525  -27.6815   11.9305 N.am      6 UNK        -0.4116 
     60 C         -47.4865  -27.6053   13.0271 C.2       5 UNK         0.5034 
     61 O         -47.9011  -27.2615   14.1344 O.2       5 UNK        -0.5045 
     62 CA        -45.9930  -27.9099   12.8363 C.3       5 UNK         0.0224 
     63 CB        -45.7489  -29.4256   12.7603 C.3       5 UNK        -0.1978 
     64 N         -45.4416  -27.2565   11.6451 N.am      5 UNK        -0.4737 
     65 C         -45.3554  -25.9276   11.4910 C.2       4 UNK         0.5027 
     66 O         -45.6948  -25.1167   12.3522 O.2       4 UNK        -0.5211 
     67 CA        -44.8396  -25.4148   10.1366 C.3       4 UNK         0.0297 
     68 CB        -43.3048  -25.3383   10.1426 C.3       4 UNK        -0.1993 
     69 N         -45.2891  -26.1980    8.9794 N.am      4 UNK        -0.4486 
     70 C         -46.5672  -26.3951    8.6301 C.2       3 UNK         0.4961 
     71 O         -47.5346  -26.0302    9.3009 O.2       3 UNK        -0.5105 
     72 CA        -46.8158  -27.1289    7.3064 C.3       3 UNK         0.0299 
     73 CB        -47.6020  -28.4302    7.5367 C.3       3 UNK        -0.1972 
     74 N         -47.5660  -26.2584    6.4028 N.am      3 UNK        -0.4305 
     75 C         -47.0281  -25.2573    5.6913 C.2       2 UNK         0.5006 
     76 O         -45.8195  -25.0246    5.6403 O.2       2 UNK        -0.5106 
     77 CA        -48.0008  -24.3609    4.9050 C.3       2 UNK         0.0296 
     78 CB        -48.2761  -24.9499    3.5120 C.3       2 UNK        -0.2002 
     79 N         -49.2712  -24.1499    5.6027 N.am      2 UNK        -0.4032 
     80 C         -49.4322  -23.4071    6.7058 C.2       1 UNK         0.5000 
     81 O         -48.5246  -22.7548    7.2219 O.2       1 UNK        -0.5238 
     82 H82       -53.0789  -22.5719    3.4841 H         1 UNK         0.0889 
     83 H83       -53.6884  -21.8117    4.9560 H         1 UNK         0.0889 
     84 H84       -54.3196  -23.3790    4.4471 H         1 UNK         0.0889 
     85 H85       -52.2485  -21.9782    6.6260 H         1 UNK         0.3028 
     86 H86       -50.8022  -22.6136    8.1166 H         1 UNK         0.0864 
     87 H87       -50.4006  -24.9883    8.7266 H         1 UNK         0.0720 
     88 H88       -51.2143  -25.5161    7.2784 H         1 UNK         0.0720 
     89 H89       -53.5784  -25.6376    6.8689 H         1 UNK         0.0814 
     90 H90       -54.8671  -25.2940    7.9887 H         1 UNK         0.0814 
     91 H91       -51.7439  -27.4320    8.1161 H         1 UNK         0.1469 
     92 H92       -53.8512  -30.8887    9.4668 H         1 UNK         0.1381 
     93 H93       -55.9944  -27.2658    8.6198 H         1 UNK         0.1206 
     94 H94       -56.4244  -30.8188    8.8106 H         1 UNK         0.0813 
     95 H95       -57.2190  -29.2767    8.9062 H         1 UNK         0.0813 
     96 H96       -55.4047  -32.0527   10.5974 H         1 UNK         0.0638 
     97 H97       -56.9874  -32.4624   11.1982 H         1 UNK         0.0638 
     98 H98       -56.3365  -31.8695   13.4935 H         1 UNK         0.0568 
     99 H99       -53.1216  -33.1385   13.0239 H         1 UNK         0.3450 
    100 H100      -53.5801  -34.8171   13.1643 H         1 UNK         0.3450 
    101 H101      -54.1593  -30.4864   12.3164 H         1 UNK         0.2987 
    102 H102      -52.9943  -29.3105   15.4486 H         1 UNK         0.0766 
    103 H103      -50.7502  -29.5592   14.3497 H         1 UNK         0.0798 
    104 H104      -51.4247  -30.7403   13.2310 H         1 UNK         0.0798 
    105 H105      -51.3405  -31.0954   14.9472 H         1 UNK         0.0798 
    106 H106      -52.4317  -28.4383   12.8125 H         1 UNK         0.3198 
    107 H107      -53.5259  -26.8782   11.7065 H         1 UNK         0.0843 
    108 H108      -56.2939  -26.0172   12.6839 H         1 UNK         0.0831 
    109 H109      -55.9411  -27.1549   11.4013 H         1 UNK         0.0831 
    110 H110      -55.4978  -25.4673   11.2071 H         1 UNK         0.0831 
    111 H111      -52.5586  -25.2984   12.9218 H         1 UNK         0.3133 
    112 H112      -52.6711  -22.9740   13.7384 H         1 UNK         0.0566 
    113 H113      -52.8895  -21.7934   15.9264 H         1 UNK         0.0814 
    114 H114      -54.4424  -21.9604   15.1221 H         1 UNK         0.0814 
    115 H115      -54.0484  -23.0022   16.4782 H         1 UNK         0.0814 
    116 H116      -51.0063  -24.1343   14.5907 H         1 UNK         0.3091 
    117 H117      -50.2354  -25.6844   17.5625 H         1 UNK         0.0702 
    118 H118      -49.6626  -27.7676   16.2985 H         1 UNK         0.0785 
    119 H119      -50.8044  -27.3094   15.0335 H         1 UNK         0.0785 
    120 H120      -51.3828  -27.6919   16.6488 H         1 UNK         0.0785 
    121 H121      -48.9166  -25.7025   15.0080 H         1 UNK         0.2998 
    122 H122      -47.3853  -22.4779   15.3865 H         1 UNK         0.0697 
    123 H123      -46.2868  -25.3417   15.3916 H         1 UNK         0.0825 
    124 H124      -45.9791  -24.1326   16.6320 H         1 UNK         0.0825 
    125 H125      -45.3814  -23.8829   14.9987 H         1 UNK         0.0825 
    126 H126      -47.2047  -24.3727   13.2802 H         1 UNK         0.3029 
    127 H127      -49.9815  -23.1652   11.3358 H         1 UNK         0.0897 
    128 H128      -48.0332  -23.2440    9.7125 H         1 UNK         0.0792 
    129 H129      -46.9283  -23.0955   11.0727 H         1 UNK         0.0792 
    130 H130      -48.0548  -21.7984   10.7114 H         1 UNK         0.0792 
    131 H131      -48.2819  -25.3694   10.8652 H         1 UNK         0.3086 
    132 H132      -50.1401  -27.7883   12.7614 H         1 UNK         0.0583 
    133 H133      -51.4034  -27.4103   10.6156 H         1 UNK         0.1020 
    134 H134      -49.8954  -27.4800    9.7341 H         1 UNK         0.1020 
    135 H135      -50.6395  -29.6312    8.1870 H         1 UNK         0.0694 
    136 H136      -51.4656  -31.0183    8.8462 H         1 UNK         0.0694 
    137 H137      -47.8252  -27.9290   11.0508 H         1 UNK         0.2989 
    138 H138      -45.4654  -27.5197   13.7099 H         1 UNK         0.1055 
    139 H139      -46.1442  -29.9278   13.6447 H         1 UNK         0.0806 
    140 H140      -44.6840  -29.6533   12.7105 H         1 UNK         0.0806 
    141 H141      -46.2294  -29.8737   11.8897 H         1 UNK         0.0806 
    142 H142      -45.1353  -27.8493   10.8872 H         1 UNK         0.3061 
    143 H143      -45.2253  -24.4022   10.0057 H         1 UNK         0.0734 
    144 H144      -42.9261  -24.8694    9.2342 H         1 UNK         0.0832 
    145 H145      -42.9479  -24.7421   10.9839 H         1 UNK         0.0832 
    146 H146      -42.8496  -26.3258   10.2276 H         1 UNK         0.0832 
    147 H147      -44.5670  -26.5335    8.3575 H         1 UNK         0.3156 
    148 H148      -45.8594  -27.3866    6.8461 H         1 UNK         0.0589 
    149 H149      -48.5923  -28.2393    7.9483 H         1 UNK         0.0808 
    150 H150      -47.7302  -28.9836    6.6063 H         1 UNK         0.0808 
    151 H151      -47.0793  -29.0865    8.2336 H         1 UNK         0.0808 
    152 H152      -48.5698  -26.3552    6.4093 H         1 UNK         0.3098 
    153 H153      -47.5213  -23.3884    4.7743 H         1 UNK         0.0720 
    154 H154      -48.9020  -24.2840    2.9174 H         1 UNK         0.0791 
    155 H155      -48.7785  -25.9161    3.5727 H         1 UNK         0.0791 
    156 H156      -47.3466  -25.0984    2.9603 H         1 UNK         0.0791 
    157 H157      -50.1069  -24.5784    5.2087 H         1 UNK         0.3028 
@<TRIPOS>BOND
     1    1    2 1    
     2    1   82 1    
     3    1   83 1    
     4    1   84 1    
     5    2    3 2    
     6    2    4 am   BACKBONE|DICT|INTERRES
     7    4    5 1    
     8    4   85 1    
     9    5    6 1    
    10    5   80 1    
    11    5   86 1    
    12    6    7 1    
    13    6   87 1    
    14    6   88 1    
    15    7    8 1    
    16    8    9 1    
    17    8   89 1    
    18    8   90 1    
    19    9   10 ar   
    20    9   14 ar   
    21   10   11 ar   
    22   10   91 1    
    23   11   12 ar   
    24   11   58 1    
    25   12   13 ar   
    26   12   92 1    
    27   13   14 ar   
    28   13   15 1    
    29   14   93 1    
    30   15   16 1    
    31   15   94 1    
    32   15   95 1    
    33   16   17 1    
    34   17   18 1    
    35   17   96 1    
    36   17   97 1    
    37   18   19 1    
    38   18   22 1    
    39   18   98 1    
    40   19   20 am   BACKBONE|DICT|INTERRES
    41   19   21 2    
    42   20   99 1    
    43   20  100 1    
    44   22   23 am   BACKBONE|DICT|INTERRES
    45   22  101 1    
    46   23   24 2    
    47   23   25 1    
    48   25   26 1    
    49   25   27 1    
    50   25  102 1    
    51   26  103 1    
    52   26  104 1    
    53   26  105 1    
    54   27   28 am   BACKBONE|DICT|INTERRES
    55   27  106 1    
    56   28   29 2    
    57   28   30 1    
    58   30   31 1    
    59   30   32 1    
    60   30  107 1    
    61   31  108 1    
    62   31  109 1    
    63   31  110 1    
    64   32   33 am   BACKBONE|DICT|INTERRES
    65   32  111 1    
    66   33   34 2    
    67   33   35 1    
    68   35   36 1    
    69   35   37 1    
    70   35  112 1    
    71   36  113 1    
    72   36  114 1    
    73   36  115 1    
    74   37   38 am   BACKBONE|DICT|INTERRES
    75   37  116 1    
    76   38   39 2    
    77   38   40 1    
    78   40   41 1    
    79   40   42 1    
    80   40  117 1    
    81   41  118 1    
    82   41  119 1    
    83   41  120 1    
    84   42   43 am   BACKBONE|DICT|INTERRES
    85   42  121 1    
    86   43   44 2    
    87   43   45 1    
    88   45   46 1    
    89   45   47 1    
    90   45  122 1    
    91   46  123 1    
    92   46  124 1    
    93   46  125 1    
    94   47   48 am   BACKBONE|DICT|INTERRES
    95   47  126 1    
    96   48   49 2    
    97   48   50 1    
    98   50   51 1    
    99   50   52 1    
   100   50  127 1    
   101   51  128 1    
   102   51  129 1    
   103   51  130 1    
   104   52   53 am   BACKBONE|DICT|INTERRES
   105   52  131 1    
   106   53   54 2    
   107   53   55 1    
   108   55   56 1    
   109   55   59 1    
   110   55  132 1    
   111   56   57 1    
   112   56  133 1    
   113   56  134 1    
   114   57   58 1    
   115   58  135 1    
   116   58  136 1    
   117   59   60 am   BACKBONE|DICT|INTERRES
   118   59  137 1    
   119   60   61 2    
   120   60   62 1    
   121   62   63 1    
   122   62   64 1    
   123   62  138 1    
   124   63  139 1    
   125   63  140 1    
   126   63  141 1    
   127   64   65 am   BACKBONE|DICT|INTERRES
   128   64  142 1    
   129   65   66 2    
   130   65   67 1    
   131   67   68 1    
   132   67   69 1    
   133   67  143 1    
   134   68  144 1    
   135   68  145 1    
   136   68  146 1    
   137   69   70 am   BACKBONE|DICT|INTERRES
   138   69  147 1    
   139   70   71 2    
   140   70   72 1    
   141   72   73 1    
   142   72   74 1    
   143   72  148 1    
   144   73  149 1    
   145   73  150 1    
   146   73  151 1    
   147   74   75 am   BACKBONE|DICT|INTERRES
   148   74  152 1    
   149   75   76 2    
   150   75   77 1    
   151   77   78 1    
   152   77   79 1    
   153   77  153 1    
   154   78  154 1    
   155   78  155 1    
   156   78  156 1    
   157   79   80 am   BACKBONE|DICT|INTERRES
   158   79  157 1    
   159   80   81 2    
@<TRIPOS>SUBSTRUCTURE
     1 UNK         1 GROUP             0       ****    0 ROOT    
