@<TRIPOS>MOLECULE
3R207
157   159    1
SMALL
USER_CHARGES


@<TRIPOS>ATOM
      1 CA        -44.8830  -27.0676   10.3387 C.3       0 UNK        -0.1975 
      2 C         -45.8213  -27.0827    9.1425 C.2       0 UNK         0.4852 
      3 O         -45.8169  -26.1371    8.3538 O.2       0 UNK        -0.5216 
      4 N         -46.6133  -28.1543    8.9899 N.am      1 UNK        -0.4461 
      5 CA        -47.6102  -28.3509    7.9240 C.3       1 UNK         0.0864 
      6 C6        -48.8147  -27.3744    8.0340 C.3       14 UNK        -0.0898 
      7 S7        -49.6905  -27.5731    9.6241 S.3       14 UNK        -0.2598 
      8 C8        -51.3322  -28.1609    9.0943 C.3       14 UNK         0.0286 
      9 C9        -52.2783  -26.9875    8.9038 C.ar      14 UNK        -0.0844 
     10 C10       -52.2757  -26.2622    7.7100 C.ar      14 UNK        -0.0881 
     11 C11       -53.0578  -25.1108    7.5848 C.ar      14 UNK        -0.0643 
     12 C12       -53.9122  -24.7369    8.6277 C.ar      14 UNK        -0.0930 
     13 C13       -53.9328  -25.4632    9.8218 C.ar      14 UNK        -0.0827 
     14 C14       -53.1093  -26.5837    9.9521 C.ar      14 UNK        -0.1249 
     15 C15       -54.7873  -24.9918   10.9911 C.3       14 UNK         0.0141 
     16 S16       -56.2273  -26.0689   11.2702 S.3       14 UNK        -0.2313 
     17 C17       -55.5776  -27.2618   12.4909 C.3       14 UNK        -0.0915 
     18 CA        -56.7135  -28.0050   13.2484 C.3       13 UNK         0.0968 
     19 C         -57.1733  -29.2935   12.4970 C.2       13 UNK         0.5732 
     20 N         -57.0541  -30.4884   13.0655 N.am      13 UNK        -0.7310 
     21 O         -57.6645  -29.2089   11.3742 O.2       13 UNK        -0.5035 
     22 N         -56.3721  -28.2092   14.6654 N.am      13 UNK        -0.4233 
     23 C         -57.2774  -28.4524   15.6249 C.2       13 UNK         0.4989 
     24 O         -58.4950  -28.4054   15.4374 O.2       13 UNK        -0.4996 
     25 CA        -56.7368  -28.8227   17.0217 C.3       12 UNK         0.0216 
     26 CB        -57.7733  -29.5753   17.8828 C.3       12 UNK        -0.1964 
     27 N         -55.4710  -29.5654   16.9843 N.am      12 UNK        -0.4276 
     28 C         -55.2148  -30.7182   16.3431 C.2       12 UNK         0.5020 
     29 O         -56.0601  -31.3374   15.6957 O.2       12 UNK        -0.5489 
     30 CA        -53.7704  -31.2529   16.3766 C.3       11 UNK         0.0294 
     31 CB        -53.2356  -31.4405   14.9456 C.3       11 UNK        -0.2019 
     32 N         -52.8672  -30.3557   17.1002 N.am      11 UNK        -0.4493 
     33 C         -52.5293  -30.4785   18.3915 C.2       11 UNK         0.4932 
     34 O         -52.8728  -31.4221   19.1034 O.2       11 UNK        -0.5029 
     35 CA        -51.6853  -29.3435   19.0044 C.3       10 UNK         0.0280 
     36 CB        -50.1940  -29.7152   18.9856 C.3       10 UNK        -0.1976 
     37 N         -51.8693  -28.0484   18.3398 N.am      10 UNK        -0.4242 
     38 C         -53.0167  -27.3537   18.3082 C.2       10 UNK         0.5072 
     39 O         -54.0472  -27.7103   18.8781 O.2       10 UNK        -0.5224 
     40 CA        -53.0419  -26.0913   17.4302 C.3       9 UNK         0.0343 
     41 CB        -52.6050  -24.8583   18.2359 C.3       9 UNK        -0.2003 
     42 N         -52.2083  -26.2126   16.2312 N.am      9 UNK        -0.4272 
     43 C         -52.3970  -27.0919   15.2392 C.2       9 UNK         0.4988 
     44 O         -53.3369  -27.8912   15.2099 O.2       9 UNK        -0.5108 
     45 CA        -51.3452  -27.0773   14.1111 C.3       8 UNK         0.0248 
     46 CB        -51.5583  -28.2169   13.0995 C.3       8 UNK        -0.2001 
     47 N         -51.2895  -25.7832   13.4146 N.am      8 UNK        -0.4140 
     48 C         -50.7084  -24.6801   13.9122 C.2       8 UNK         0.5028 
     49 O         -50.1393  -24.6600   15.0062 O.2       8 UNK        -0.5428 
     50 CA        -50.7840  -23.3949   13.0722 C.3       7 UNK         0.0264 
     51 CB        -49.7992  -22.3064   13.5484 C.3       7 UNK        -0.1988 
     52 N         -50.5688  -23.6650   11.6499 N.am      7 UNK        -0.4454 
     53 C         -51.1157  -22.9495   10.6569 C.2       7 UNK         0.5027 
     54 O         -51.9080  -22.0230   10.8418 O.2       7 UNK        -0.5083 
     55 CA        -50.6882  -23.3343    9.2243 C.3       6 UNK         0.0844 
     56 C56       -51.3994  -22.5010    8.1171 C.3       14 UNK        -0.0967 
     57 S57       -51.2856  -23.3015    6.4752 S.3       14 UNK        -0.2604 
     58 C58       -52.8761  -24.2009    6.3798 C.3       14 UNK         0.0134 
     59 N         -49.2326  -23.3709    9.0579 N.am      6 UNK        -0.4116 
     60 C         -48.3621  -22.3743    9.2778 C.2       5 UNK         0.5034 
     61 O         -48.6579  -21.2730    9.7419 O.2       5 UNK        -0.5045 
     62 CA        -46.9026  -22.6569    8.8826 C.3       5 UNK         0.0224 
     63 CB        -46.1493  -23.3171   10.0483 C.3       5 UNK        -0.1978 
     64 N         -46.7974  -23.4993    7.6852 N.am      5 UNK        -0.4737 
     65 C         -47.1613  -23.1041    6.4546 C.2       4 UNK         0.5027 
     66 O         -47.5590  -21.9664    6.1978 O.2       4 UNK        -0.5211 
     67 CA        -47.0683  -24.1568    5.3335 C.3       4 UNK         0.0297 
     68 CB        -47.2005  -23.5560    3.9180 C.3       4 UNK        -0.1993 
     69 N         -45.8713  -24.9952    5.4435 N.am      4 UNK        -0.4486 
     70 C         -44.5871  -24.6052    5.3867 C.2       3 UNK         0.4961 
     71 O         -44.2298  -23.4512    5.1471 O.2       3 UNK        -0.5105 
     72 CA        -43.5059  -25.6702    5.6592 C.3       3 UNK         0.0299 
     73 CB        -42.7036  -25.3153    6.9237 C.3       3 UNK        -0.1972 
     74 N         -44.0630  -27.0154    5.8166 N.am      3 UNK        -0.4305 
     75 C         -44.3186  -27.8644    4.8112 C.2       2 UNK         0.5006 
     76 O         -44.0298  -27.6402    3.6354 O.2       2 UNK        -0.5106 
     77 CA        -45.0345  -29.1815    5.1700 C.3       2 UNK         0.0296 
     78 CB        -44.0141  -30.3215    5.3214 C.3       2 UNK        -0.2002 
     79 N         -45.8552  -29.1033    6.3847 N.am      2 UNK        -0.4032 
     80 C         -46.9497  -28.3395    6.5268 C.2       1 UNK         0.5000 
     81 O         -47.3887  -27.6134    5.6330 O.2       1 UNK        -0.5238 
     82 H82       -45.1273  -26.2336   10.9953 H         1 UNK         0.0889 
     83 H83       -43.8530  -26.9471   10.0044 H         1 UNK         0.0889 
     84 H84       -44.9471  -27.9876   10.9192 H         1 UNK         0.0889 
     85 H85       -46.5719  -28.8934    9.6779 H         1 UNK         0.3028 
     86 H86       -48.0002  -29.3624    8.0501 H         1 UNK         0.0864 
     87 H87       -48.4873  -26.3380    7.9431 H         1 UNK         0.0720 
     88 H88       -49.5131  -27.5406    7.2132 H         1 UNK         0.0720 
     89 H89       -51.7249  -28.8358    9.8564 H         1 UNK         0.0814 
     90 H90       -51.2580  -28.7514    8.1801 H         1 UNK         0.0814 
     91 H91       -51.6056  -26.5402    6.9088 H         1 UNK         0.1469 
     92 H92       -54.5128  -23.8425    8.5338 H         1 UNK         0.1381 
     93 H93       -53.0999  -27.1308   10.8796 H         1 UNK         0.1206 
     94 H94       -54.1786  -24.9246   11.8935 H         1 UNK         0.0813 
     95 H95       -55.1514  -23.9802   10.8055 H         1 UNK         0.0813 
     96 H96       -54.9607  -26.7019   13.1953 H         1 UNK         0.0638 
     97 H97       -54.9064  -27.9649   11.9965 H         1 UNK         0.0638 
     98 H98       -57.5878  -27.3512   13.2508 H         1 UNK         0.0568 
     99 H99       -57.3662  -31.2998   12.5573 H         1 UNK         0.3450 
    100 H100      -56.6820  -30.6014   14.0036 H         1 UNK         0.3450 
    101 H101      -55.3844  -28.2568   14.8913 H         1 UNK         0.2987 
    102 H102      -56.5194  -27.8761   17.5184 H         1 UNK         0.0766 
    103 H103      -58.6728  -28.9762   18.0298 H         1 UNK         0.0798 
    104 H104      -57.3750  -29.8046   18.8712 H         1 UNK         0.0798 
    105 H105      -58.0786  -30.5136   17.4180 H         1 UNK         0.0798 
    106 H106      -54.7139  -29.1304   17.4993 H         1 UNK         0.3198 
    107 H107      -53.7952  -32.2304   16.8630 H         1 UNK         0.0843 
    108 H108      -53.2831  -30.5141   14.3726 H         1 UNK         0.0831 
    109 H109      -53.8222  -32.1840   14.4042 H         1 UNK         0.0831 
    110 H110      -52.2015  -31.7853   14.9470 H         1 UNK         0.0831 
    111 H111      -52.5701  -29.5314   16.5944 H         1 UNK         0.3133 
    112 H112      -51.9964  -29.2295   20.0450 H         1 UNK         0.0566 
    113 H113      -49.5896  -28.9617   19.4910 H         1 UNK         0.0814 
    114 H114      -49.8162  -29.8240   17.9681 H         1 UNK         0.0814 
    115 H115      -50.0219  -30.6623   19.4992 H         1 UNK         0.0814 
    116 H116      -51.0731  -27.6724   17.8453 H         1 UNK         0.3091 
    117 H117      -54.0726  -25.9396   17.1023 H         1 UNK         0.0702 
    118 H118      -52.6983  -23.9464   17.6456 H         1 UNK         0.0785 
    119 H119      -51.5691  -24.9377   18.5682 H         1 UNK         0.0785 
    120 H120      -53.2252  -24.7327   19.1247 H         1 UNK         0.0785 
    121 H121      -51.4212  -25.5747   16.1402 H         1 UNK         0.2998 
    122 H122      -50.3739  -27.2500   14.5798 H         1 UNK         0.0697 
    123 H123      -52.5693  -28.2251   12.6965 H         1 UNK         0.0825 
    124 H124      -51.3994  -29.1845   13.5761 H         1 UNK         0.0825 
    125 H125      -50.8559  -28.1531   12.2701 H         1 UNK         0.0825 
    126 H126      -51.7595  -25.7236   12.5235 H         1 UNK         0.3029 
    127 H127      -51.7987  -23.0160   13.2143 H         1 UNK         0.0897 
    128 H128      -48.7637  -22.6356   13.4551 H         1 UNK         0.0792 
    129 H129      -49.9699  -22.0490   14.5946 H         1 UNK         0.0792 
    130 H130      -49.9105  -21.3882   12.9711 H         1 UNK         0.0792 
    131 H131      -49.9294  -24.4155   11.4239 H         1 UNK         0.3086 
    132 H132      -50.9989  -24.3709    9.1267 H         1 UNK         0.0583 
    133 H133      -52.4538  -22.3434    8.3481 H         1 UNK         0.1020 
    134 H134      -50.9639  -21.5026    8.0537 H         1 UNK         0.1020 
    135 H135      -53.6939  -23.4823    6.3074 H         1 UNK         0.0694 
    136 H136      -52.9006  -24.7929    5.4638 H         1 UNK         0.0694 
    137 H137      -48.8630  -24.2246    8.6679 H         1 UNK         0.2989 
    138 H138      -46.4264  -21.6986    8.6632 H         1 UNK         0.1055 
    139 H139      -46.6073  -24.2626   10.3400 H         1 UNK         0.0806 
    140 H140      -46.1489  -22.6710   10.9272 H         1 UNK         0.0806 
    141 H141      -45.1089  -23.5145    9.7886 H         1 UNK         0.0806 
    142 H142      -46.4404  -24.4449    7.8170 H         1 UNK         0.3061 
    143 H143      -47.9176  -24.8253    5.4831 H         1 UNK         0.0734 
    144 H144      -46.4186  -22.8245    3.7121 H         1 UNK         0.0832 
    145 H145      -47.1481  -24.3298    3.1524 H         1 UNK         0.0832 
    146 H146      -48.1586  -23.0483    3.7996 H         1 UNK         0.0832 
    147 H147      -46.0617  -25.9690    5.6514 H         1 UNK         0.3156 
    148 H148      -42.8185  -25.6625    4.8107 H         1 UNK         0.0589 
    149 H149      -41.9237  -26.0511    7.1201 H         1 UNK         0.0808 
    150 H150      -42.2128  -24.3473    6.8151 H         1 UNK         0.0808 
    151 H151      -43.3414  -25.2561    7.8061 H         1 UNK         0.0808 
    152 H152      -44.3628  -27.2644    6.7488 H         1 UNK         0.3098 
    153 H153      -45.6980  -29.4255    4.3375 H         1 UNK         0.0720 
    154 H154      -43.4069  -30.4240    4.4207 H         1 UNK         0.0791 
    155 H155      -44.5089  -31.2790    5.4855 H         1 UNK         0.0791 
    156 H156      -43.3326  -30.1467    6.1550 H         1 UNK         0.0791 
    157 H157      -45.5520  -29.6568    7.1734 H         1 UNK         0.3028 
@<TRIPOS>BOND
     1    1    2 1    
     2    1   82 1    
     3    1   83 1    
     4    1   84 1    
     5    2    3 2    
     6    2    4 am   BACKBONE|DICT|INTERRES
     7    4    5 1    
     8    4   85 1    
     9    5    6 1    
    10    5   80 1    
    11    5   86 1    
    12    6    7 1    
    13    6   87 1    
    14    6   88 1    
    15    7    8 1    
    16    8    9 1    
    17    8   89 1    
    18    8   90 1    
    19    9   10 ar   
    20    9   14 ar   
    21   10   11 ar   
    22   10   91 1    
    23   11   12 ar   
    24   11   58 1    
    25   12   13 ar   
    26   12   92 1    
    27   13   14 ar   
    28   13   15 1    
    29   14   93 1    
    30   15   16 1    
    31   15   94 1    
    32   15   95 1    
    33   16   17 1    
    34   17   18 1    
    35   17   96 1    
    36   17   97 1    
    37   18   19 1    
    38   18   22 1    
    39   18   98 1    
    40   19   20 am   BACKBONE|DICT|INTERRES
    41   19   21 2    
    42   20   99 1    
    43   20  100 1    
    44   22   23 am   BACKBONE|DICT|INTERRES
    45   22  101 1    
    46   23   24 2    
    47   23   25 1    
    48   25   26 1    
    49   25   27 1    
    50   25  102 1    
    51   26  103 1    
    52   26  104 1    
    53   26  105 1    
    54   27   28 am   BACKBONE|DICT|INTERRES
    55   27  106 1    
    56   28   29 2    
    57   28   30 1    
    58   30   31 1    
    59   30   32 1    
    60   30  107 1    
    61   31  108 1    
    62   31  109 1    
    63   31  110 1    
    64   32   33 am   BACKBONE|DICT|INTERRES
    65   32  111 1    
    66   33   34 2    
    67   33   35 1    
    68   35   36 1    
    69   35   37 1    
    70   35  112 1    
    71   36  113 1    
    72   36  114 1    
    73   36  115 1    
    74   37   38 am   BACKBONE|DICT|INTERRES
    75   37  116 1    
    76   38   39 2    
    77   38   40 1    
    78   40   41 1    
    79   40   42 1    
    80   40  117 1    
    81   41  118 1    
    82   41  119 1    
    83   41  120 1    
    84   42   43 am   BACKBONE|DICT|INTERRES
    85   42  121 1    
    86   43   44 2    
    87   43   45 1    
    88   45   46 1    
    89   45   47 1    
    90   45  122 1    
    91   46  123 1    
    92   46  124 1    
    93   46  125 1    
    94   47   48 am   BACKBONE|DICT|INTERRES
    95   47  126 1    
    96   48   49 2    
    97   48   50 1    
    98   50   51 1    
    99   50   52 1    
   100   50  127 1    
   101   51  128 1    
   102   51  129 1    
   103   51  130 1    
   104   52   53 am   BACKBONE|DICT|INTERRES
   105   52  131 1    
   106   53   54 2    
   107   53   55 1    
   108   55   56 1    
   109   55   59 1    
   110   55  132 1    
   111   56   57 1    
   112   56  133 1    
   113   56  134 1    
   114   57   58 1    
   115   58  135 1    
   116   58  136 1    
   117   59   60 am   BACKBONE|DICT|INTERRES
   118   59  137 1    
   119   60   61 2    
   120   60   62 1    
   121   62   63 1    
   122   62   64 1    
   123   62  138 1    
   124   63  139 1    
   125   63  140 1    
   126   63  141 1    
   127   64   65 am   BACKBONE|DICT|INTERRES
   128   64  142 1    
   129   65   66 2    
   130   65   67 1    
   131   67   68 1    
   132   67   69 1    
   133   67  143 1    
   134   68  144 1    
   135   68  145 1    
   136   68  146 1    
   137   69   70 am   BACKBONE|DICT|INTERRES
   138   69  147 1    
   139   70   71 2    
   140   70   72 1    
   141   72   73 1    
   142   72   74 1    
   143   72  148 1    
   144   73  149 1    
   145   73  150 1    
   146   73  151 1    
   147   74   75 am   BACKBONE|DICT|INTERRES
   148   74  152 1    
   149   75   76 2    
   150   75   77 1    
   151   77   78 1    
   152   77   79 1    
   153   77  153 1    
   154   78  154 1    
   155   78  155 1    
   156   78  156 1    
   157   79   80 am   BACKBONE|DICT|INTERRES
   158   79  157 1    
   159   80   81 2    
@<TRIPOS>SUBSTRUCTURE
     1 UNK         1 GROUP             0       ****    0 ROOT    
