@<TRIPOS>MOLECULE
3R207
157   159    1
SMALL
USER_CHARGES


@<TRIPOS>ATOM
      1 CA        -52.5592  -29.7347    8.9118 C.3       0 UNK        -0.1975 
      2 C         -51.7625  -29.8851    7.6278 C.2       0 UNK         0.4852 
      3 O         -51.1385  -30.9244    7.4130 O.2       0 UNK        -0.5216 
      4 N         -51.7700  -28.8507    6.7757 N.am      1 UNK        -0.4461 
      5 CA        -51.0467  -28.8100    5.4957 C.3       1 UNK         0.0864 
      6 C6        -51.5246  -27.6499    4.5854 C.3       14 UNK        -0.0898 
      7 S7        -53.3217  -27.6753    4.2643 S.3       14 UNK        -0.2598 
      8 C8        -53.8582  -26.0840    4.9717 C.3       14 UNK         0.0286 
      9 C9        -53.9476  -26.1367    6.4899 C.ar      14 UNK        -0.0844 
     10 C10       -52.8591  -25.7582    7.2800 C.ar      14 UNK        -0.0881 
     11 C11       -52.9399  -25.8109    8.6741 C.ar      14 UNK        -0.0643 
     12 C12       -54.1317  -26.2223    9.2814 C.ar      14 UNK        -0.0930 
     13 C13       -55.2397  -26.5737    8.5012 C.ar      14 UNK        -0.0827 
     14 C14       -55.1358  -26.5368    7.1071 C.ar      14 UNK        -0.1249 
     15 C15       -56.5687  -26.9360    9.1553 C.3       14 UNK         0.0141 
     16 S16       -57.1106  -28.6305    8.7613 S.3       14 UNK        -0.2313 
     17 C17       -56.0145  -29.6232    9.8243 C.3       14 UNK        -0.0915 
     18 CA        -56.7801  -30.3823   10.9523 C.3       13 UNK         0.0968 
     19 C         -57.2730  -31.7990   10.5198 C.2       13 UNK         0.5732 
     20 N         -57.2708  -32.7955   11.3977 N.am      13 UNK        -0.7310 
     21 O         -57.6945  -31.9980    9.3830 O.2       13 UNK        -0.5035 
     22 N         -56.0680  -30.3459   12.2428 N.am      13 UNK        -0.4233 
     23 C         -54.8233  -30.7889   12.4581 C.2       13 UNK         0.4989 
     24 O         -54.1010  -31.2881   11.5929 O.2       13 UNK        -0.4996 
     25 CA        -54.2854  -30.6569   13.8860 C.3       12 UNK         0.0216 
     26 CB        -54.1839  -32.0438   14.5461 C.3       12 UNK        -0.1964 
     27 N         -52.9517  -30.0641   13.7925 N.am      12 UNK        -0.4276 
     28 C         -52.4709  -28.9674   14.3918 C.2       12 UNK         0.5020 
     29 O         -51.3384  -28.5525   14.1415 O.2       12 UNK        -0.5489 
     30 CA        -53.3180  -28.2112   15.4333 C.3       11 UNK         0.0294 
     31 CB        -53.3243  -28.9597   16.7831 C.3       11 UNK        -0.2019 
     32 N         -52.7396  -26.8821   15.6068 N.am      11 UNK        -0.4493 
     33 C         -53.2830  -25.8500   16.2635 C.2       11 UNK         0.4932 
     34 O         -54.4072  -25.8792   16.7676 O.2       11 UNK        -0.5029 
     35 CA        -52.4268  -24.5715   16.3711 C.3       10 UNK         0.0280 
     36 CB        -52.8225  -23.6721   17.5612 C.3       10 UNK        -0.1976 
     37 N         -50.9869  -24.8528   16.3716 N.am      10 UNK        -0.4242 
     38 C         -50.2779  -25.5381   17.2818 C.2       10 UNK         0.5072 
     39 O         -50.7393  -25.9753   18.3367 O.2       10 UNK        -0.5224 
     40 CA        -48.7987  -25.8062   16.9473 C.3       9 UNK         0.0343 
     41 CB        -48.6444  -27.1946   16.3066 C.3       9 UNK        -0.2003 
     42 N         -48.2061  -24.7968   16.0640 N.am      9 UNK        -0.4272 
     43 C         -47.9482  -23.5331   16.4331 C.2       9 UNK         0.4988 
     44 O         -48.1296  -23.1006   17.5720 O.2       9 UNK        -0.5108 
     45 CA        -47.4073  -22.5864   15.3502 C.3       8 UNK         0.0248 
     46 CB        -45.8943  -22.7866   15.1670 C.3       8 UNK        -0.2001 
     47 N         -48.0937  -22.7403   14.0640 N.am      8 UNK        -0.4140 
     48 C         -49.3777  -22.4159   13.8451 C.2       8 UNK         0.5028 
     49 O         -50.1099  -21.9077   14.6943 O.2       8 UNK        -0.5428 
     50 CA        -49.9599  -22.7421   12.4579 C.3       7 UNK         0.0264 
     51 CB        -49.5438  -21.6861   11.4233 C.3       7 UNK        -0.1988 
     52 N         -49.5886  -24.0795   11.9888 N.am      7 UNK        -0.4454 
     53 C         -49.9755  -25.2159   12.5914 C.2       7 UNK         0.5027 
     54 O         -50.7399  -25.2448   13.5549 O.2       7 UNK        -0.5083 
     55 CA        -49.3860  -26.5414   12.0736 C.3       6 UNK         0.0844 
     56 C56       -50.3349  -27.2737   11.0892 C.3       14 UNK        -0.0967 
     57 S57       -50.3809  -26.5800    9.4052 S.3       14 UNK        -0.2604 
     58 C58       -51.7461  -25.3792    9.5109 C.3       14 UNK         0.0134 
     59 N         -48.0130  -26.3752   11.5834 N.am      6 UNK        -0.4116 
     60 C         -46.9706  -26.1307   12.3929 C.2       5 UNK         0.5034 
     61 O         -47.0602  -26.0456   13.6186 O.2       5 UNK        -0.5045 
     62 CA        -45.6077  -25.8919   11.7270 C.3       5 UNK         0.0224 
     63 CB        -45.0106  -27.1987   11.1860 C.3       5 UNK        -0.1978 
     64 N         -45.6666  -24.8867   10.6637 N.am      5 UNK        -0.4737 
     65 C         -45.9084  -23.5864   10.8853 C.2       4 UNK         0.5027 
     66 O         -46.1414  -23.1178   11.9974 O.2       4 UNK        -0.5211 
     67 CA        -45.9093  -22.6428    9.6719 C.3       4 UNK         0.0297 
     68 CB        -44.5024  -22.0691    9.4419 C.3       4 UNK        -0.1993 
     69 N         -46.3911  -23.2589    8.4357 N.am      4 UNK        -0.4486 
     70 C         -47.6009  -23.8063    8.2622 C.2       3 UNK         0.4961 
     71 O         -48.4522  -23.8793    9.1498 O.2       3 UNK        -0.5105 
     72 CA        -47.9142  -24.3776    6.8661 C.3       3 UNK         0.0299 
     73 CB        -46.9031  -23.9698    5.7699 C.3       3 UNK        -0.1972 
     74 N         -48.0719  -25.8337    6.8886 N.am      3 UNK        -0.4305 
     75 C         -47.2024  -26.7531    7.3390 C.2       2 UNK         0.5006 
     76 O         -46.1091  -26.4779    7.8374 O.2       2 UNK        -0.5106 
     77 CA        -47.6245  -28.2316    7.2218 C.3       2 UNK         0.0296 
     78 CB        -47.3729  -29.0000    8.5309 C.3       2 UNK        -0.2002 
     79 N         -49.0382  -28.3751    6.8630 N.am      2 UNK        -0.4032 
     80 C         -49.5103  -28.7472    5.6646 C.2       1 UNK         0.5000 
     81 O         -48.7897  -29.0179    4.7022 O.2       1 UNK        -0.5238 
     82 H82       -53.1251  -30.6444    9.1077 H         1 UNK         0.0889 
     83 H83       -53.2582  -28.9021    8.8539 H         1 UNK         0.0889 
     84 H84       -51.8912  -29.5649    9.7549 H         1 UNK         0.0889 
     85 H85       -52.3359  -28.0378    6.9845 H         1 UNK         0.3028 
     86 H86       -51.2604  -29.7468    4.9763 H         1 UNK         0.0864 
     87 H87       -51.2360  -26.6853    5.0035 H         1 UNK         0.0720 
     88 H88       -51.0288  -27.7085    3.6143 H         1 UNK         0.0720 
     89 H89       -54.8357  -25.8324    4.5575 H         1 UNK         0.0814 
     90 H90       -53.1853  -25.2869    4.6513 H         1 UNK         0.0814 
     91 H91       -51.9443  -25.4170    6.8158 H         1 UNK         0.1469 
     92 H92       -54.2039  -26.2446   10.3602 H         1 UNK         0.1381 
     93 H93       -55.9892  -26.8099    6.5011 H         1 UNK         0.1206 
     94 H94       -57.3299  -26.2386    8.8030 H         1 UNK         0.0813 
     95 H95       -56.5237  -26.8126   10.2386 H         1 UNK         0.0813 
     96 H96       -55.2678  -28.9539   10.2531 H         1 UNK         0.0638 
     97 H97       -55.4562  -30.3156    9.1933 H         1 UNK         0.0638 
     98 H98       -57.7000  -29.8333   11.1560 H         1 UNK         0.0568 
     99 H99       -57.6011  -33.7035   11.1110 H         1 UNK         0.3450 
    100 H100      -56.9415  -32.6517   12.3380 H         1 UNK         0.3450 
    101 H101      -56.5985  -29.9722   13.0168 H         1 UNK         0.2987 
    102 H102      -54.9716  -30.0456   14.4703 H         1 UNK         0.0766 
    103 H103      -53.7511  -31.9857   15.5442 H         1 UNK         0.0798 
    104 H104      -53.5661  -32.7269   13.9611 H         1 UNK         0.0798 
    105 H105      -55.1688  -32.5015   14.6470 H         1 UNK         0.0798 
    106 H106      -52.3729  -30.4976   13.0859 H         1 UNK         0.3198 
    107 H107      -54.3335  -28.0753   15.0604 H         1 UNK         0.0843 
    108 H108      -53.7589  -29.9533   16.6878 H         1 UNK         0.0831 
    109 H109      -53.9105  -28.4328   17.5357 H         1 UNK         0.0831 
    110 H110      -52.3138  -29.0814   17.1756 H         1 UNK         0.0831 
    111 H111      -51.8384  -26.7682   15.1523 H         1 UNK         0.3133 
    112 H112      -52.6154  -24.0065   15.4572 H         1 UNK         0.0566 
    113 H113      -52.1972  -22.7804   17.6074 H         1 UNK         0.0814 
    114 H114      -53.8566  -23.3376   17.4710 H         1 UNK         0.0814 
    115 H115      -52.7336  -24.1957   18.5134 H         1 UNK         0.0814 
    116 H116      -50.5190  -24.6150   15.5036 H         1 UNK         0.3091 
    117 H117      -48.2427  -25.8016   17.8872 H         1 UNK         0.0702 
    118 H118      -47.5966  -27.4352   16.1261 H         1 UNK         0.0785 
    119 H119      -49.1709  -27.2578   15.3540 H         1 UNK         0.0785 
    120 H120      -49.0505  -27.9729   16.9542 H         1 UNK         0.0785 
    121 H121      -47.9582  -25.0970   15.1253 H         1 UNK         0.2998 
    122 H122      -47.5721  -21.5630   15.6939 H         1 UNK         0.0697 
    123 H123      -45.6627  -23.7772   14.7732 H         1 UNK         0.0825 
    124 H124      -45.3665  -22.6787   16.1155 H         1 UNK         0.0825 
    125 H125      -45.4786  -22.0494   14.4799 H         1 UNK         0.0825 
    126 H126      -47.5312  -23.0902   13.2914 H         1 UNK         0.3029 
    127 H127      -51.0485  -22.7159   12.5441 H         1 UNK         0.0897 
    128 H128      -49.9923  -21.8854   10.4497 H         1 UNK         0.0792 
    129 H129      -49.8653  -20.6906   11.7321 H         1 UNK         0.0792 
    130 H130      -48.4628  -21.6534   11.2941 H         1 UNK         0.0792 
    131 H131      -49.0096  -24.1317   11.1560 H         1 UNK         0.3086 
    132 H132      -49.3196  -27.1899   12.9494 H         1 UNK         0.0583 
    133 H133      -50.0081  -28.3106   11.0003 H         1 UNK         0.1020 
    134 H134      -51.3473  -27.3332   11.4947 H         1 UNK         0.1020 
    135 H135      -52.0431  -25.2200   10.5477 H         1 UNK         0.0694 
    136 H136      -51.3846  -24.4143    9.1517 H         1 UNK         0.0694 
    137 H137      -47.8831  -26.3616   10.5823 H         1 UNK         0.2989 
    138 H138      -44.9350  -25.5159   12.5017 H         1 UNK         0.1055 
    139 H139      -44.9662  -27.9618   11.9643 H         1 UNK         0.0806 
    140 H140      -43.9944  -27.0481   10.8214 H         1 UNK         0.0806 
    141 H141      -45.6017  -27.6007   10.3658 H         1 UNK         0.0806 
    142 H142      -45.5350  -25.2054    9.7108 H         1 UNK         0.3061 
    143 H143      -46.5785  -21.8123    9.9023 H         1 UNK         0.0734 
    144 H144      -44.1287  -21.5822   10.3440 H         1 UNK         0.0832 
    145 H145      -43.7872  -22.8473    9.1724 H         1 UNK         0.0832 
    146 H146      -44.5016  -21.3206    8.6494 H         1 UNK         0.0832 
    147 H147      -45.7509  -23.2735    7.6553 H         1 UNK         0.3156 
    148 H148      -48.8855  -23.9668    6.5867 H         1 UNK         0.0589 
    149 H149      -45.9112  -24.3893    5.9425 H         1 UNK         0.0808 
    150 H150      -47.2343  -24.3150    4.7903 H         1 UNK         0.0808 
    151 H151      -46.8039  -22.8852    5.7043 H         1 UNK         0.0808 
    152 H152      -48.9558  -26.1738    6.5432 H         1 UNK         0.3098 
    153 H153      -46.9965  -28.6769    6.4477 H         1 UNK         0.0720 
    154 H154      -46.3057  -29.0623    8.7435 H         1 UNK         0.0791 
    155 H155      -47.7423  -30.0238    8.4658 H         1 UNK         0.0791 
    156 H156      -47.8577  -28.5242    9.3835 H         1 UNK         0.0791 
    157 H157      -49.7068  -28.1643    7.5929 H         1 UNK         0.3028 
@<TRIPOS>BOND
     1    1    2 1    
     2    1   82 1    
     3    1   83 1    
     4    1   84 1    
     5    2    3 2    
     6    2    4 am   BACKBONE|DICT|INTERRES
     7    4    5 1    
     8    4   85 1    
     9    5    6 1    
    10    5   80 1    
    11    5   86 1    
    12    6    7 1    
    13    6   87 1    
    14    6   88 1    
    15    7    8 1    
    16    8    9 1    
    17    8   89 1    
    18    8   90 1    
    19    9   10 ar   
    20    9   14 ar   
    21   10   11 ar   
    22   10   91 1    
    23   11   12 ar   
    24   11   58 1    
    25   12   13 ar   
    26   12   92 1    
    27   13   14 ar   
    28   13   15 1    
    29   14   93 1    
    30   15   16 1    
    31   15   94 1    
    32   15   95 1    
    33   16   17 1    
    34   17   18 1    
    35   17   96 1    
    36   17   97 1    
    37   18   19 1    
    38   18   22 1    
    39   18   98 1    
    40   19   20 am   BACKBONE|DICT|INTERRES
    41   19   21 2    
    42   20   99 1    
    43   20  100 1    
    44   22   23 am   BACKBONE|DICT|INTERRES
    45   22  101 1    
    46   23   24 2    
    47   23   25 1    
    48   25   26 1    
    49   25   27 1    
    50   25  102 1    
    51   26  103 1    
    52   26  104 1    
    53   26  105 1    
    54   27   28 am   BACKBONE|DICT|INTERRES
    55   27  106 1    
    56   28   29 2    
    57   28   30 1    
    58   30   31 1    
    59   30   32 1    
    60   30  107 1    
    61   31  108 1    
    62   31  109 1    
    63   31  110 1    
    64   32   33 am   BACKBONE|DICT|INTERRES
    65   32  111 1    
    66   33   34 2    
    67   33   35 1    
    68   35   36 1    
    69   35   37 1    
    70   35  112 1    
    71   36  113 1    
    72   36  114 1    
    73   36  115 1    
    74   37   38 am   BACKBONE|DICT|INTERRES
    75   37  116 1    
    76   38   39 2    
    77   38   40 1    
    78   40   41 1    
    79   40   42 1    
    80   40  117 1    
    81   41  118 1    
    82   41  119 1    
    83   41  120 1    
    84   42   43 am   BACKBONE|DICT|INTERRES
    85   42  121 1    
    86   43   44 2    
    87   43   45 1    
    88   45   46 1    
    89   45   47 1    
    90   45  122 1    
    91   46  123 1    
    92   46  124 1    
    93   46  125 1    
    94   47   48 am   BACKBONE|DICT|INTERRES
    95   47  126 1    
    96   48   49 2    
    97   48   50 1    
    98   50   51 1    
    99   50   52 1    
   100   50  127 1    
   101   51  128 1    
   102   51  129 1    
   103   51  130 1    
   104   52   53 am   BACKBONE|DICT|INTERRES
   105   52  131 1    
   106   53   54 2    
   107   53   55 1    
   108   55   56 1    
   109   55   59 1    
   110   55  132 1    
   111   56   57 1    
   112   56  133 1    
   113   56  134 1    
   114   57   58 1    
   115   58  135 1    
   116   58  136 1    
   117   59   60 am   BACKBONE|DICT|INTERRES
   118   59  137 1    
   119   60   61 2    
   120   60   62 1    
   121   62   63 1    
   122   62   64 1    
   123   62  138 1    
   124   63  139 1    
   125   63  140 1    
   126   63  141 1    
   127   64   65 am   BACKBONE|DICT|INTERRES
   128   64  142 1    
   129   65   66 2    
   130   65   67 1    
   131   67   68 1    
   132   67   69 1    
   133   67  143 1    
   134   68  144 1    
   135   68  145 1    
   136   68  146 1    
   137   69   70 am   BACKBONE|DICT|INTERRES
   138   69  147 1    
   139   70   71 2    
   140   70   72 1    
   141   72   73 1    
   142   72   74 1    
   143   72  148 1    
   144   73  149 1    
   145   73  150 1    
   146   73  151 1    
   147   74   75 am   BACKBONE|DICT|INTERRES
   148   74  152 1    
   149   75   76 2    
   150   75   77 1    
   151   77   78 1    
   152   77   79 1    
   153   77  153 1    
   154   78  154 1    
   155   78  155 1    
   156   78  156 1    
   157   79   80 am   BACKBONE|DICT|INTERRES
   158   79  157 1    
   159   80   81 2    
@<TRIPOS>SUBSTRUCTURE
     1 UNK         1 GROUP             0       ****    0 ROOT    
