@<TRIPOS>MOLECULE
3R207
157   159    1
SMALL
USER_CHARGES


@<TRIPOS>ATOM
      1 CA        -48.0659  -32.7676    3.5847 C.3       0 UNK        -0.1975 
      2 C         -47.7492  -31.2955    3.3671 C.2       0 UNK         0.4852 
      3 O         -46.6106  -30.9554    3.0440 O.2       0 UNK        -0.5216 
      4 N         -48.7473  -30.4190    3.5440 N.am      1 UNK        -0.4461 
      5 CA        -48.6286  -28.9625    3.3923 C.3       1 UNK         0.0864 
      6 C6        -50.0133  -28.2940    3.1908 C.3       14 UNK        -0.0898 
      7 S7        -51.2167  -28.6386    4.5236 S.3       14 UNK        -0.2598 
      8 C8        -51.1331  -27.0719    5.4537 C.3       14 UNK         0.0286 
      9 C9        -51.9429  -27.0483    6.7487 C.ar      14 UNK        -0.0844 
     10 C10       -52.4632  -25.8277    7.1900 C.ar      14 UNK        -0.0881 
     11 C11       -53.1910  -25.7457    8.3797 C.ar      14 UNK        -0.0643 
     12 C12       -53.4062  -26.9013    9.1337 C.ar      14 UNK        -0.0930 
     13 C13       -52.8865  -28.1276    8.7129 C.ar      14 UNK        -0.0827 
     14 C14       -52.1468  -28.1953    7.5281 C.ar      14 UNK        -0.1249 
     15 C15       -53.1291  -29.3728    9.5487 C.3       14 UNK         0.0141 
     16 S16       -54.7301  -30.1283    9.1321 S.3       14 UNK        -0.2313 
     17 C17       -55.0665  -31.1045   10.6356 C.3       14 UNK        -0.0915 
     18 CA        -56.1846  -30.4728   11.5061 C.3       13 UNK         0.0968 
     19 C         -56.5695  -31.4174   12.6769 C.2       13 UNK         0.5732 
     20 N         -57.4926  -32.3417   12.4490 N.am      13 UNK        -0.7310 
     21 O         -56.0138  -31.3470   13.7723 O.2       13 UNK        -0.5035 
     22 N         -55.8052  -29.1360   11.9799 N.am      13 UNK        -0.4233 
     23 C         -56.6325  -28.2386   12.5241 C.2       13 UNK         0.4989 
     24 O         -57.8524  -28.3919   12.6102 O.2       13 UNK        -0.4996 
     25 CA        -55.9668  -26.9635   13.0816 C.3       12 UNK         0.0216 
     26 CB        -56.9879  -25.8901   13.5016 C.3       12 UNK        -0.1964 
     27 N         -55.0921  -27.2608   14.2202 N.am      12 UNK        -0.4276 
     28 C         -53.8955  -27.8541   14.1375 C.2       12 UNK         0.5020 
     29 O         -53.3618  -28.1570   13.0680 O.2       12 UNK        -0.5489 
     30 CA        -53.1754  -28.1232   15.4642 C.3       11 UNK         0.0294 
     31 CB        -52.1465  -29.2624   15.3425 C.3       11 UNK        -0.2019 
     32 N         -52.4811  -26.9063   15.8633 N.am      11 UNK        -0.4493 
     33 C         -52.9408  -25.9747   16.7046 C.2       11 UNK         0.4932 
     34 O         -54.0258  -26.0624   17.2822 O.2       11 UNK        -0.5029 
     35 CA        -52.0540  -24.7266   16.9103 C.3       10 UNK         0.0280 
     36 CB        -52.3029  -24.0326   18.2662 C.3       10 UNK        -0.1976 
     37 N         -50.6195  -24.9741   16.6985 N.am      10 UNK        -0.4242 
     38 C         -49.8166  -25.7926   17.3970 C.2       10 UNK         0.5072 
     39 O         -50.1817  -26.4379   18.3809 O.2       10 UNK        -0.5224 
     40 CA        -48.3538  -25.9279   16.9274 C.3       9 UNK         0.0343 
     41 CB        -48.0852  -27.3166   16.3229 C.3       9 UNK        -0.2003 
     42 N         -47.9213  -24.8900   15.9820 N.am      9 UNK        -0.4272 
     43 C         -47.5621  -23.6540   16.3593 C.2       9 UNK         0.4988 
     44 O         -47.6367  -23.2471   17.5193 O.2       9 UNK        -0.5108 
     45 CA        -47.0193  -22.7127   15.2781 C.3       8 UNK         0.0248 
     46 CB        -45.6119  -23.1411   14.8249 C.3       8 UNK        -0.2001 
     47 N         -47.9177  -22.6424   14.1230 N.am      8 UNK        -0.4140 
     48 C         -48.5223  -21.5185   13.7126 C.2       8 UNK         0.5028 
     49 O         -48.4097  -20.4318   14.2829 O.2       8 UNK        -0.5428 
     50 CA        -49.3882  -21.5867   12.4440 C.3       7 UNK         0.0264 
     51 CB        -48.5534  -21.2485   11.1987 C.3       7 UNK        -0.1988 
     52 N         -50.0884  -22.8589   12.2460 N.am      7 UNK        -0.4454 
     53 C         -51.1448  -23.2410   12.9811 C.2       7 UNK         0.5027 
     54 O         -51.5309  -22.6330   13.9800 O.2       7 UNK        -0.5083 
     55 CA        -51.9192  -24.4970   12.5342 C.3       6 UNK         0.0844 
     56 C56       -53.0830  -24.1632   11.5706 C.3       14 UNK        -0.0967 
     57 S57       -52.5860  -23.5359    9.9282 S.3       14 UNK        -0.2604 
     58 C58       -53.7494  -24.4070    8.8340 C.3       14 UNK         0.0134 
     59 N         -51.0273  -25.5439   12.0332 N.am      6 UNK        -0.4116 
     60 C         -50.3761  -26.3816   12.8508 C.2       5 UNK         0.5034 
     61 O         -50.4835  -26.3555   14.0738 O.2       5 UNK        -0.5045 
     62 CA        -49.3798  -27.3668   12.2255 C.3       5 UNK         0.0224 
     63 CB        -50.0981  -28.3940   11.3374 C.3       5 UNK        -0.1978 
     64 N         -48.3294  -26.6872   11.4682 N.am      5 UNK        -0.4737 
     65 C         -47.5426  -25.7092   11.9477 C.2       4 UNK         0.5027 
     66 O         -47.5528  -25.3356   13.1215 O.2       4 UNK        -0.5211 
     67 CA        -46.6182  -24.9831   10.9526 C.3       4 UNK         0.0297 
     68 CB        -45.1905  -25.5411   11.0520 C.3       4 UNK        -0.1993 
     69 N         -47.0688  -25.0508    9.5591 N.am      4 UNK        -0.4486 
     70 C         -48.2682  -24.6641    9.0982 C.2       3 UNK         0.4961 
     71 O         -49.1107  -24.0862    9.7856 O.2       3 UNK        -0.5105 
     72 CA        -48.6142  -25.0490    7.6479 C.3       3 UNK         0.0299 
     73 CB        -48.4478  -23.8418    6.7133 C.3       3 UNK        -0.1972 
     74 N         -47.8565  -26.1910    7.1118 N.am      3 UNK        -0.4305 
     75 C         -47.8331  -27.4277    7.6309 C.2       2 UNK         0.5006 
     76 O         -48.4272  -27.7455    8.6612 O.2       2 UNK        -0.5106 
     77 CA        -47.0003  -28.4757    6.8720 C.3       2 UNK         0.0296 
     78 CB        -46.6413  -29.6851    7.7557 C.3       2 UNK        -0.2002 
     79 N         -47.7064  -28.9530    5.6837 N.am      2 UNK        -0.4032 
     80 C         -47.8226  -28.2865    4.5261 C.2       1 UNK         0.5000 
     81 O         -47.3272  -27.1735    4.3349 O.2       1 UNK        -0.5238 
     82 H82       -47.8718  -33.3315    2.6727 H         1 UNK         0.0889 
     83 H83       -49.1077  -32.9239    3.8643 H         1 UNK         0.0889 
     84 H84       -47.4375  -33.1735    4.3769 H         1 UNK         0.0889 
     85 H85       -49.6668  -30.7505    3.8028 H         1 UNK         0.3028 
     86 H86       -48.0558  -28.7828    2.4795 H         1 UNK         0.0864 
     87 H87       -49.9060  -27.2160    3.0540 H         1 UNK         0.0720 
     88 H88       -50.4506  -28.6564    2.2592 H         1 UNK         0.0720 
     89 H89       -51.4693  -26.2710    4.7932 H         1 UNK         0.0814 
     90 H90       -50.0954  -26.8547    5.6956 H         1 UNK         0.0814 
     91 H91       -52.2956  -24.9308    6.6090 H         1 UNK         0.1469 
     92 H92       -53.9795  -26.8535   10.0482 H         1 UNK         0.1381 
     93 H93       -51.7358  -29.1450    7.2160 H         1 UNK         0.1206 
     94 H94       -52.3312  -30.1014    9.3971 H         1 UNK         0.0813 
     95 H95       -53.1060  -29.1075   10.6058 H         1 UNK         0.0813 
     96 H96       -54.1484  -31.2307   11.2128 H         1 UNK         0.0638 
     97 H97       -55.3586  -32.1045   10.3099 H         1 UNK         0.0638 
     98 H98       -57.0707  -30.3508   10.8796 H         1 UNK         0.0568 
     99 H99       -57.9459  -32.4172   11.5516 H         1 UNK         0.3450 
    100 H100      -57.7452  -32.9739   13.1923 H         1 UNK         0.3450 
    101 H101      -54.8099  -28.9495   12.0551 H         1 UNK         0.2987 
    102 H102      -55.3603  -26.5429   12.2778 H         1 UNK         0.0766 
    103 H103      -57.6234  -26.2328   14.3192 H         1 UNK         0.0798 
    104 H104      -56.4911  -24.9745   13.8235 H         1 UNK         0.0798 
    105 H105      -57.6414  -25.6260   12.6690 H         1 UNK         0.0798 
    106 H106      -55.4519  -27.0376   15.1384 H         1 UNK         0.3198 
    107 H107      -53.9142  -28.4102   16.2157 H         1 UNK         0.0843 
    108 H108      -52.6264  -30.1860   15.0159 H         1 UNK         0.0831 
    109 H109      -51.6664  -29.4642   16.3001 H         1 UNK         0.0831 
    110 H110      -51.3628  -29.0286   14.6206 H         1 UNK         0.0831 
    111 H111      -51.6244  -26.7047   15.3455 H         1 UNK         0.3133 
    112 H112      -52.3519  -24.0257   16.1305 H         1 UNK         0.0566 
    113 H113      -51.6764  -23.1479   18.3795 H         1 UNK         0.0814 
    114 H114      -53.3399  -23.7066   18.3548 H         1 UNK         0.0814 
    115 H115      -52.1002  -24.6981   19.1057 H         1 UNK         0.0814 
    116 H116      -50.2193  -24.5394   15.8788 H         1 UNK         0.3091 
    117 H117      -47.7352  -25.8470   17.8241 H         1 UNK         0.0702 
    118 H118      -47.0295  -27.4462   16.0847 H         1 UNK         0.0785 
    119 H119      -48.6543  -27.4835   15.4111 H         1 UNK         0.0785 
    120 H120      -48.3582  -28.1070   17.0234 H         1 UNK         0.0785 
    121 H121      -47.8268  -25.1608   15.0053 H         1 UNK         0.2998 
    122 H122      -46.9186  -21.7297   15.7428 H         1 UNK         0.0697 
    123 H123      -45.6056  -24.1328   14.3733 H         1 UNK         0.0825 
    124 H124      -44.9232  -23.1666   15.6704 H         1 UNK         0.0825 
    125 H125      -45.2030  -22.4413   14.0961 H         1 UNK         0.0825 
    126 H126      -48.0556  -23.5058   13.6065 H         1 UNK         0.3029 
    127 H127      -50.1507  -20.8102   12.5413 H         1 UNK         0.0897 
    128 H128      -49.1726  -21.2218   10.3017 H         1 UNK         0.0792 
    129 H129      -48.0841  -20.2688   11.2979 H         1 UNK         0.0792 
    130 H130      -47.7581  -21.9735   11.0334 H         1 UNK         0.0792 
    131 H131      -49.8393  -23.3923   11.4149 H         1 UNK         0.3086 
    132 H132      -52.4031  -24.8811   13.4356 H         1 UNK         0.0583 
    133 H133      -53.6926  -25.0566   11.4462 H         1 UNK         0.1020 
    134 H134      -53.7480  -23.4271   12.0267 H         1 UNK         0.1020 
    135 H135      -54.7122  -24.5390    9.3301 H         1 UNK         0.0694 
    136 H136      -53.9453  -23.7759    7.9658 H         1 UNK         0.0694 
    137 H137      -50.8516  -25.5652   11.0380 H         1 UNK         0.2989 
    138 H138      -48.8953  -27.9062   13.0411 H         1 UNK         0.1055 
    139 H139      -50.8927  -28.8989   11.8887 H         1 UNK         0.0806 
    140 H140      -49.4098  -29.1612   10.9825 H         1 UNK         0.0806 
    141 H141      -50.5509  -27.9257   10.4629 H         1 UNK         0.0806 
    142 H142      -48.2610  -26.9312   10.4840 H         1 UNK         0.3061 
    143 H143      -46.5923  -23.9324   11.2427 H         1 UNK         0.0734 
    144 H144      -44.8192  -25.4802   12.0762 H         1 UNK         0.0832 
    145 H145      -45.1443  -26.5887   10.7512 H         1 UNK         0.0832 
    146 H146      -44.4979  -24.9784   10.4258 H         1 UNK         0.0832 
    147 H147      -46.4521  -25.5159    8.9097 H         1 UNK         0.3156 
    148 H148      -49.6670  -25.3338    7.6493 H         1 UNK         0.0589 
    149 H149      -47.4063  -23.5256    6.6440 H         1 UNK         0.0808 
    150 H150      -48.8000  -24.0675    5.7065 H         1 UNK         0.0808 
    151 H151      -49.0252  -22.9885    7.0728 H         1 UNK         0.0808 
    152 H152      -47.3810  -26.0491    6.2278 H         1 UNK         0.3098 
    153 H153      -46.0659  -28.0024    6.5625 H         1 UNK         0.0720 
    154 H154      -45.9930  -30.3840    7.2267 H         1 UNK         0.0791 
    155 H155      -47.5293  -30.2303    8.0789 H         1 UNK         0.0791 
    156 H156      -46.1101  -29.3675    8.6540 H         1 UNK         0.0791 
    157 H157      -48.1763  -29.8426    5.7637 H         1 UNK         0.3028 
@<TRIPOS>BOND
     1    1    2 1    
     2    1   82 1    
     3    1   83 1    
     4    1   84 1    
     5    2    3 2    
     6    2    4 am   BACKBONE|DICT|INTERRES
     7    4    5 1    
     8    4   85 1    
     9    5    6 1    
    10    5   80 1    
    11    5   86 1    
    12    6    7 1    
    13    6   87 1    
    14    6   88 1    
    15    7    8 1    
    16    8    9 1    
    17    8   89 1    
    18    8   90 1    
    19    9   10 ar   
    20    9   14 ar   
    21   10   11 ar   
    22   10   91 1    
    23   11   12 ar   
    24   11   58 1    
    25   12   13 ar   
    26   12   92 1    
    27   13   14 ar   
    28   13   15 1    
    29   14   93 1    
    30   15   16 1    
    31   15   94 1    
    32   15   95 1    
    33   16   17 1    
    34   17   18 1    
    35   17   96 1    
    36   17   97 1    
    37   18   19 1    
    38   18   22 1    
    39   18   98 1    
    40   19   20 am   BACKBONE|DICT|INTERRES
    41   19   21 2    
    42   20   99 1    
    43   20  100 1    
    44   22   23 am   BACKBONE|DICT|INTERRES
    45   22  101 1    
    46   23   24 2    
    47   23   25 1    
    48   25   26 1    
    49   25   27 1    
    50   25  102 1    
    51   26  103 1    
    52   26  104 1    
    53   26  105 1    
    54   27   28 am   BACKBONE|DICT|INTERRES
    55   27  106 1    
    56   28   29 2    
    57   28   30 1    
    58   30   31 1    
    59   30   32 1    
    60   30  107 1    
    61   31  108 1    
    62   31  109 1    
    63   31  110 1    
    64   32   33 am   BACKBONE|DICT|INTERRES
    65   32  111 1    
    66   33   34 2    
    67   33   35 1    
    68   35   36 1    
    69   35   37 1    
    70   35  112 1    
    71   36  113 1    
    72   36  114 1    
    73   36  115 1    
    74   37   38 am   BACKBONE|DICT|INTERRES
    75   37  116 1    
    76   38   39 2    
    77   38   40 1    
    78   40   41 1    
    79   40   42 1    
    80   40  117 1    
    81   41  118 1    
    82   41  119 1    
    83   41  120 1    
    84   42   43 am   BACKBONE|DICT|INTERRES
    85   42  121 1    
    86   43   44 2    
    87   43   45 1    
    88   45   46 1    
    89   45   47 1    
    90   45  122 1    
    91   46  123 1    
    92   46  124 1    
    93   46  125 1    
    94   47   48 am   BACKBONE|DICT|INTERRES
    95   47  126 1    
    96   48   49 2    
    97   48   50 1    
    98   50   51 1    
    99   50   52 1    
   100   50  127 1    
   101   51  128 1    
   102   51  129 1    
   103   51  130 1    
   104   52   53 am   BACKBONE|DICT|INTERRES
   105   52  131 1    
   106   53   54 2    
   107   53   55 1    
   108   55   56 1    
   109   55   59 1    
   110   55  132 1    
   111   56   57 1    
   112   56  133 1    
   113   56  134 1    
   114   57   58 1    
   115   58  135 1    
   116   58  136 1    
   117   59   60 am   BACKBONE|DICT|INTERRES
   118   59  137 1    
   119   60   61 2    
   120   60   62 1    
   121   62   63 1    
   122   62   64 1    
   123   62  138 1    
   124   63  139 1    
   125   63  140 1    
   126   63  141 1    
   127   64   65 am   BACKBONE|DICT|INTERRES
   128   64  142 1    
   129   65   66 2    
   130   65   67 1    
   131   67   68 1    
   132   67   69 1    
   133   67  143 1    
   134   68  144 1    
   135   68  145 1    
   136   68  146 1    
   137   69   70 am   BACKBONE|DICT|INTERRES
   138   69  147 1    
   139   70   71 2    
   140   70   72 1    
   141   72   73 1    
   142   72   74 1    
   143   72  148 1    
   144   73  149 1    
   145   73  150 1    
   146   73  151 1    
   147   74   75 am   BACKBONE|DICT|INTERRES
   148   74  152 1    
   149   75   76 2    
   150   75   77 1    
   151   77   78 1    
   152   77   79 1    
   153   77  153 1    
   154   78  154 1    
   155   78  155 1    
   156   78  156 1    
   157   79   80 am   BACKBONE|DICT|INTERRES
   158   79  157 1    
   159   80   81 2    
@<TRIPOS>SUBSTRUCTURE
     1 UNK         1 GROUP             0       ****    0 ROOT    
