@<TRIPOS>MOLECULE
3R207
157   159    1
SMALL
USER_CHARGES


@<TRIPOS>ATOM
      1 CA        -53.4508  -28.9579    3.4771 C.3       0 UNK        -0.1975 
      2 C         -52.4570  -28.4575    4.5152 C.2       0 UNK         0.4852 
      3 O         -52.6042  -27.3398    5.0107 O.2       0 UNK        -0.5216 
      4 N         -51.4535  -29.2796    4.8483 N.am      1 UNK        -0.4461 
      5 CA        -50.3885  -28.9565    5.8014 C.3       1 UNK         0.0864 
      6 C6        -49.6487  -30.2417    6.2555 C.3       14 UNK        -0.0898 
      7 S7        -48.7156  -30.0058    7.8059 S.3       14 UNK        -0.2598 
      8 C8        -49.8324  -30.7207    9.0566 C.3       14 UNK         0.0286 
      9 C9        -51.2017  -30.0549    9.0632 C.ar      14 UNK        -0.0844 
     10 C10       -51.3345  -28.7095    9.4221 C.ar      14 UNK        -0.0881 
     11 C11       -52.5858  -28.0824    9.3824 C.ar      14 UNK        -0.0643 
     12 C12       -53.7134  -28.8318    9.0412 C.ar      14 UNK        -0.0930 
     13 C13       -53.6037  -30.1933    8.7494 C.ar      14 UNK        -0.0827 
     14 C14       -52.3399  -30.7899    8.7196 C.ar      14 UNK        -0.1249 
     15 C15       -54.8608  -31.0094    8.4797 C.3       14 UNK         0.0141 
     16 S16       -55.0982  -32.4465    9.5917 S.3       14 UNK        -0.2313 
     17 C17       -54.3286  -32.0185   11.1981 C.3       14 UNK        -0.0915 
     18 CA        -55.2340  -31.1905   12.1466 C.3       13 UNK         0.0968 
     19 C         -54.7033  -31.2583   13.6121 C.2       13 UNK         0.5732 
     20 N         -54.2221  -30.1741   14.2128 N.am      13 UNK        -0.7310 
     21 O         -54.7386  -32.3242   14.2224 O.2       13 UNK        -0.5035 
     22 N         -55.4157  -29.8212   11.6478 N.am      13 UNK        -0.4233 
     23 C         -56.3816  -28.9940   12.0586 C.2       13 UNK         0.4989 
     24 O         -57.3232  -29.3293   12.7805 O.2       13 UNK        -0.4996 
     25 CA        -56.2549  -27.5268   11.6209 C.3       12 UNK         0.0216 
     26 CB        -57.4260  -27.1097   10.7166 C.3       12 UNK        -0.1964 
     27 N         -56.1968  -26.6574   12.7963 N.am      12 UNK        -0.4276 
     28 C         -55.1623  -26.6186   13.6452 C.2       12 UNK         0.5020 
     29 O         -54.1087  -27.2416   13.4767 O.2       12 UNK        -0.5489 
     30 CA        -55.3500  -25.7820   14.9136 C.3       11 UNK         0.0294 
     31 CB        -56.0527  -26.6145   16.0037 C.3       11 UNK        -0.2019 
     32 N         -54.0342  -25.3501   15.3714 N.am      11 UNK        -0.4493 
     33 C         -53.7812  -24.3886   16.2669 C.2       11 UNK         0.4932 
     34 O         -54.6650  -23.7391   16.8284 O.2       11 UNK        -0.5029 
     35 CA        -52.3025  -24.0665   16.5677 C.3       10 UNK         0.0280 
     36 CB        -52.0598  -23.7023   18.0477 C.3       10 UNK        -0.1976 
     37 N         -51.3594  -25.0929   16.1084 N.am      10 UNK        -0.4242 
     38 C         -51.2055  -26.3443   16.5662 C.2       10 UNK         0.5072 
     39 O         -51.8513  -26.8299   17.4955 O.2       10 UNK        -0.5224 
     40 CA        -50.1549  -27.2101   15.8495 C.3       9 UNK         0.0343 
     41 CB        -50.7771  -27.8904   14.6181 C.3       9 UNK        -0.2003 
     42 N         -48.9633  -26.4579   15.4435 N.am      9 UNK        -0.4272 
     43 C         -48.0660  -25.9298   16.2896 C.2       9 UNK         0.4988 
     44 O         -48.1218  -26.0541   17.5137 O.2       9 UNK        -0.5108 
     45 CA        -46.9107  -25.1221   15.6703 C.3       8 UNK         0.0248 
     46 CB        -45.8180  -26.0547   15.1229 C.3       8 UNK        -0.2001 
     47 N         -47.3587  -24.2074   14.6172 N.am      8 UNK        -0.4140 
     48 C         -48.1178  -23.1222   14.8319 C.2       8 UNK         0.5028 
     49 O         -48.4609  -22.7341   15.9490 O.2       8 UNK        -0.5428 
     50 CA        -48.6023  -22.3497   13.5921 C.3       7 UNK         0.0264 
     51 CB        -47.5314  -21.3564   13.1140 C.3       7 UNK        -0.1988 
     52 N         -48.9959  -23.2286   12.4871 N.am      7 UNK        -0.4454 
     53 C         -50.0098  -24.1051   12.5452 C.2       7 UNK         0.5027 
     54 O         -50.7579  -24.2150   13.5156 O.2       7 UNK        -0.5083 
     55 CA        -50.2000  -25.0574   11.3508 C.3       6 UNK         0.0844 
     56 C56       -51.0769  -24.4032   10.2555 C.3       14 UNK        -0.0967 
     57 S57       -51.5020  -25.5598    8.9138 S.3       14 UNK        -0.2604 
     58 C58       -52.7413  -26.6099    9.7402 C.3       14 UNK         0.0134 
     59 N         -48.9235  -25.5719   10.8495 N.am      6 UNK        -0.4116 
     60 C         -48.0911  -26.3464   11.5596 C.2       5 UNK         0.5034 
     61 O         -48.3359  -26.7555   12.6931 O.2       5 UNK        -0.5045 
     62 CA        -46.7302  -26.6712   10.9300 C.3       5 UNK         0.0224 
     63 CB        -46.8366  -27.8513    9.9543 C.3       5 UNK        -0.1978 
     64 N         -46.1582  -25.5084   10.2511 N.am      5 UNK        -0.4737 
     65 C         -45.6785  -24.4313   10.8871 C.2       4 UNK         0.5027 
     66 O         -45.6251  -24.3302   12.1128 O.2       4 UNK        -0.5211 
     67 CA        -45.2149  -23.2586   10.0065 C.3       4 UNK         0.0297 
     68 CB        -43.7641  -23.4702    9.5463 C.3       4 UNK        -0.1993 
     69 N         -46.0764  -23.0464    8.8391 N.am      4 UNK        -0.4486 
     70 C         -47.3513  -22.6388    8.9094 C.2       3 UNK         0.4961 
     71 O         -47.9322  -22.3836    9.9637 O.2       3 UNK        -0.5105 
     72 CA        -48.1260  -22.5409    7.5837 C.3       3 UNK         0.0299 
     73 CB        -47.8196  -21.2106    6.8775 C.3       3 UNK        -0.1972 
     74 N         -47.9043  -23.6575    6.6547 N.am      3 UNK        -0.4305 
     75 C         -48.0838  -24.9513    6.9528 C.2       2 UNK         0.5006 
     76 O         -48.3173  -25.3706    8.0876 O.2       2 UNK        -0.5106 
     77 CA        -47.9640  -25.9576    5.8069 C.3       2 UNK         0.0296 
     78 CB        -46.5227  -26.4839    5.6872 C.3       2 UNK        -0.2002 
     79 N         -48.8770  -27.0553    6.1047 N.am      2 UNK        -0.4032 
     80 C         -49.4185  -27.9013    5.2235 C.2       1 UNK         0.5000 
     81 O         -49.1678  -27.8885    4.0141 O.2       1 UNK        -0.5238 
     82 H82       -53.2084  -29.9622    3.1301 H         1 UNK         0.0889 
     83 H83       -53.4576  -28.2932    2.6137 H         1 UNK         0.0889 
     84 H84       -54.4550  -28.9789    3.8996 H         1 UNK         0.0889 
     85 H85       -51.3663  -30.1696    4.3797 H         1 UNK         0.3028 
     86 H86       -50.8796  -28.5144    6.6705 H         1 UNK         0.0864 
     87 H87       -48.9641  -30.5941    5.4815 H         1 UNK         0.0720 
     88 H88       -50.3613  -31.0535    6.4107 H         1 UNK         0.0720 
     89 H89       -49.3769  -30.6094   10.0415 H         1 UNK         0.0814 
     90 H90       -49.9212  -31.7938    8.8802 H         1 UNK         0.0814 
     91 H91       -50.4568  -28.1424    9.7014 H         1 UNK         0.1469 
     92 H92       -54.6840  -28.3565    9.0155 H         1 UNK         0.1381 
     93 H93       -52.2521  -31.8375    8.4660 H         1 UNK         0.1206 
     94 H94       -55.7485  -30.3797    8.5570 H         1 UNK         0.0813 
     95 H95       -54.8354  -31.3658    7.4492 H         1 UNK         0.0813 
     96 H96       -53.3664  -31.5276   11.0595 H         1 UNK         0.0638 
     97 H97       -54.0884  -32.9783   11.6594 H         1 UNK         0.0638 
     98 H98       -56.2154  -31.6682   12.1664 H         1 UNK         0.0568 
     99 H99       -53.8929  -30.2543   15.1607 H         1 UNK         0.3450 
    100 H100      -54.1868  -29.2756   13.7451 H         1 UNK         0.3450 
    101 H101      -54.6641  -29.4665   11.0748 H         1 UNK         0.2987 
    102 H102      -55.3276  -27.3933   11.0627 H         1 UNK         0.0766 
    103 H103      -57.4729  -27.7383    9.8263 H         1 UNK         0.0798 
    104 H104      -57.3194  -26.0786   10.3791 H         1 UNK         0.0798 
    105 H105      -58.3853  -27.1986   11.2284 H         1 UNK         0.0798 
    106 H106      -57.0417  -26.1557   13.0302 H         1 UNK         0.3198 
    107 H107      -55.9484  -24.9007   14.6730 H         1 UNK         0.0843 
    108 H108      -56.2340  -26.0273   16.9039 H         1 UNK         0.0831 
    109 H109      -55.4585  -27.4847   16.2865 H         1 UNK         0.0831 
    110 H110      -57.0208  -26.9794   15.6581 H         1 UNK         0.0831 
    111 H111      -53.2650  -25.8301   14.9192 H         1 UNK         0.3133 
    112 H112      -52.0697  -23.1804   15.9756 H         1 UNK         0.0566 
    113 H113      -51.0105  -23.4692   18.2301 H         1 UNK         0.0814 
    114 H114      -52.3466  -24.5128   18.7181 H         1 UNK         0.0814 
    115 H115      -52.6398  -22.8247   18.3352 H         1 UNK         0.0814 
    116 H116      -50.8363  -24.8299   15.2753 H         1 UNK         0.3091 
    117 H117      -49.8372  -27.9896   16.5450 H         1 UNK         0.0702 
    118 H118      -50.0713  -28.5703   14.1407 H         1 UNK         0.0785 
    119 H119      -51.0957  -27.1625   13.8711 H         1 UNK         0.0785 
    120 H120      -51.6554  -28.4755   14.8947 H         1 UNK         0.0785 
    121 H121      -48.7956  -26.3777   14.4426 H         1 UNK         0.2998 
    122 H122      -46.4666  -24.5191   16.4652 H         1 UNK         0.0697 
    123 H123      -46.1888  -26.6874   14.3166 H         1 UNK         0.0825 
    124 H124      -45.4401  -26.7133   15.9060 H         1 UNK         0.0825 
    125 H125      -44.9699  -25.4880   14.7380 H         1 UNK         0.0825 
    126 H126      -47.0640  -24.4169   13.6694 H         1 UNK         0.3029 
    127 H127      -49.4853  -21.7789   13.8877 H         1 UNK         0.0897 
    128 H128      -46.6285  -21.8659   12.7770 H         1 UNK         0.0792 
    129 H129      -47.2430  -20.6768   13.9169 H         1 UNK         0.0792 
    130 H130      -47.8979  -20.7459   12.2885 H         1 UNK         0.0792 
    131 H131      -48.4713  -23.1364   11.6197 H         1 UNK         0.3086 
    132 H132      -50.7395  -25.9206   11.7427 H         1 UNK         0.0583 
    133 H133      -52.0052  -24.0146   10.6798 H         1 UNK         0.1020 
    134 H134      -50.5614  -23.5471    9.8162 H         1 UNK         0.1020 
    135 H135      -52.6840  -26.5146   10.8243 H         1 UNK         0.0694 
    136 H136      -53.7291  -26.2437    9.4570 H         1 UNK         0.0694 
    137 H137      -48.6738  -25.3306    9.8924 H         1 UNK         0.2989 
    138 H138      -46.0547  -26.9610   11.7381 H         1 UNK         0.1055 
    139 H139      -47.4854  -27.6223    9.1097 H         1 UNK         0.0806 
    140 H140      -45.8600  -28.1303    9.5590 H         1 UNK         0.0806 
    141 H141      -47.2486  -28.7312   10.4505 H         1 UNK         0.0806 
    142 H142      -46.2454  -25.4789    9.2449 H         1 UNK         0.3061 
    143 H143      -45.2494  -22.3542   10.6179 H         1 UNK         0.0734 
    144 H144      -43.6640  -24.3497    8.9091 H         1 UNK         0.0832 
    145 H145      -43.3934  -22.6080    8.9916 H         1 UNK         0.0832 
    146 H146      -43.1020  -23.6114   10.4019 H         1 UNK         0.0832 
    147 H147      -45.6830  -23.2412    7.9299 H         1 UNK         0.3156 
    148 H148      -49.1887  -22.5484    7.8351 H         1 UNK         0.0589 
    149 H149      -48.4590  -21.0662    6.0064 H         1 UNK         0.0808 
    150 H150      -47.9925  -20.3653    7.5456 H         1 UNK         0.0808 
    151 H151      -46.7819  -21.1566    6.5461 H         1 UNK         0.0808 
    152 H152      -47.6894  -23.4095    5.6993 H         1 UNK         0.3098 
    153 H153      -48.2669  -25.4769    4.8743 H         1 UNK         0.0720 
    154 H154      -45.8227  -25.6718    5.4871 H         1 UNK         0.0791 
    155 H155      -46.4287  -27.2002    4.8709 H         1 UNK         0.0791 
    156 H156      -46.1989  -26.9795    6.6037 H         1 UNK         0.0791 
    157 H157      -49.1439  -27.1055    7.0811 H         1 UNK         0.3028 
@<TRIPOS>BOND
     1    1    2 1    
     2    1   82 1    
     3    1   83 1    
     4    1   84 1    
     5    2    3 2    
     6    2    4 am   BACKBONE|DICT|INTERRES
     7    4    5 1    
     8    4   85 1    
     9    5    6 1    
    10    5   80 1    
    11    5   86 1    
    12    6    7 1    
    13    6   87 1    
    14    6   88 1    
    15    7    8 1    
    16    8    9 1    
    17    8   89 1    
    18    8   90 1    
    19    9   10 ar   
    20    9   14 ar   
    21   10   11 ar   
    22   10   91 1    
    23   11   12 ar   
    24   11   58 1    
    25   12   13 ar   
    26   12   92 1    
    27   13   14 ar   
    28   13   15 1    
    29   14   93 1    
    30   15   16 1    
    31   15   94 1    
    32   15   95 1    
    33   16   17 1    
    34   17   18 1    
    35   17   96 1    
    36   17   97 1    
    37   18   19 1    
    38   18   22 1    
    39   18   98 1    
    40   19   20 am   BACKBONE|DICT|INTERRES
    41   19   21 2    
    42   20   99 1    
    43   20  100 1    
    44   22   23 am   BACKBONE|DICT|INTERRES
    45   22  101 1    
    46   23   24 2    
    47   23   25 1    
    48   25   26 1    
    49   25   27 1    
    50   25  102 1    
    51   26  103 1    
    52   26  104 1    
    53   26  105 1    
    54   27   28 am   BACKBONE|DICT|INTERRES
    55   27  106 1    
    56   28   29 2    
    57   28   30 1    
    58   30   31 1    
    59   30   32 1    
    60   30  107 1    
    61   31  108 1    
    62   31  109 1    
    63   31  110 1    
    64   32   33 am   BACKBONE|DICT|INTERRES
    65   32  111 1    
    66   33   34 2    
    67   33   35 1    
    68   35   36 1    
    69   35   37 1    
    70   35  112 1    
    71   36  113 1    
    72   36  114 1    
    73   36  115 1    
    74   37   38 am   BACKBONE|DICT|INTERRES
    75   37  116 1    
    76   38   39 2    
    77   38   40 1    
    78   40   41 1    
    79   40   42 1    
    80   40  117 1    
    81   41  118 1    
    82   41  119 1    
    83   41  120 1    
    84   42   43 am   BACKBONE|DICT|INTERRES
    85   42  121 1    
    86   43   44 2    
    87   43   45 1    
    88   45   46 1    
    89   45   47 1    
    90   45  122 1    
    91   46  123 1    
    92   46  124 1    
    93   46  125 1    
    94   47   48 am   BACKBONE|DICT|INTERRES
    95   47  126 1    
    96   48   49 2    
    97   48   50 1    
    98   50   51 1    
    99   50   52 1    
   100   50  127 1    
   101   51  128 1    
   102   51  129 1    
   103   51  130 1    
   104   52   53 am   BACKBONE|DICT|INTERRES
   105   52  131 1    
   106   53   54 2    
   107   53   55 1    
   108   55   56 1    
   109   55   59 1    
   110   55  132 1    
   111   56   57 1    
   112   56  133 1    
   113   56  134 1    
   114   57   58 1    
   115   58  135 1    
   116   58  136 1    
   117   59   60 am   BACKBONE|DICT|INTERRES
   118   59  137 1    
   119   60   61 2    
   120   60   62 1    
   121   62   63 1    
   122   62   64 1    
   123   62  138 1    
   124   63  139 1    
   125   63  140 1    
   126   63  141 1    
   127   64   65 am   BACKBONE|DICT|INTERRES
   128   64  142 1    
   129   65   66 2    
   130   65   67 1    
   131   67   68 1    
   132   67   69 1    
   133   67  143 1    
   134   68  144 1    
   135   68  145 1    
   136   68  146 1    
   137   69   70 am   BACKBONE|DICT|INTERRES
   138   69  147 1    
   139   70   71 2    
   140   70   72 1    
   141   72   73 1    
   142   72   74 1    
   143   72  148 1    
   144   73  149 1    
   145   73  150 1    
   146   73  151 1    
   147   74   75 am   BACKBONE|DICT|INTERRES
   148   74  152 1    
   149   75   76 2    
   150   75   77 1    
   151   77   78 1    
   152   77   79 1    
   153   77  153 1    
   154   78  154 1    
   155   78  155 1    
   156   78  156 1    
   157   79   80 am   BACKBONE|DICT|INTERRES
   158   79  157 1    
   159   80   81 2    
@<TRIPOS>SUBSTRUCTURE
     1 UNK         1 GROUP             0       ****    0 ROOT    
