@<TRIPOS>MOLECULE
3R207
157   159    1
SMALL
USER_CHARGES


@<TRIPOS>ATOM
      1 CA        -48.2402  -24.7661   12.4280 C.3       0 UNK        -0.1975 
      2 C         -48.5407  -25.6678   11.2439 C.2       0 UNK         0.4852 
      3 O         -48.4218  -25.2329   10.0992 O.2       0 UNK        -0.5216 
      4 N         -48.9383  -26.9171   11.5092 N.am      1 UNK        -0.4461 
      5 CA        -49.2200  -27.9488   10.5045 C.3       1 UNK         0.0864 
      6 C6        -50.3997  -27.5561    9.5685 C.3       14 UNK        -0.0898 
      7 S7        -51.4291  -28.9801    9.0905 S.3       14 UNK        -0.2598 
      8 C8        -52.3369  -28.3112    7.6569 C.3       14 UNK         0.0286 
      9 C9        -53.0206  -26.9699    7.9183 C.ar      14 UNK        -0.0844 
     10 C10       -52.8387  -25.9204    7.0137 C.ar      14 UNK        -0.0881 
     11 C11       -53.4732  -24.6928    7.2112 C.ar      14 UNK        -0.0643 
     12 C12       -54.2940  -24.5159    8.3285 C.ar      14 UNK        -0.0930 
     13 C13       -54.4814  -25.5460    9.2560 C.ar      14 UNK        -0.0827 
     14 C14       -53.8470  -26.7775    9.0332 C.ar      14 UNK        -0.1249 
     15 C15       -55.3908  -25.2715   10.4590 C.3       14 UNK         0.0141 
     16 S16       -55.1494  -26.3495   11.9140 S.3       14 UNK        -0.2313 
     17 C17       -56.1885  -27.7948   11.5028 C.3       14 UNK        -0.0915 
     18 CA        -56.9541  -28.3763   12.7231 C.3       13 UNK         0.0968 
     19 C         -57.7976  -29.6017   12.2628 C.2       13 UNK         0.5732 
     20 N         -57.3268  -30.8320   12.4435 N.am      13 UNK        -0.7310 
     21 O         -58.8916  -29.4291   11.7309 O.2       13 UNK        -0.5035 
     22 N         -56.0338  -28.6636   13.8316 N.am      13 UNK        -0.4233 
     23 C         -56.3505  -29.1544   15.0374 C.2       13 UNK         0.4989 
     24 O         -57.5059  -29.2467   15.4545 O.2       13 UNK        -0.4996 
     25 CA        -55.1765  -29.6376   15.9220 C.3       12 UNK         0.0216 
     26 CB        -55.5156  -30.9422   16.6730 C.3       12 UNK        -0.1964 
     27 N         -53.8984  -29.7686   15.2006 N.am      12 UNK        -0.4276 
     28 C         -53.6389  -30.5461   14.1357 C.2       12 UNK         0.5020 
     29 O         -54.4339  -31.3642   13.6703 O.2       12 UNK        -0.5489 
     30 CA        -52.3179  -30.2916   13.4045 C.3       11 UNK         0.0294 
     31 CB        -52.4365  -29.0144   12.5552 C.3       11 UNK        -0.2019 
     32 N         -51.1839  -30.1703   14.3221 N.am      11 UNK        -0.4493 
     33 C         -49.9462  -30.6115   14.0559 C.2       11 UNK         0.4932 
     34 O         -49.6386  -31.1868   13.0104 O.2       11 UNK        -0.5029 
     35 CA        -48.8694  -30.3703   15.1370 C.3       10 UNK         0.0280 
     36 CB        -47.4312  -30.4464   14.5771 C.3       10 UNK        -0.1976 
     37 N         -49.0739  -29.1274   15.8929 N.am      10 UNK        -0.4242 
     38 C         -49.0802  -27.8815   15.3981 C.2       10 UNK         0.5072 
     39 O         -48.8392  -27.5973   14.2233 O.2       10 UNK        -0.5224 
     40 CA        -49.4609  -26.7635   16.3844 C.3       9 UNK         0.0343 
     41 CB        -48.3306  -25.7290   16.5133 C.3       9 UNK        -0.2003 
     42 N         -50.6976  -26.0897   15.9810 N.am      9 UNK        -0.4272 
     43 C         -51.8877  -26.6893   15.8292 C.2       9 UNK         0.4988 
     44 O         -52.0850  -27.8831   16.0677 O.2       9 UNK        -0.5108 
     45 CA        -53.0723  -25.8347   15.3391 C.3       8 UNK         0.0248 
     46 CB        -54.0336  -25.5368   16.5007 C.3       8 UNK        -0.2001 
     47 N         -52.7018  -24.5756   14.6830 N.am      8 UNK        -0.4140 
     48 C         -52.0588  -24.4869   13.5117 C.2       8 UNK         0.5028 
     49 O         -51.6446  -25.4597   12.8769 O.2       8 UNK        -0.5428 
     50 CA        -51.8250  -23.0733   12.9654 C.3       7 UNK         0.0264 
     51 CB        -50.7853  -22.2986   13.7979 C.3       7 UNK        -0.1988 
     52 N         -51.3778  -23.2078   11.5840 N.am      7 UNK        -0.4454 
     53 C         -51.5434  -22.3063   10.6123 C.2       7 UNK         0.5027 
     54 O         -51.9810  -21.1688   10.7975 O.2       7 UNK        -0.5083 
     55 CA        -51.1731  -22.7836    9.1976 C.3       6 UNK         0.0844 
     56 C56       -51.8787  -21.9666    8.0799 C.3       14 UNK        -0.0967 
     57 S57       -51.6674  -22.7315    6.4363 S.3       14 UNK        -0.2604 
     58 C58       -53.2729  -23.5617    6.2122 C.3       14 UNK         0.0134 
     59 N         -49.7210  -22.8870    9.0381 N.am      6 UNK        -0.4116 
     60 C         -48.8249  -21.8949    8.9314 C.2       5 UNK         0.5034 
     61 O         -49.0936  -20.6982    9.0388 O.2       5 UNK        -0.5045 
     62 CA        -47.3720  -22.3068    8.6172 C.3       5 UNK         0.0224 
     63 CB        -46.4889  -22.2330    9.8730 C.3       5 UNK        -0.1978 
     64 N         -47.2865  -23.6542    8.0443 N.am      5 UNK        -0.4737 
     65 C         -47.5862  -23.9565    6.7751 C.2       4 UNK         0.5027 
     66 O         -47.8088  -23.1091    5.9085 O.2       4 UNK        -0.5211 
     67 CA        -47.6569  -25.4595    6.4354 C.3       4 UNK         0.0297 
     68 CB        -47.9723  -25.7253    4.9487 C.3       4 UNK        -0.1993 
     69 N         -46.4640  -26.2097    6.8489 N.am      4 UNK        -0.4486 
     70 C         -45.1865  -25.9594    6.5135 C.2       3 UNK         0.4961 
     71 O         -44.8418  -25.0271    5.7858 O.2       3 UNK        -0.5105 
     72 CA        -44.0994  -26.9289    7.0296 C.3       3 UNK         0.0299 
     73 CB        -42.8306  -26.1850    7.5005 C.3       3 UNK        -0.1972 
     74 N         -44.5601  -27.8900    8.0414 N.am      3 UNK        -0.4305 
     75 C         -44.9685  -27.6267    9.2902 C.2       2 UNK         0.5006 
     76 O         -44.9758  -26.5067    9.8042 O.2       2 UNK        -0.5106 
     77 CA        -45.5000  -28.8279   10.0893 C.3       2 UNK         0.0296 
     78 CB        -44.5957  -29.1329   11.2948 C.3       2 UNK        -0.2002 
     79 N         -46.8619  -28.5770   10.5573 N.am      2 UNK        -0.4032 
     80 C         -47.9247  -28.3559    9.7679 C.2       1 UNK         0.5000 
     81 O         -47.8833  -28.4240    8.5358 O.2       1 UNK        -0.5238 
     82 H82       -47.1853  -24.8305   12.6923 H         1 UNK         0.0889 
     83 H83       -48.8353  -25.0501   13.2947 H         1 UNK         0.0889 
     84 H84       -48.4720  -23.7307   12.1828 H         1 UNK         0.0889 
     85 H85       -49.0201  -27.2060   12.4856 H         1 UNK         0.3028 
     86 H86       -49.5069  -28.8304   11.0782 H         1 UNK         0.0864 
     87 H87       -50.0578  -27.0206    8.6812 H         1 UNK         0.0720 
     88 H88       -51.0657  -26.8638   10.0871 H         1 UNK         0.0720 
     89 H89       -53.0929  -29.0359    7.3526 H         1 UNK         0.0814 
     90 H90       -51.6375  -28.2303    6.8233 H         1 UNK         0.0814 
     91 H91       -52.2040  -26.0549    6.1483 H         1 UNK         0.1469 
     92 H92       -54.7883  -23.5659    8.4795 H         1 UNK         0.1381 
     93 H93       -53.9785  -27.5944    9.7256 H         1 UNK         0.1206 
     94 H94       -56.4325  -25.3092   10.1387 H         1 UNK         0.0813 
     95 H95       -55.2182  -24.2487   10.7976 H         1 UNK         0.0813 
     96 H96       -55.5436  -28.5595   11.0671 H         1 UNK         0.0638 
     97 H97       -56.8946  -27.5138   10.7196 H         1 UNK         0.0638 
     98 H98       -57.6563  -27.6210   13.0797 H         1 UNK         0.0568 
     99 H99       -56.4210  -30.9834   12.8709 H         1 UNK         0.3450 
    100 H100      -57.8788  -31.6193   12.1433 H         1 UNK         0.3450 
    101 H101      -55.0570  -28.6040   13.5944 H         1 UNK         0.2987 
    102 H102      -55.0223  -28.8574   16.6684 H         1 UNK         0.0766 
    103 H103      -56.3798  -30.8071   17.3246 H         1 UNK         0.0798 
    104 H104      -54.6858  -31.2644   17.3019 H         1 UNK         0.0798 
    105 H105      -55.7521  -31.7557   15.9865 H         1 UNK         0.0798 
    106 H106      -53.1857  -29.1002   15.4963 H         1 UNK         0.3198 
    107 H107      -52.1569  -31.1393   12.7343 H         1 UNK         0.0843 
    108 H108      -52.6709  -28.1357   13.1551 H         1 UNK         0.0831 
    109 H109      -53.2135  -29.1147   11.7969 H         1 UNK         0.0831 
    110 H110      -51.5074  -28.8002   12.0368 H         1 UNK         0.0831 
    111 H111      -51.3473  -29.6789   15.1930 H         1 UNK         0.3133 
    112 H112      -48.9824  -31.1825   15.8564 H         1 UNK         0.0566 
    113 H113      -46.6909  -30.2801   15.3595 H         1 UNK         0.0814 
    114 H114      -47.2606  -29.7095   13.7921 H         1 UNK         0.0814 
    115 H115      -47.2299  -31.4284   14.1471 H         1 UNK         0.0814 
    116 H116      -49.3015  -29.2477   16.8706 H         1 UNK         0.3091 
    117 H117      -49.6317  -27.2014   17.3701 H         1 UNK         0.0702 
    118 H118      -48.5707  -24.9689   17.2570 H         1 UNK         0.0785 
    119 H119      -48.1314  -25.2229   15.5687 H         1 UNK         0.0785 
    120 H120      -47.4013  -26.2060   16.8274 H         1 UNK         0.0785 
    121 H121      -50.6246  -25.1137   15.7396 H         1 UNK         0.2998 
    122 H122      -53.6126  -26.4367   14.6065 H         1 UNK         0.0697 
    123 H123      -53.5706  -24.8991   17.2548 H         1 UNK         0.0825 
    124 H124      -54.3448  -26.4553   16.9999 H         1 UNK         0.0825 
    125 H125      -54.9390  -25.0416   16.1492 H         1 UNK         0.0825 
    126 H126      -52.9982  -23.7255   15.1411 H         1 UNK         0.3029 
    127 H127      -52.7791  -22.5415   12.9796 H         1 UNK         0.0897 
    128 H128      -49.8478  -22.8443   13.8947 H         1 UNK         0.0792 
    129 H129      -51.1536  -22.1082   14.8064 H         1 UNK         0.0792 
    130 H130      -50.5618  -21.3289   13.3525 H         1 UNK         0.0792 
    131 H131      -51.0815  -24.1514   11.3579 H         1 UNK         0.3086 
    132 H132      -51.5407  -23.8085    9.1254 H         1 UNK         0.0583 
    133 H133      -52.9446  -21.8669    8.2908 H         1 UNK         0.1020 
    134 H134      -51.4964  -20.9457    8.0404 H         1 UNK         0.1020 
    135 H135      -54.0769  -22.8280    6.2886 H         1 UNK         0.0694 
    136 H136      -53.3230  -23.9612    5.1983 H         1 UNK         0.0694 
    137 H137      -49.3479  -23.8308    9.0457 H         1 UNK         0.2989 
    138 H138      -46.9853  -21.5914    7.8879 H         1 UNK         0.1055 
    139 H139      -46.7955  -22.9564   10.6273 H         1 UNK         0.0806 
    140 H140      -46.5373  -21.2430   10.3286 H         1 UNK         0.0806 
    141 H141      -45.4439  -22.4280    9.6314 H         1 UNK         0.0806 
    142 H142      -47.1894  -24.4168    8.7087 H         1 UNK         0.3061 
    143 H143      -48.4851  -25.8619    7.0212 H         1 UNK         0.0734 
    144 H144      -47.1921  -25.3358    4.2939 H         1 UNK         0.0832 
    145 H145      -48.0773  -26.7918    4.7501 H         1 UNK         0.0832 
    146 H146      -48.9095  -25.2486    4.6582 H         1 UNK         0.0832 
    147 H147      -46.6497  -26.9987    7.4591 H         1 UNK         0.3156 
    148 H148      -43.8156  -27.5323    6.1662 H         1 UNK         0.0589 
    149 H149      -42.0685  -26.8803    7.8521 H         1 UNK         0.0808 
    150 H150      -42.3892  -25.6096    6.6858 H         1 UNK         0.0808 
    151 H151      -43.0458  -25.4845    8.3079 H         1 UNK         0.0808 
    152 H152      -44.6222  -28.8471    7.7203 H         1 UNK         0.3098 
    153 H153      -45.5260  -29.7100    9.4460 H         1 UNK         0.0720 
    154 H154      -43.5750  -29.3433   10.9724 H         1 UNK         0.0791 
    155 H155      -44.9476  -30.0055   11.8457 H         1 UNK         0.0791 
    156 H156      -44.5511  -28.2926   11.9893 H         1 UNK         0.0791 
    157 H157      -46.9780  -28.4409   11.5506 H         1 UNK         0.3028 
@<TRIPOS>BOND
     1    1    2 1    
     2    1   82 1    
     3    1   83 1    
     4    1   84 1    
     5    2    3 2    
     6    2    4 am   BACKBONE|DICT|INTERRES
     7    4    5 1    
     8    4   85 1    
     9    5    6 1    
    10    5   80 1    
    11    5   86 1    
    12    6    7 1    
    13    6   87 1    
    14    6   88 1    
    15    7    8 1    
    16    8    9 1    
    17    8   89 1    
    18    8   90 1    
    19    9   10 ar   
    20    9   14 ar   
    21   10   11 ar   
    22   10   91 1    
    23   11   12 ar   
    24   11   58 1    
    25   12   13 ar   
    26   12   92 1    
    27   13   14 ar   
    28   13   15 1    
    29   14   93 1    
    30   15   16 1    
    31   15   94 1    
    32   15   95 1    
    33   16   17 1    
    34   17   18 1    
    35   17   96 1    
    36   17   97 1    
    37   18   19 1    
    38   18   22 1    
    39   18   98 1    
    40   19   20 am   BACKBONE|DICT|INTERRES
    41   19   21 2    
    42   20   99 1    
    43   20  100 1    
    44   22   23 am   BACKBONE|DICT|INTERRES
    45   22  101 1    
    46   23   24 2    
    47   23   25 1    
    48   25   26 1    
    49   25   27 1    
    50   25  102 1    
    51   26  103 1    
    52   26  104 1    
    53   26  105 1    
    54   27   28 am   BACKBONE|DICT|INTERRES
    55   27  106 1    
    56   28   29 2    
    57   28   30 1    
    58   30   31 1    
    59   30   32 1    
    60   30  107 1    
    61   31  108 1    
    62   31  109 1    
    63   31  110 1    
    64   32   33 am   BACKBONE|DICT|INTERRES
    65   32  111 1    
    66   33   34 2    
    67   33   35 1    
    68   35   36 1    
    69   35   37 1    
    70   35  112 1    
    71   36  113 1    
    72   36  114 1    
    73   36  115 1    
    74   37   38 am   BACKBONE|DICT|INTERRES
    75   37  116 1    
    76   38   39 2    
    77   38   40 1    
    78   40   41 1    
    79   40   42 1    
    80   40  117 1    
    81   41  118 1    
    82   41  119 1    
    83   41  120 1    
    84   42   43 am   BACKBONE|DICT|INTERRES
    85   42  121 1    
    86   43   44 2    
    87   43   45 1    
    88   45   46 1    
    89   45   47 1    
    90   45  122 1    
    91   46  123 1    
    92   46  124 1    
    93   46  125 1    
    94   47   48 am   BACKBONE|DICT|INTERRES
    95   47  126 1    
    96   48   49 2    
    97   48   50 1    
    98   50   51 1    
    99   50   52 1    
   100   50  127 1    
   101   51  128 1    
   102   51  129 1    
   103   51  130 1    
   104   52   53 am   BACKBONE|DICT|INTERRES
   105   52  131 1    
   106   53   54 2    
   107   53   55 1    
   108   55   56 1    
   109   55   59 1    
   110   55  132 1    
   111   56   57 1    
   112   56  133 1    
   113   56  134 1    
   114   57   58 1    
   115   58  135 1    
   116   58  136 1    
   117   59   60 am   BACKBONE|DICT|INTERRES
   118   59  137 1    
   119   60   61 2    
   120   60   62 1    
   121   62   63 1    
   122   62   64 1    
   123   62  138 1    
   124   63  139 1    
   125   63  140 1    
   126   63  141 1    
   127   64   65 am   BACKBONE|DICT|INTERRES
   128   64  142 1    
   129   65   66 2    
   130   65   67 1    
   131   67   68 1    
   132   67   69 1    
   133   67  143 1    
   134   68  144 1    
   135   68  145 1    
   136   68  146 1    
   137   69   70 am   BACKBONE|DICT|INTERRES
   138   69  147 1    
   139   70   71 2    
   140   70   72 1    
   141   72   73 1    
   142   72   74 1    
   143   72  148 1    
   144   73  149 1    
   145   73  150 1    
   146   73  151 1    
   147   74   75 am   BACKBONE|DICT|INTERRES
   148   74  152 1    
   149   75   76 2    
   150   75   77 1    
   151   77   78 1    
   152   77   79 1    
   153   77  153 1    
   154   78  154 1    
   155   78  155 1    
   156   78  156 1    
   157   79   80 am   BACKBONE|DICT|INTERRES
   158   79  157 1    
   159   80   81 2    
@<TRIPOS>SUBSTRUCTURE
     1 UNK         1 GROUP             0       ****    0 ROOT    
