@<TRIPOS>MOLECULE
3R207
157   159    1
SMALL
USER_CHARGES


@<TRIPOS>ATOM
      1 CA        -54.2307  -25.8060    5.6259 C.3       0 UNK        -0.1975 
      2 C         -53.1184  -26.2039    6.5841 C.2       0 UNK         0.4852 
      3 O         -53.3171  -26.1710    7.7968 O.2       0 UNK        -0.5216 
      4 N         -51.9414  -26.5555    6.0488 N.am      1 UNK        -0.4461 
      5 CA        -50.7752  -27.0670    6.7875 C.3       1 UNK         0.0864 
      6 C6        -49.8097  -27.8520    5.8609 C.3       14 UNK        -0.0898 
      7 S7        -50.6466  -29.2082    4.9699 S.3       14 UNK        -0.2598 
      8 C8        -50.0800  -30.6788    5.8854 C.3       14 UNK         0.0286 
      9 C9        -50.5324  -30.6803    7.3406 C.ar      14 UNK        -0.0844 
     10 C10       -49.5867  -30.6307    8.3705 C.ar      14 UNK        -0.0881 
     11 C11       -49.9883  -30.6547    9.7114 C.ar      14 UNK        -0.0643 
     12 C12       -51.3516  -30.7368   10.0115 C.ar      14 UNK        -0.0930 
     13 C13       -52.3071  -30.7927    8.9932 C.ar      14 UNK        -0.0827 
     14 C14       -51.8923  -30.7642    7.6588 C.ar      14 UNK        -0.1249 
     15 C15       -53.7814  -30.9121    9.3473 C.3       14 UNK         0.0141 
     16 S16       -54.5303  -29.2786    9.6310 S.3       14 UNK        -0.2313 
     17 C17       -55.9141  -29.7070   10.7484 C.3       14 UNK        -0.0915 
     18 CA        -55.6661  -29.3467   12.2441 C.3       13 UNK         0.0968 
     19 C         -54.5612  -30.2207   12.8860 C.2       13 UNK         0.5732 
     20 N         -54.8844  -31.4479   13.2696 N.am      13 UNK        -0.7310 
     21 O         -53.4095  -29.8121   13.0070 O.2       13 UNK        -0.5035 
     22 N         -55.3894  -27.9201   12.4447 N.am      13 UNK        -0.4233 
     23 C         -56.2996  -26.9449   12.3740 C.2       13 UNK         0.4989 
     24 O         -57.5058  -27.1406   12.2095 O.2       13 UNK        -0.4996 
     25 CA        -55.7542  -25.5129   12.4841 C.3       12 UNK         0.0216 
     26 CB        -56.7958  -24.4287   12.1295 C.3       12 UNK        -0.1964 
     27 N         -55.1234  -25.2502   13.7810 N.am      12 UNK        -0.4276 
     28 C         -55.6991  -25.1360   14.9851 C.2       12 UNK         0.5020 
     29 O         -56.9000  -25.3121   15.2007 O.2       12 UNK        -0.5489 
     30 CA        -54.7620  -24.7000   16.1301 C.3       11 UNK         0.0294 
     31 CB        -55.4822  -24.5552   17.4889 C.3       11 UNK        -0.2019 
     32 N         -53.5613  -25.5348   16.2526 N.am      11 UNK        -0.4493 
     33 C         -53.4981  -26.8305   16.5955 C.2       11 UNK         0.4932 
     34 O         -54.4893  -27.5180   16.8441 O.2       11 UNK        -0.5029 
     35 CA        -52.1038  -27.4867   16.6991 C.3       10 UNK         0.0280 
     36 CB        -52.0135  -28.7290   15.8012 C.3       10 UNK        -0.1976 
     37 N         -50.9870  -26.5952   16.3722 N.am      10 UNK        -0.4242 
     38 C         -50.4510  -25.6833   17.1947 C.2       10 UNK         0.5072 
     39 O         -50.8195  -25.5066   18.3563 O.2       10 UNK        -0.5224 
     40 CA        -49.3397  -24.7906   16.6091 C.3       9 UNK         0.0343 
     41 CB        -47.9720  -25.4857   16.7032 C.3       9 UNK        -0.2003 
     42 N         -49.5907  -24.3961   15.2195 N.am      9 UNK        -0.4272 
     43 C         -50.6339  -23.6576   14.8110 C.2       9 UNK         0.4988 
     44 O         -51.4795  -23.1816   15.5686 O.2       9 UNK        -0.5108 
     45 CA        -50.8040  -23.4867   13.2934 C.3       8 UNK         0.0248 
     46 CB        -49.8478  -22.4218   12.7312 C.3       8 UNK        -0.2001 
     47 N         -50.6194  -24.7567   12.5894 N.am      8 UNK        -0.4140 
     48 C         -51.4596  -25.7964   12.6943 C.2       8 UNK         0.5028 
     49 O         -52.4990  -25.7689   13.3473 O.2       8 UNK        -0.5428 
     50 CA        -51.0758  -27.0902   11.9692 C.3       7 UNK         0.0264 
     51 CB        -51.6245  -27.0608   10.5407 C.3       7 UNK        -0.1988 
     52 N         -49.6312  -27.3198   11.9538 N.am      7 UNK        -0.4454 
     53 C         -48.9128  -27.6187   13.0468 C.2       7 UNK         0.5027 
     54 O         -49.3927  -27.7004   14.1773 O.2       7 UNK        -0.5083 
     55 CA        -47.3940  -27.8056   12.8544 C.3       6 UNK         0.0844 
     56 C56       -47.0360  -29.2136   12.3122 C.3       14 UNK        -0.0967 
     57 S57       -47.5727  -29.5040   10.5864 S.3       14 UNK        -0.2604 
     58 C58       -48.9750  -30.6410   10.8530 C.3       14 UNK         0.0134 
     59 N         -46.7819  -26.7418   12.0563 N.am      6 UNK        -0.4116 
     60 C         -46.8541  -25.4257   12.2843 C.2       5 UNK         0.5034 
     61 O         -47.4912  -24.9297   13.2146 O.2       5 UNK        -0.5045 
     62 CA        -46.1195  -24.4896   11.3069 C.3       5 UNK         0.0224 
     63 CB        -44.7483  -24.0751   11.8731 C.3       5 UNK        -0.1978 
     64 N         -46.0022  -24.9805    9.9226 N.am      5 UNK        -0.4737 
     65 C         -45.3103  -26.0273    9.4414 C.2       4 UNK         0.5027 
     66 O         -44.6523  -26.7856   10.1531 O.2       4 UNK        -0.5211 
     67 CA        -45.3855  -26.3101    7.9283 C.3       4 UNK         0.0297 
     68 CB        -45.8992  -27.7358    7.6590 C.3       4 UNK        -0.1993 
     69 N         -46.2475  -25.3567    7.2270 N.am      4 UNK        -0.4486 
     70 C         -45.8242  -24.2167    6.6608 C.2       3 UNK         0.4961 
     71 O         -44.6406  -23.8837    6.5993 O.2       3 UNK        -0.5105 
     72 CA        -46.8940  -23.2716    6.0773 C.3       3 UNK         0.0299 
     73 CB        -46.9903  -23.4503    4.5535 C.3       3 UNK        -0.1972 
     74 N         -48.2256  -23.4451    6.6647 N.am      3 UNK        -0.4305 
     75 C         -48.5412  -23.2217    7.9489 C.2       2 UNK         0.5006 
     76 O         -47.7500  -22.7810    8.7818 O.2       2 UNK        -0.5106 
     77 CA        -49.9561  -23.6246    8.3981 C.3       2 UNK         0.0296 
     78 CB        -50.9121  -22.4240    8.3328 C.3       2 UNK        -0.2002 
     79 N         -50.5226  -24.7457    7.6384 N.am      2 UNK        -0.4032 
     80 C         -50.0098  -25.9855    7.5878 C.2       1 UNK         0.5000 
     81 O         -48.9537  -26.2852    8.1472 O.2       1 UNK        -0.5238 
     82 H82       -53.9152  -25.8689    4.5846 H         1 UNK         0.0889 
     83 H83       -54.5495  -24.7830    5.8239 H         1 UNK         0.0889 
     84 H84       -55.0901  -26.4625    5.7598 H         1 UNK         0.0889 
     85 H85       -51.8442  -26.5639    5.0430 H         1 UNK         0.3028 
     86 H86       -51.1512  -27.7707    7.5333 H         1 UNK         0.0864 
     87 H87       -49.3644  -27.1852    5.1203 H         1 UNK         0.0720 
     88 H88       -48.9764  -28.2698    6.4294 H         1 UNK         0.0720 
     89 H89       -48.9933  -30.7456    5.8127 H         1 UNK         0.0814 
     90 H90       -50.4722  -31.5700    5.3935 H         1 UNK         0.0814 
     91 H91       -48.5339  -30.5815    8.1289 H         1 UNK         0.1469 
     92 H92       -51.6758  -30.7605   11.0435 H         1 UNK         0.1381 
     93 H93       -52.6262  -30.8087    6.8657 H         1 UNK         0.1206 
     94 H94       -53.8860  -31.5311   10.2394 H         1 UNK         0.0813 
     95 H95       -54.3270  -31.4246    8.5537 H         1 UNK         0.0813 
     96 H96       -56.1573  -30.7658   10.6444 H         1 UNK         0.0638 
     97 H97       -56.7970  -29.1769   10.3892 H         1 UNK         0.0638 
     98 H98       -56.5818  -29.5688   12.7958 H         1 UNK         0.0568 
     99 H99       -54.1722  -32.0316   13.6784 H         1 UNK         0.3450 
    100 H100      -55.8230  -31.8005   13.1672 H         1 UNK         0.3450 
    101 H101      -54.4189  -27.7007   12.6276 H         1 UNK         0.2987 
    102 H102      -54.9551  -25.4366   11.7445 H         1 UNK         0.0766 
    103 H103      -56.3587  -23.4310   12.1694 H         1 UNK         0.0798 
    104 H104      -57.6531  -24.4469   12.8030 H         1 UNK         0.0798 
    105 H105      -57.1776  -24.5752   11.1185 H         1 UNK         0.0798 
    106 H106      -54.1015  -25.2291   13.7463 H         1 UNK         0.3198 
    107 H107      -54.4017  -23.7072   15.8550 H         1 UNK         0.0843 
    108 H108      -55.9187  -25.4970   17.8224 H         1 UNK         0.0831 
    109 H109      -56.2941  -23.8299   17.4223 H         1 UNK         0.0831 
    110 H110      -54.8002  -24.2070   18.2645 H         1 UNK         0.0831 
    111 H111      -52.6902  -25.0668   16.0338 H         1 UNK         0.3133 
    112 H112      -51.9888  -27.8164   17.7335 H         1 UNK         0.0566 
    113 H113      -52.0810  -28.4544   14.7497 H         1 UNK         0.0814 
    114 H114      -51.0717  -29.2582   15.9466 H         1 UNK         0.0814 
    115 H115      -52.8181  -29.4358   16.0079 H         1 UNK         0.0814 
    116 H116      -50.5657  -26.7241   15.4566 H         1 UNK         0.3091 
    117 H117      -49.2999  -23.8783   17.2079 H         1 UNK         0.0702 
    118 H118      -47.1710  -24.8319   16.3574 H         1 UNK         0.0785 
    119 H119      -47.9392  -26.3970   16.1051 H         1 UNK         0.0785 
    120 H120      -47.7445  -25.7622   17.7336 H         1 UNK         0.0785 
    121 H121      -48.9247  -24.7216   14.5235 H         1 UNK         0.2998 
    122 H122      -51.8263  -23.1486   13.1093 H         1 UNK         0.0697 
    123 H123      -48.8016  -22.6793   12.8947 H         1 UNK         0.0825 
    124 H124      -50.0205  -21.4573   13.2103 H         1 UNK         0.0825 
    125 H125      -49.9949  -22.2807   11.6602 H         1 UNK         0.0825 
    126 H126      -49.7580  -24.8804   12.0788 H         1 UNK         0.3029 
    127 H127      -51.5403  -27.9274   12.4932 H         1 UNK         0.0897 
    128 H128      -52.7149  -27.0672   10.5463 H         1 UNK         0.0792 
    129 H129      -51.2988  -27.9233    9.9610 H         1 UNK         0.0792 
    130 H130      -51.3189  -26.1574   10.0173 H         1 UNK         0.0792 
    131 H131      -49.1620  -27.2967   11.0581 H         1 UNK         0.3086 
    132 H132      -46.9492  -27.7232   13.8482 H         1 UNK         0.0583 
    133 H133      -45.9532  -29.3452   12.3446 H         1 UNK         0.1020 
    134 H134      -47.4348  -29.9895   12.9686 H         1 UNK         0.1020 
    135 H135      -48.5898  -31.6509   10.9981 H         1 UNK         0.0694 
    136 H136      -49.4796  -30.3648   11.7802 H         1 UNK         0.0694 
    137 H137      -46.1877  -27.0408   11.2893 H         1 UNK         0.2989 
    138 H138      -46.7301  -23.5871   11.2433 H         1 UNK         0.1055 
    139 H139      -44.8573  -23.6137   12.8557 H         1 UNK         0.0806 
    140 H140      -44.2567  -23.3477   11.2271 H         1 UNK         0.0806 
    141 H141      -44.0786  -24.9276   11.9899 H         1 UNK         0.0806 
    142 H142      -46.5244  -24.4289    9.2506 H         1 UNK         0.3061 
    143 H143      -44.3677  -26.2430    7.5385 H         1 UNK         0.0734 
    144 H144      -45.9400  -27.9494    6.5910 H         1 UNK         0.0832 
    145 H145      -45.2442  -28.4809    8.1126 H         1 UNK         0.0832 
    146 H146      -46.8963  -27.8925    8.0704 H         1 UNK         0.0832 
    147 H147      -47.2431  -25.5467    7.2825 H         1 UNK         0.3156 
    148 H148      -46.5721  -22.2486    6.2829 H         1 UNK         0.0589 
    149 H149      -47.3278  -24.4520    4.2840 H         1 UNK         0.0808 
    150 H150      -47.6799  -22.7311    4.1109 H         1 UNK         0.0808 
    151 H151      -46.0191  -23.2964    4.0807 H         1 UNK         0.0808 
    152 H152      -48.9463  -23.8023    6.0548 H         1 UNK         0.3098 
    153 H153      -49.8831  -23.9429    9.4402 H         1 UNK         0.0720 
    154 H154      -51.8902  -22.6736    8.7449 H         1 UNK         0.0791 
    155 H155      -51.0562  -22.0761    7.3091 H         1 UNK         0.0791 
    156 H156      -50.5241  -21.5844    8.9116 H         1 UNK         0.0791 
    157 H157      -51.4082  -24.5877    7.1797 H         1 UNK         0.3028 
@<TRIPOS>BOND
     1    1    2 1    
     2    1   82 1    
     3    1   83 1    
     4    1   84 1    
     5    2    3 2    
     6    2    4 am   BACKBONE|DICT|INTERRES
     7    4    5 1    
     8    4   85 1    
     9    5    6 1    
    10    5   80 1    
    11    5   86 1    
    12    6    7 1    
    13    6   87 1    
    14    6   88 1    
    15    7    8 1    
    16    8    9 1    
    17    8   89 1    
    18    8   90 1    
    19    9   10 ar   
    20    9   14 ar   
    21   10   11 ar   
    22   10   91 1    
    23   11   12 ar   
    24   11   58 1    
    25   12   13 ar   
    26   12   92 1    
    27   13   14 ar   
    28   13   15 1    
    29   14   93 1    
    30   15   16 1    
    31   15   94 1    
    32   15   95 1    
    33   16   17 1    
    34   17   18 1    
    35   17   96 1    
    36   17   97 1    
    37   18   19 1    
    38   18   22 1    
    39   18   98 1    
    40   19   20 am   BACKBONE|DICT|INTERRES
    41   19   21 2    
    42   20   99 1    
    43   20  100 1    
    44   22   23 am   BACKBONE|DICT|INTERRES
    45   22  101 1    
    46   23   24 2    
    47   23   25 1    
    48   25   26 1    
    49   25   27 1    
    50   25  102 1    
    51   26  103 1    
    52   26  104 1    
    53   26  105 1    
    54   27   28 am   BACKBONE|DICT|INTERRES
    55   27  106 1    
    56   28   29 2    
    57   28   30 1    
    58   30   31 1    
    59   30   32 1    
    60   30  107 1    
    61   31  108 1    
    62   31  109 1    
    63   31  110 1    
    64   32   33 am   BACKBONE|DICT|INTERRES
    65   32  111 1    
    66   33   34 2    
    67   33   35 1    
    68   35   36 1    
    69   35   37 1    
    70   35  112 1    
    71   36  113 1    
    72   36  114 1    
    73   36  115 1    
    74   37   38 am   BACKBONE|DICT|INTERRES
    75   37  116 1    
    76   38   39 2    
    77   38   40 1    
    78   40   41 1    
    79   40   42 1    
    80   40  117 1    
    81   41  118 1    
    82   41  119 1    
    83   41  120 1    
    84   42   43 am   BACKBONE|DICT|INTERRES
    85   42  121 1    
    86   43   44 2    
    87   43   45 1    
    88   45   46 1    
    89   45   47 1    
    90   45  122 1    
    91   46  123 1    
    92   46  124 1    
    93   46  125 1    
    94   47   48 am   BACKBONE|DICT|INTERRES
    95   47  126 1    
    96   48   49 2    
    97   48   50 1    
    98   50   51 1    
    99   50   52 1    
   100   50  127 1    
   101   51  128 1    
   102   51  129 1    
   103   51  130 1    
   104   52   53 am   BACKBONE|DICT|INTERRES
   105   52  131 1    
   106   53   54 2    
   107   53   55 1    
   108   55   56 1    
   109   55   59 1    
   110   55  132 1    
   111   56   57 1    
   112   56  133 1    
   113   56  134 1    
   114   57   58 1    
   115   58  135 1    
   116   58  136 1    
   117   59   60 am   BACKBONE|DICT|INTERRES
   118   59  137 1    
   119   60   61 2    
   120   60   62 1    
   121   62   63 1    
   122   62   64 1    
   123   62  138 1    
   124   63  139 1    
   125   63  140 1    
   126   63  141 1    
   127   64   65 am   BACKBONE|DICT|INTERRES
   128   64  142 1    
   129   65   66 2    
   130   65   67 1    
   131   67   68 1    
   132   67   69 1    
   133   67  143 1    
   134   68  144 1    
   135   68  145 1    
   136   68  146 1    
   137   69   70 am   BACKBONE|DICT|INTERRES
   138   69  147 1    
   139   70   71 2    
   140   70   72 1    
   141   72   73 1    
   142   72   74 1    
   143   72  148 1    
   144   73  149 1    
   145   73  150 1    
   146   73  151 1    
   147   74   75 am   BACKBONE|DICT|INTERRES
   148   74  152 1    
   149   75   76 2    
   150   75   77 1    
   151   77   78 1    
   152   77   79 1    
   153   77  153 1    
   154   78  154 1    
   155   78  155 1    
   156   78  156 1    
   157   79   80 am   BACKBONE|DICT|INTERRES
   158   79  157 1    
   159   80   81 2    
@<TRIPOS>SUBSTRUCTURE
     1 UNK         1 GROUP             0       ****    0 ROOT    
