@<TRIPOS>MOLECULE
3R207
157   159    1
SMALL
USER_CHARGES


@<TRIPOS>ATOM
      1 CA        -49.6751  -23.9716    2.5759 C.3       0 UNK        -0.1975 
      2 C         -49.9167  -24.8761    3.7756 C.2       0 UNK         0.4852 
      3 O         -49.4955  -24.5425    4.8829 O.2       0 UNK        -0.5216 
      4 N         -50.5959  -26.0107    3.5595 N.am      1 UNK        -0.4461 
      5 CA        -50.8941  -27.0301    4.5732 C.3       1 UNK         0.0864 
      6 C6        -51.9301  -28.0567    4.0514 C.3       14 UNK        -0.0898 
      7 S7        -53.5797  -27.2891    3.9029 S.3       14 UNK        -0.2598 
      8 C8        -54.5078  -28.0676    5.2703 C.3       14 UNK         0.0286 
      9 C9        -53.7672  -28.0244    6.6026 C.ar      14 UNK        -0.0844 
     10 C10       -53.4361  -26.8022    7.1964 C.ar      14 UNK        -0.0881 
     11 C11       -52.7220  -26.7700    8.3979 C.ar      14 UNK        -0.0643 
     12 C12       -52.3710  -27.9688    9.0259 C.ar      14 UNK        -0.0930 
     13 C13       -52.7170  -29.1960    8.4542 C.ar      14 UNK        -0.0827 
     14 C14       -53.4060  -29.2164    7.2386 C.ar      14 UNK        -0.1249 
     15 C15       -52.3340  -30.5036    9.1326 C.3       14 UNK         0.0141 
     16 S16       -53.7613  -31.2862    9.9444 S.3       14 UNK        -0.2313 
     17 C17       -53.9257  -30.2781   11.4562 C.3       14 UNK        -0.0915 
     18 CA        -53.8196  -31.1251   12.7558 C.3       13 UNK         0.0968 
     19 C         -52.3528  -31.3556   13.2181 C.2       13 UNK         0.5732 
     20 N         -51.5274  -31.9676   12.3806 N.am      13 UNK        -0.7310 
     21 O         -51.9532  -31.0087   14.3284 O.2       13 UNK        -0.5035 
     22 N         -54.6258  -30.5173   13.8196 N.am      13 UNK        -0.4233 
     23 C         -55.6613  -31.0877   14.4485 C.2       13 UNK         0.4989 
     24 O         -56.0836  -32.2159   14.1905 O.2       13 UNK        -0.4996 
     25 CA        -56.3572  -30.2787   15.5634 C.3       12 UNK         0.0216 
     26 CB        -55.9670  -30.8273   16.9462 C.3       12 UNK        -0.1964 
     27 N         -56.0652  -28.8436   15.5228 N.am      12 UNK        -0.4276 
     28 C         -56.4950  -27.9923   14.5810 C.2       12 UNK         0.5020 
     29 O         -57.2979  -28.2980   13.6987 O.2       12 UNK        -0.5489 
     30 CA        -55.9119  -26.5653   14.6083 C.3       11 UNK         0.0294 
     31 CB        -56.9222  -25.5832   15.2231 C.3       11 UNK        -0.2019 
     32 N         -54.6298  -26.4393   15.3151 N.am      11 UNK        -0.4493 
     33 C         -53.4924  -27.0729   14.9984 C.2       11 UNK         0.4932 
     34 O         -53.3896  -27.8681   14.0637 O.2       11 UNK        -0.5029 
     35 CA        -52.2792  -26.7516   15.8840 C.3       10 UNK         0.0280 
     36 CB        -51.1506  -27.7885   15.7475 C.3       10 UNK        -0.1976 
     37 N         -51.7553  -25.4297   15.5549 N.am      10 UNK        -0.4242 
     38 C         -52.2496  -24.2670   16.0007 C.2       10 UNK         0.5072 
     39 O         -53.2250  -24.1899   16.7522 O.2       10 UNK        -0.5224 
     40 CA        -51.5388  -22.9871   15.5164 C.3       9 UNK         0.0343 
     41 CB        -51.8655  -21.7480   16.3766 C.3       9 UNK        -0.2003 
     42 N         -50.0890  -23.1650   15.3718 N.am      9 UNK        -0.4272 
     43 C         -49.2007  -23.4761   16.3303 C.2       9 UNK         0.4988 
     44 O         -49.4858  -23.5723   17.5247 O.2       9 UNK        -0.5108 
     45 CA        -47.7490  -23.7635   15.8953 C.3       8 UNK         0.0248 
     46 CB        -47.4222  -25.2531   16.0957 C.3       8 UNK        -0.2001 
     47 N         -47.4590  -23.3960   14.5058 N.am      8 UNK        -0.4140 
     48 C         -47.3255  -22.1383   14.0615 C.2       8 UNK         0.5028 
     49 O         -47.3514  -21.1473   14.7922 O.2       8 UNK        -0.5428 
     50 CA        -47.1783  -21.9492   12.5420 C.3       7 UNK         0.0264 
     51 CB        -45.7075  -22.0943   12.1205 C.3       7 UNK        -0.1988 
     52 N         -48.0085  -22.8709   11.7585 N.am      7 UNK        -0.4454 
     53 C         -49.3504  -22.9072   11.7779 C.2       7 UNK         0.5027 
     54 O         -50.0434  -22.1424   12.4489 O.2       7 UNK        -0.5083 
     55 CA        -50.0347  -24.0191   10.9564 C.3       6 UNK         0.0844 
     56 C56       -50.1313  -23.6244    9.4589 C.3       14 UNK        -0.0967 
     57 S57       -50.6787  -24.9557    8.3361 S.3       14 UNK        -0.2604 
     58 C58       -52.2963  -25.4445    9.0053 C.3       14 UNK         0.0134 
     59 N         -49.4010  -25.3212   11.1865 N.am      6 UNK        -0.4116 
     60 C         -49.3844  -25.9567   12.3675 C.2       5 UNK         0.5034 
     61 O         -49.9432  -25.5392   13.3818 O.2       5 UNK        -0.5045 
     62 CA        -48.5610  -27.2489   12.4483 C.3       5 UNK         0.0224 
     63 CB        -49.3869  -28.4624   11.9862 C.3       5 UNK        -0.1978 
     64 N         -47.3278  -27.1472   11.6644 N.am      5 UNK        -0.4737 
     65 C         -46.2770  -26.3902   12.0111 C.2       4 UNK         0.5027 
     66 O         -46.2206  -25.7419   13.0556 O.2       4 UNK        -0.5211 
     67 CA        -45.1112  -26.3088   11.0093 C.3       4 UNK         0.0297 
     68 CB        -44.1668  -27.5084   11.1825 C.3       4 UNK        -0.1993 
     69 N         -45.5539  -26.2283    9.6143 N.am      4 UNK        -0.4486 
     70 C         -46.2520  -25.2060    9.1006 C.2       3 UNK         0.4961 
     71 O         -46.5593  -24.2005    9.7389 O.2       3 UNK        -0.5105 
     72 CA        -46.7280  -25.3348    7.6430 C.3       3 UNK         0.0299 
     73 CB        -45.6606  -24.7914    6.6806 C.3       3 UNK        -0.1972 
     74 N         -47.1341  -26.6794    7.2124 N.am      3 UNK        -0.4305 
     75 C         -47.9781  -27.4952    7.8594 C.2       2 UNK         0.5006 
     76 O         -48.3972  -27.2966    8.9995 O.2       2 UNK        -0.5106 
     77 CA        -48.5038  -28.6949    7.0635 C.3       2 UNK         0.0296 
     78 CB        -48.9159  -29.8631    7.9757 C.3       2 UNK        -0.2002 
     79 N         -49.6688  -28.2253    6.3185 N.am      2 UNK        -0.4032 
     80 C         -49.6162  -27.7313    5.0753 C.2       1 UNK         0.5000 
     81 O         -48.6213  -27.8115    4.3476 O.2       1 UNK        -0.5238 
     82 H82       -50.1091  -24.3791    1.6630 H         1 UNK         0.0889 
     83 H83       -48.6053  -23.8420    2.4144 H         1 UNK         0.0889 
     84 H84       -50.1150  -22.9903    2.7518 H         1 UNK         0.0889 
     85 H85       -50.9072  -26.2288    2.6244 H         1 UNK         0.3028 
     86 H86       -51.3181  -26.5060    5.4321 H         1 UNK         0.0864 
     87 H87       -51.9988  -28.9276    4.7054 H         1 UNK         0.0720 
     88 H88       -51.6322  -28.4448    3.0757 H         1 UNK         0.0720 
     89 H89       -55.4677  -27.5612    5.3794 H         1 UNK         0.0814 
     90 H90       -54.7375  -29.0969    4.9904 H         1 UNK         0.0814 
     91 H91       -53.7039  -25.8768    6.7045 H         1 UNK         0.1469 
     92 H92       -51.8204  -27.9424    9.9557 H         1 UNK         0.1381 
     93 H93       -53.6637  -30.1669    6.7911 H         1 UNK         0.1206 
     94 H94       -51.9315  -31.1910    8.3872 H         1 UNK         0.0813 
     95 H95       -51.5409  -30.3486    9.8654 H         1 UNK         0.0813 
     96 H96       -53.2084  -29.4555   11.4624 H         1 UNK         0.0638 
     97 H97       -54.9072  -29.8047   11.3942 H         1 UNK         0.0638 
     98 H98       -54.2181  -32.1203   12.5519 H         1 UNK         0.0568 
     99 H99       -50.5764  -32.1383   12.6655 H         1 UNK         0.3450 
    100 H100      -51.8491  -32.2704   11.4748 H         1 UNK         0.3450 
    101 H101      -54.3045  -29.5989   14.1101 H         1 UNK         0.2987 
    102 H102      -57.4338  -30.4081   15.4339 H         1 UNK         0.0766 
    103 H103      -56.2074  -31.8884   17.0273 H         1 UNK         0.0798 
    104 H104      -56.5047  -30.3147   17.7441 H         1 UNK         0.0798 
    105 H105      -54.8980  -30.7209   17.1363 H         1 UNK         0.0798 
    106 H106      -55.4203  -28.4902   16.2144 H         1 UNK         0.3198 
    107 H107      -55.7386  -26.2740   13.5701 H         1 UNK         0.0843 
    108 H108      -57.1155  -25.8074   16.2729 H         1 UNK         0.0831 
    109 H109      -57.8783  -25.6268   14.6992 H         1 UNK         0.0831 
    110 H110      -56.5670  -24.5544   15.1583 H         1 UNK         0.0831 
    111 H111      -54.5845  -25.7564   16.0639 H         1 UNK         0.3133 
    112 H112      -52.6083  -26.7595   16.9253 H         1 UNK         0.0566 
    113 H113      -50.7605  -27.8303   14.7316 H         1 UNK         0.0814 
    114 H114      -51.5067  -28.7882   15.9997 H         1 UNK         0.0814 
    115 H115      -50.3193  -27.5604   16.4147 H         1 UNK         0.0814 
    116 H116      -51.0058  -25.4042   14.8646 H         1 UNK         0.3091 
    117 H117      -51.9181  -22.7974   14.5114 H         1 UNK         0.0702 
    118 H118      -51.3543  -20.8610   16.0024 H         1 UNK         0.0785 
    119 H119      -51.5765  -21.8888   17.4184 H         1 UNK         0.0785 
    120 H120      -52.9351  -21.5348   16.3632 H         1 UNK         0.0785 
    121 H121      -49.7503  -23.1122   14.4190 H         1 UNK         0.2998 
    122 H122      -47.0941  -23.1807   16.5462 H         1 UNK         0.0697 
    123 H123      -46.3821  -25.4686   15.8502 H         1 UNK         0.0825 
    124 H124      -48.0524  -25.8895   15.4739 H         1 UNK         0.0825 
    125 H125      -47.5781  -25.5541   17.1325 H         1 UNK         0.0825 
    126 H126      -47.3449  -24.1608   13.8483 H         1 UNK         0.3029 
    127 H127      -47.5025  -20.9334   12.3057 H         1 UNK         0.0897 
    128 H128      -45.0701  -21.4074   12.6790 H         1 UNK         0.0792 
    129 H129      -45.5750  -21.8709   11.0617 H         1 UNK         0.0792 
    130 H130      -45.3354  -23.1042   12.2973 H         1 UNK         0.0792 
    131 H131      -47.5109  -23.5012   11.1302 H         1 UNK         0.3086 
    132 H132      -51.0528  -24.0961   11.3418 H         1 UNK         0.0583 
    133 H133      -50.8056  -22.7746    9.3379 H         1 UNK         0.1020 
    134 H134      -49.1602  -23.2877    9.0904 H         1 UNK         0.1020 
    135 H135      -52.2481  -25.5459   10.0893 H         1 UNK         0.0694 
    136 H136      -53.0320  -24.6674    8.7932 H         1 UNK         0.0694 
    137 H137      -48.9516  -25.7610   10.3905 H         1 UNK         0.2989 
    138 H138      -48.2901  -27.4027   13.4950 H         1 UNK         0.1055 
    139 H139      -50.3072  -28.5586   12.5633 H         1 UNK         0.0806 
    140 H140      -48.8299  -29.3909   12.1108 H         1 UNK         0.0806 
    141 H141      -49.6752  -28.3855   10.9391 H         1 UNK         0.0806 
    142 H142      -47.3548  -27.5463   10.7324 H         1 UNK         0.3061 
    143 H143      -44.5497  -25.3990   11.2327 H         1 UNK         0.0734 
    144 H144      -44.6617  -28.4517   10.9480 H         1 UNK         0.0832 
    145 H145      -43.2893  -27.4194   10.5418 H         1 UNK         0.0832 
    146 H146      -43.8090  -27.5757   12.2110 H         1 UNK         0.0832 
    147 H147      -45.3581  -27.0201    9.0195 H         1 UNK         0.3156 
    148 H148      -47.6138  -24.7042    7.5453 H         1 UNK         0.0589 
    149 H149      -46.0402  -24.7331    5.6601 H         1 UNK         0.0808 
    150 H150      -44.7667  -25.4162    6.6737 H         1 UNK         0.0808 
    151 H151      -45.3531  -23.7841    6.9660 H         1 UNK         0.0808 
    152 H152      -46.8839  -26.9300    6.2657 H         1 UNK         0.3098 
    153 H153      -47.7230  -29.0499    6.3874 H         1 UNK         0.0720 
    154 H154      -48.0580  -30.2421    8.5322 H         1 UNK         0.0791 
    155 H155      -49.3246  -30.6927    7.3988 H         1 UNK         0.0791 
    156 H156      -49.6653  -29.5598    8.7048 H         1 UNK         0.0791 
    157 H157      -50.5123  -28.0896    6.8606 H         1 UNK         0.3028 
@<TRIPOS>BOND
     1    1    2 1    
     2    1   82 1    
     3    1   83 1    
     4    1   84 1    
     5    2    3 2    
     6    2    4 am   BACKBONE|DICT|INTERRES
     7    4    5 1    
     8    4   85 1    
     9    5    6 1    
    10    5   80 1    
    11    5   86 1    
    12    6    7 1    
    13    6   87 1    
    14    6   88 1    
    15    7    8 1    
    16    8    9 1    
    17    8   89 1    
    18    8   90 1    
    19    9   10 ar   
    20    9   14 ar   
    21   10   11 ar   
    22   10   91 1    
    23   11   12 ar   
    24   11   58 1    
    25   12   13 ar   
    26   12   92 1    
    27   13   14 ar   
    28   13   15 1    
    29   14   93 1    
    30   15   16 1    
    31   15   94 1    
    32   15   95 1    
    33   16   17 1    
    34   17   18 1    
    35   17   96 1    
    36   17   97 1    
    37   18   19 1    
    38   18   22 1    
    39   18   98 1    
    40   19   20 am   BACKBONE|DICT|INTERRES
    41   19   21 2    
    42   20   99 1    
    43   20  100 1    
    44   22   23 am   BACKBONE|DICT|INTERRES
    45   22  101 1    
    46   23   24 2    
    47   23   25 1    
    48   25   26 1    
    49   25   27 1    
    50   25  102 1    
    51   26  103 1    
    52   26  104 1    
    53   26  105 1    
    54   27   28 am   BACKBONE|DICT|INTERRES
    55   27  106 1    
    56   28   29 2    
    57   28   30 1    
    58   30   31 1    
    59   30   32 1    
    60   30  107 1    
    61   31  108 1    
    62   31  109 1    
    63   31  110 1    
    64   32   33 am   BACKBONE|DICT|INTERRES
    65   32  111 1    
    66   33   34 2    
    67   33   35 1    
    68   35   36 1    
    69   35   37 1    
    70   35  112 1    
    71   36  113 1    
    72   36  114 1    
    73   36  115 1    
    74   37   38 am   BACKBONE|DICT|INTERRES
    75   37  116 1    
    76   38   39 2    
    77   38   40 1    
    78   40   41 1    
    79   40   42 1    
    80   40  117 1    
    81   41  118 1    
    82   41  119 1    
    83   41  120 1    
    84   42   43 am   BACKBONE|DICT|INTERRES
    85   42  121 1    
    86   43   44 2    
    87   43   45 1    
    88   45   46 1    
    89   45   47 1    
    90   45  122 1    
    91   46  123 1    
    92   46  124 1    
    93   46  125 1    
    94   47   48 am   BACKBONE|DICT|INTERRES
    95   47  126 1    
    96   48   49 2    
    97   48   50 1    
    98   50   51 1    
    99   50   52 1    
   100   50  127 1    
   101   51  128 1    
   102   51  129 1    
   103   51  130 1    
   104   52   53 am   BACKBONE|DICT|INTERRES
   105   52  131 1    
   106   53   54 2    
   107   53   55 1    
   108   55   56 1    
   109   55   59 1    
   110   55  132 1    
   111   56   57 1    
   112   56  133 1    
   113   56  134 1    
   114   57   58 1    
   115   58  135 1    
   116   58  136 1    
   117   59   60 am   BACKBONE|DICT|INTERRES
   118   59  137 1    
   119   60   61 2    
   120   60   62 1    
   121   62   63 1    
   122   62   64 1    
   123   62  138 1    
   124   63  139 1    
   125   63  140 1    
   126   63  141 1    
   127   64   65 am   BACKBONE|DICT|INTERRES
   128   64  142 1    
   129   65   66 2    
   130   65   67 1    
   131   67   68 1    
   132   67   69 1    
   133   67  143 1    
   134   68  144 1    
   135   68  145 1    
   136   68  146 1    
   137   69   70 am   BACKBONE|DICT|INTERRES
   138   69  147 1    
   139   70   71 2    
   140   70   72 1    
   141   72   73 1    
   142   72   74 1    
   143   72  148 1    
   144   73  149 1    
   145   73  150 1    
   146   73  151 1    
   147   74   75 am   BACKBONE|DICT|INTERRES
   148   74  152 1    
   149   75   76 2    
   150   75   77 1    
   151   77   78 1    
   152   77   79 1    
   153   77  153 1    
   154   78  154 1    
   155   78  155 1    
   156   78  156 1    
   157   79   80 am   BACKBONE|DICT|INTERRES
   158   79  157 1    
   159   80   81 2    
@<TRIPOS>SUBSTRUCTURE
     1 UNK         1 GROUP             0       ****    0 ROOT    
