@<TRIPOS>MOLECULE
3R207
157   159    1
SMALL
USER_CHARGES


@<TRIPOS>ATOM
      1 CA        -49.7167  -31.1663   10.6877 C.3       0 UNK        -0.1975 
      2 C         -49.6387  -30.8847    9.1971 C.2       0 UNK         0.4852 
      3 O         -48.8496  -31.5180    8.4951 O.2       0 UNK        -0.5216 
      4 N         -50.4366  -29.9295    8.7028 N.am      1 UNK        -0.4461 
      5 CA        -50.5878  -29.5893    7.2770 C.3       1 UNK         0.0864 
      6 C6        -51.9625  -28.9416    6.9617 C.3       14 UNK        -0.0898 
      7 S7        -53.4030  -29.8680    7.6037 S.3       14 UNK        -0.2598 
      8 C8        -54.8025  -28.9487    6.8732 C.3       14 UNK         0.0286 
      9 C9        -54.9219  -27.5391    7.4384 C.ar      14 UNK        -0.0844 
     10 C10       -54.2037  -26.4942    6.8533 C.ar      14 UNK        -0.0881 
     11 C11       -54.2339  -25.2120    7.4035 C.ar      14 UNK        -0.0643 
     12 C12       -55.0255  -24.9639    8.5281 C.ar      14 UNK        -0.0930 
     13 C13       -55.7841  -25.9908    9.1029 C.ar      14 UNK        -0.0827 
     14 C14       -55.7307  -27.2765    8.5493 C.ar      14 UNK        -0.1249 
     15 C15       -56.6650  -25.6928   10.3143 C.3       14 UNK         0.0141 
     16 S16       -56.3903  -26.8138   11.7295 S.3       14 UNK        -0.2313 
     17 C17       -54.5869  -26.7079   11.9622 C.3       14 UNK        -0.0915 
     18 CA        -53.9031  -28.0585   11.5911 C.3       13 UNK         0.0968 
     19 C         -52.5766  -27.8884   10.8004 C.2       13 UNK         0.5732 
     20 N         -52.5714  -27.0658    9.7636 N.am      13 UNK        -0.7310 
     21 O         -51.5589  -28.5142   11.0794 O.2       13 UNK        -0.5035 
     22 N         -53.7599  -28.9033   12.7844 N.am      13 UNK        -0.4233 
     23 C         -53.6546  -30.2369   12.7854 C.2       13 UNK         0.4989 
     24 O         -53.7355  -30.9455   11.7803 O.2       13 UNK        -0.4996 
     25 CA        -53.4298  -30.8637   14.1684 C.3       12 UNK         0.0216 
     26 CB        -53.5143  -32.4064   14.1866 C.3       12 UNK        -0.1964 
     27 N         -52.1970  -30.3426   14.7692 N.am      12 UNK        -0.4276 
     28 C         -50.9228  -30.7007   14.5419 C.2       12 UNK         0.5020 
     29 O         -50.5878  -31.6393   13.8197 O.2       12 UNK        -0.5489 
     30 CA        -49.8104  -29.8812   15.2382 C.3       11 UNK         0.0294 
     31 CB        -48.9008  -29.2161   14.1908 C.3       11 UNK        -0.2019 
     32 N         -50.3028  -28.8427   16.1488 N.am      11 UNK        -0.4493 
     33 C         -50.9344  -29.0571   17.3134 C.2       11 UNK         0.4932 
     34 O         -51.0394  -30.1678   17.8332 O.2       11 UNK        -0.5029 
     35 CA        -51.6180  -27.8495   17.9893 C.3       10 UNK         0.0280 
     36 CB        -50.7997  -27.3825   19.2038 C.3       10 UNK        -0.1976 
     37 N         -51.8482  -26.7042   17.1011 N.am      10 UNK        -0.4242 
     38 C         -52.5436  -26.7068   15.9535 C.2       10 UNK         0.5072 
     39 O         -53.1791  -27.6772   15.5331 O.2       10 UNK        -0.5224 
     40 CA        -52.4628  -25.4371   15.0883 C.3       9 UNK         0.0343 
     41 CB        -53.7265  -24.5809   15.2640 C.3       9 UNK        -0.2003 
     42 N         -51.2777  -24.5930   15.2926 N.am      9 UNK        -0.4272 
     43 C         -49.9932  -24.9721   15.2072 C.2       9 UNK         0.4988 
     44 O         -49.6270  -26.1455   15.1175 O.2       9 UNK        -0.5108 
     45 CA        -48.9515  -23.8361   15.2149 C.3       8 UNK         0.0248 
     46 CB        -47.5037  -24.3573   15.1500 C.3       8 UNK        -0.2001 
     47 N         -49.1723  -22.9119   14.0997 N.am      8 UNK        -0.4140 
     48 C         -50.0997  -21.9448   14.0647 C.2       8 UNK         0.5028 
     49 O         -50.8538  -21.6900   15.0052 O.2       8 UNK        -0.5428 
     50 CA        -50.2462  -21.1759   12.7449 C.3       7 UNK         0.0264 
     51 CB        -49.0669  -20.2135   12.5246 C.3       7 UNK        -0.1988 
     52 N         -50.3482  -22.1074   11.6211 N.am      7 UNK        -0.4454 
     53 C         -51.4940  -22.6740   11.2110 C.2       7 UNK         0.5027 
     54 O         -52.5986  -22.3931   11.6780 O.2       7 UNK        -0.5083 
     55 CA        -51.4015  -23.7283   10.0852 C.3       6 UNK         0.0844 
     56 C56       -51.6017  -23.0454    8.7106 C.3       14 UNK        -0.0967 
     57 S57       -51.6587  -24.2178    7.3123 S.3       14 UNK        -0.2604 
     58 C58       -53.3963  -24.1118    6.7737 C.3       14 UNK         0.0134 
     59 N         -50.1596  -24.5105   10.1586 N.am      6 UNK        -0.4116 
     60 C         -49.8507  -25.3369   11.1728 C.2       5 UNK         0.5034 
     61 O         -50.6230  -25.5836   12.0947 O.2       5 UNK        -0.5045 
     62 CA        -48.4371  -25.9543   11.2078 C.3       5 UNK         0.0224 
     63 CB        -48.4416  -27.3703   10.6139 C.3       5 UNK        -0.1978 
     64 N         -47.4226  -25.1561   10.5169 N.am      5 UNK        -0.4737 
     65 C         -47.1122  -23.8841   10.8034 C.2       4 UNK         0.5027 
     66 O         -47.5832  -23.2696   11.7605 O.2       4 UNK        -0.5211 
     67 CA        -46.1790  -23.1462    9.8269 C.3       4 UNK         0.0297 
     68 CB        -44.7533  -23.0864   10.3958 C.3       4 UNK        -0.1993 
     69 N         -46.1400  -23.7221    8.4771 N.am      4 UNK        -0.4486 
     70 C         -47.1919  -23.9028    7.6633 C.2       3 UNK         0.4961 
     71 O         -48.3422  -23.5769    7.9547 O.2       3 UNK        -0.5105 
     72 CA        -46.9186  -24.5812    6.3073 C.3       3 UNK         0.0299 
     73 CB        -45.4912  -24.3184    5.7779 C.3       3 UNK        -0.1972 
     74 N         -47.1928  -26.0258    6.2913 N.am      3 UNK        -0.4305 
     75 C         -46.7607  -26.9640    7.1476 C.2       2 UNK         0.5006 
     76 O         -46.2060  -26.7238    8.2221 O.2       2 UNK        -0.5106 
     77 CA        -46.9339  -28.4273    6.6961 C.3       2 UNK         0.0296 
     78 CB        -45.7600  -29.3049    7.1678 C.3       2 UNK        -0.2002 
     79 N         -48.1817  -29.0343    7.1559 N.am      2 UNK        -0.4032 
     80 C         -49.4126  -28.7411    6.7191 C.2       1 UNK         0.5000 
     81 O         -49.6300  -27.8572    5.8872 O.2       1 UNK        -0.5238 
     82 H82       -49.4529  -32.2023   10.8983 H         1 UNK         0.0889 
     83 H83       -50.7231  -30.9985   11.0715 H         1 UNK         0.0889 
     84 H84       -49.0282  -30.5218   11.2314 H         1 UNK         0.0889 
     85 H85       -51.0323  -29.4199    9.3488 H         1 UNK         0.3028 
     86 H86       -50.5555  -30.5282    6.7200 H         1 UNK         0.0864 
     87 H87       -52.0901  -28.8432    5.8820 H         1 UNK         0.0720 
     88 H88       -51.9865  -27.9297    7.3612 H         1 UNK         0.0720 
     89 H89       -55.7231  -29.5022    7.0641 H         1 UNK         0.0814 
     90 H90       -54.6896  -28.9141    5.7886 H         1 UNK         0.0814 
     91 H91       -53.5840  -26.6862    5.9880 H         1 UNK         0.1469 
     92 H92       -55.0514  -23.9691    8.9518 H         1 UNK         0.1381 
     93 H93       -56.3025  -28.0776    8.9977 H         1 UNK         0.1206 
     94 H94       -57.7107  -25.7615   10.0120 H         1 UNK         0.0813 
     95 H95       -56.5137  -24.6682   10.6578 H         1 UNK         0.0813 
     96 H96       -54.2060  -25.8610   11.3901 H         1 UNK         0.0638 
     97 H97       -54.3979  -26.4464   13.0025 H         1 UNK         0.0638 
     98 H98       -54.5455  -28.6003   10.8945 H         1 UNK         0.0568 
     99 H99       -53.4247  -26.6253    9.4498 H         1 UNK         0.3450 
    100 H100      -51.7187  -26.9207    9.2528 H         1 UNK         0.3450 
    101 H101      -53.6432  -28.4121   13.6631 H         1 UNK         0.2987 
    102 H102      -54.2400  -30.4999   14.8028 H         1 UNK         0.0766 
    103 H103      -52.8098  -32.8671   13.4938 H         1 UNK         0.0798 
    104 H104      -53.3179  -32.8041   15.1821 H         1 UNK         0.0798 
    105 H105      -54.5105  -32.7391   13.8932 H         1 UNK         0.0798 
    106 H106      -52.3363  -29.5131   15.3374 H         1 UNK         0.3198 
    107 H107      -49.2101  -30.5829   15.8208 H         1 UNK         0.0843 
    108 H108      -48.4395  -29.9603   13.5412 H         1 UNK         0.0831 
    109 H109      -48.0940  -28.6535   14.6610 H         1 UNK         0.0831 
    110 H110      -49.4623  -28.5280   13.5566 H         1 UNK         0.0831 
    111 H111      -50.2154  -27.8854   15.8140 H         1 UNK         0.3133 
    112 H112      -52.5946  -28.1877   18.3411 H         1 UNK         0.0566 
    113 H113      -51.3135  -26.5915   19.7504 H         1 UNK         0.0814 
    114 H114      -50.6367  -28.2029   19.9043 H         1 UNK         0.0814 
    115 H115      -49.8189  -27.0071   18.9086 H         1 UNK         0.0814 
    116 H116      -51.3553  -25.8545   17.3337 H         1 UNK         0.3091 
    117 H117      -52.4210  -25.7737   14.0516 H         1 UNK         0.0702 
    118 H118      -53.7548  -23.7669   14.5387 H         1 UNK         0.0785 
    119 H119      -53.7817  -24.1452   16.2623 H         1 UNK         0.0785 
    120 H120      -54.6301  -25.1745   15.1169 H         1 UNK         0.0785 
    121 H121      -51.4455  -23.5933   15.3524 H         1 UNK         0.2998 
    122 H122      -49.0676  -23.2932   16.1552 H         1 UNK         0.0697 
    123 H123      -47.3123  -24.9050   14.2270 H         1 UNK         0.0825 
    124 H124      -47.2926  -25.0322   15.9805 H         1 UNK         0.0825 
    125 H125      -46.7855  -23.5393   15.2065 H         1 UNK         0.0825 
    126 H126      -48.6047  -23.0666   13.2680 H         1 UNK         0.3029 
    127 H127      -51.1584  -20.5776   12.8037 H         1 UNK         0.0897 
    128 H128      -49.1945  -19.6366   11.6085 H         1 UNK         0.0792 
    129 H129      -48.9894  -19.5011   13.3470 H         1 UNK         0.0792 
    130 H130      -48.1130  -20.7375   12.4584 H         1 UNK         0.0792 
    131 H131      -49.4737  -22.4404   11.2332 H         1 UNK         0.3086 
    132 H132      -52.2334  -24.4176   10.2374 H         1 UNK         0.0583 
    133 H133      -52.5142  -22.4466    8.7157 H         1 UNK         0.1020 
    134 H134      -50.7892  -22.3421    8.5169 H         1 UNK         0.1020 
    135 H135      -53.8151  -23.1280    6.9886 H         1 UNK         0.0694 
    136 H136      -53.4264  -24.2154    5.6880 H         1 UNK         0.0694 
    137 H137      -49.4820  -24.3446    9.4200 H         1 UNK         0.2989 
    138 H138      -48.1429  -26.0245   12.2568 H         1 UNK         0.1055 
    139 H139      -47.4426  -27.8065   10.6054 H         1 UNK         0.0806 
    140 H140      -48.8221  -27.3777    9.5923 H         1 UNK         0.0806 
    141 H141      -49.0722  -28.0314   11.2055 H         1 UNK         0.0806 
    142 H142      -46.9777  -25.5869    9.7106 H         1 UNK         0.3061 
    143 H143      -46.5558  -22.1257    9.7341 H         1 UNK         0.0734 
    144 H144      -44.7492  -22.6389   11.3910 H         1 UNK         0.0832 
    145 H145      -44.3126  -24.0803   10.4841 H         1 UNK         0.0832 
    146 H146      -44.0987  -22.4809    9.7686 H         1 UNK         0.0832 
    147 H147      -45.2454  -24.0698    8.1634 H         1 UNK         0.3156 
    148 H148      -47.6164  -24.1300    5.6001 H         1 UNK         0.0589 
    149 H149      -44.7298  -24.8403    6.3587 H         1 UNK         0.0808 
    150 H150      -45.3936  -24.6488    4.7437 H         1 UNK         0.0808 
    151 H151      -45.2524  -23.2538    5.7944 H         1 UNK         0.0808 
    152 H152      -47.7458  -26.3481    5.5072 H         1 UNK         0.3098 
    153 H153      -46.9337  -28.4446    5.6041 H         1 UNK         0.0720 
    154 H154      -45.8254  -30.3113    6.7538 H         1 UNK         0.0791 
    155 H155      -45.7310  -29.3918    8.2549 H         1 UNK         0.0791 
    156 H156      -44.8051  -28.8849    6.8487 H         1 UNK         0.0791 
    157 H157      -48.1019  -29.8086    7.8066 H         1 UNK         0.3028 
@<TRIPOS>BOND
     1    1    2 1    
     2    1   82 1    
     3    1   83 1    
     4    1   84 1    
     5    2    3 2    
     6    2    4 am   BACKBONE|DICT|INTERRES
     7    4    5 1    
     8    4   85 1    
     9    5    6 1    
    10    5   80 1    
    11    5   86 1    
    12    6    7 1    
    13    6   87 1    
    14    6   88 1    
    15    7    8 1    
    16    8    9 1    
    17    8   89 1    
    18    8   90 1    
    19    9   10 ar   
    20    9   14 ar   
    21   10   11 ar   
    22   10   91 1    
    23   11   12 ar   
    24   11   58 1    
    25   12   13 ar   
    26   12   92 1    
    27   13   14 ar   
    28   13   15 1    
    29   14   93 1    
    30   15   16 1    
    31   15   94 1    
    32   15   95 1    
    33   16   17 1    
    34   17   18 1    
    35   17   96 1    
    36   17   97 1    
    37   18   19 1    
    38   18   22 1    
    39   18   98 1    
    40   19   20 am   BACKBONE|DICT|INTERRES
    41   19   21 2    
    42   20   99 1    
    43   20  100 1    
    44   22   23 am   BACKBONE|DICT|INTERRES
    45   22  101 1    
    46   23   24 2    
    47   23   25 1    
    48   25   26 1    
    49   25   27 1    
    50   25  102 1    
    51   26  103 1    
    52   26  104 1    
    53   26  105 1    
    54   27   28 am   BACKBONE|DICT|INTERRES
    55   27  106 1    
    56   28   29 2    
    57   28   30 1    
    58   30   31 1    
    59   30   32 1    
    60   30  107 1    
    61   31  108 1    
    62   31  109 1    
    63   31  110 1    
    64   32   33 am   BACKBONE|DICT|INTERRES
    65   32  111 1    
    66   33   34 2    
    67   33   35 1    
    68   35   36 1    
    69   35   37 1    
    70   35  112 1    
    71   36  113 1    
    72   36  114 1    
    73   36  115 1    
    74   37   38 am   BACKBONE|DICT|INTERRES
    75   37  116 1    
    76   38   39 2    
    77   38   40 1    
    78   40   41 1    
    79   40   42 1    
    80   40  117 1    
    81   41  118 1    
    82   41  119 1    
    83   41  120 1    
    84   42   43 am   BACKBONE|DICT|INTERRES
    85   42  121 1    
    86   43   44 2    
    87   43   45 1    
    88   45   46 1    
    89   45   47 1    
    90   45  122 1    
    91   46  123 1    
    92   46  124 1    
    93   46  125 1    
    94   47   48 am   BACKBONE|DICT|INTERRES
    95   47  126 1    
    96   48   49 2    
    97   48   50 1    
    98   50   51 1    
    99   50   52 1    
   100   50  127 1    
   101   51  128 1    
   102   51  129 1    
   103   51  130 1    
   104   52   53 am   BACKBONE|DICT|INTERRES
   105   52  131 1    
   106   53   54 2    
   107   53   55 1    
   108   55   56 1    
   109   55   59 1    
   110   55  132 1    
   111   56   57 1    
   112   56  133 1    
   113   56  134 1    
   114   57   58 1    
   115   58  135 1    
   116   58  136 1    
   117   59   60 am   BACKBONE|DICT|INTERRES
   118   59  137 1    
   119   60   61 2    
   120   60   62 1    
   121   62   63 1    
   122   62   64 1    
   123   62  138 1    
   124   63  139 1    
   125   63  140 1    
   126   63  141 1    
   127   64   65 am   BACKBONE|DICT|INTERRES
   128   64  142 1    
   129   65   66 2    
   130   65   67 1    
   131   67   68 1    
   132   67   69 1    
   133   67  143 1    
   134   68  144 1    
   135   68  145 1    
   136   68  146 1    
   137   69   70 am   BACKBONE|DICT|INTERRES
   138   69  147 1    
   139   70   71 2    
   140   70   72 1    
   141   72   73 1    
   142   72   74 1    
   143   72  148 1    
   144   73  149 1    
   145   73  150 1    
   146   73  151 1    
   147   74   75 am   BACKBONE|DICT|INTERRES
   148   74  152 1    
   149   75   76 2    
   150   75   77 1    
   151   77   78 1    
   152   77   79 1    
   153   77  153 1    
   154   78  154 1    
   155   78  155 1    
   156   78  156 1    
   157   79   80 am   BACKBONE|DICT|INTERRES
   158   79  157 1    
   159   80   81 2    
@<TRIPOS>SUBSTRUCTURE
     1 UNK         1 GROUP             0       ****    0 ROOT    
