@<TRIPOS>MOLECULE
3R207
157   159    1
SMALL
USER_CHARGES


@<TRIPOS>ATOM
      1 CA        -54.5435  -27.5839    6.5076 C.3       0 UNK        -0.1975 
      2 C         -53.2328  -27.3682    7.2485 C.2       0 UNK         0.4852 
      3 O         -53.2476  -26.9105    8.3886 O.2       0 UNK        -0.5216 
      4 N         -52.1003  -27.6729    6.5987 N.am      1 UNK        -0.4461 
      5 CA        -50.7412  -27.6558    7.1661 C.3       1 UNK         0.0864 
      6 C6        -49.7325  -28.4140    6.2628 C.3       14 UNK        -0.0898 
      7 S7        -50.2662  -30.1176    5.8789 S.3       14 UNK        -0.2598 
      8 C8        -49.1812  -31.1169    6.9526 C.3       14 UNK         0.0286 
      9 C9        -49.4035  -30.8569    8.4385 C.ar      14 UNK        -0.0844 
     10 C10       -48.3301  -30.4839    9.2541 C.ar      14 UNK        -0.0881 
     11 C11       -48.5186  -30.2508   10.6214 C.ar      14 UNK        -0.0643 
     12 C12       -49.7969  -30.3962   11.1698 C.ar      14 UNK        -0.0930 
     13 C13       -50.8752  -30.7816   10.3690 C.ar      14 UNK        -0.0827 
     14 C14       -50.6721  -31.0157    9.0062 C.ar      14 UNK        -0.1249 
     15 C15       -52.2598  -30.9394   10.9761 C.3       14 UNK         0.0141 
     16 S16       -53.1649  -29.3718   10.8875 S.3       14 UNK        -0.2313 
     17 C17       -54.7299  -29.8037   11.7153 C.3       14 UNK        -0.0915 
     18 CA        -55.7841  -28.6731   11.5768 C.3       13 UNK         0.0968 
     19 C         -57.1615  -29.0866   12.1738 C.2       13 UNK         0.5732 
     20 N         -57.7552  -28.3337   13.0943 N.am      13 UNK        -0.7310 
     21 O         -57.7173  -30.1084   11.7772 O.2       13 UNK        -0.5035 
     22 N         -55.2710  -27.3994   12.0964 N.am      13 UNK        -0.4233 
     23 C         -55.6292  -26.1873   11.6602 C.2       13 UNK         0.4989 
     24 O         -56.4151  -25.9941   10.7306 O.2       13 UNK        -0.4996 
     25 CA        -55.0052  -24.9935   12.4090 C.3       12 UNK         0.0216 
     26 CB        -55.7668  -23.6699   12.1837 C.3       12 UNK        -0.1964 
     27 N         -54.8185  -25.2567   13.8427 N.am      12 UNK        -0.4276 
     28 C         -55.7701  -25.5418   14.7449 C.2       12 UNK         0.5020 
     29 O         -56.9697  -25.6230   14.4718 O.2       12 UNK        -0.5489 
     30 CA        -55.2884  -25.8106   16.1849 C.3       11 UNK         0.0294 
     31 CB        -56.4026  -26.3708   17.0950 C.3       11 UNK        -0.2019 
     32 N         -54.0954  -26.6644   16.2478 N.am      11 UNK        -0.4493 
     33 C         -53.9583  -27.9144   15.7747 C.2       11 UNK         0.4932 
     34 O         -54.8515  -28.5233   15.1857 O.2       11 UNK        -0.5029 
     35 CA        -52.5902  -28.5965   15.9722 C.3       10 UNK         0.0280 
     36 CB        -52.1898  -29.4227   14.7357 C.3       10 UNK        -0.1976 
     37 N         -51.5355  -27.6176   16.2444 N.am      10 UNK        -0.4242 
     38 C         -50.9559  -27.3920   17.4317 C.2       10 UNK         0.5072 
     39 O         -51.2386  -28.0110   18.4579 O.2       10 UNK        -0.5224 
     40 CA        -49.8842  -26.2859   17.5010 C.3       9 UNK         0.0343 
     41 CB        -48.4844  -26.9014   17.6624 C.3       9 UNK        -0.2003 
     42 N         -49.8899  -25.4073   16.3276 N.am      9 UNK        -0.4272 
     43 C         -50.7520  -24.3950   16.1430 C.2       9 UNK         0.4988 
     44 O         -51.5982  -24.0613   16.9726 O.2       9 UNK        -0.5108 
     45 CA        -50.7057  -23.6672   14.7840 C.3       8 UNK         0.0248 
     46 CB        -49.7261  -22.4849   14.8395 C.3       8 UNK        -0.2001 
     47 N         -50.3486  -24.5451   13.6646 N.am      8 UNK        -0.4140 
     48 C         -51.0396  -25.6413   13.3156 C.2       8 UNK         0.5028 
     49 O         -52.1037  -25.9600   13.8439 O.2       8 UNK        -0.5428 
     50 CA        -50.4344  -26.5817   12.2614 C.3       7 UNK         0.0264 
     51 CB        -51.1169  -26.3664   10.9082 C.3       7 UNK        -0.1988 
     52 N         -48.9839  -26.4691   12.0989 N.am      7 UNK        -0.4454 
     53 C         -48.0708  -26.6310   13.0693 C.2       7 UNK         0.5027 
     54 O         -48.3561  -26.9360   14.2280 O.2       7 UNK        -0.5083 
     55 CA        -46.5961  -26.3547   12.7033 C.3       6 UNK         0.0844 
     56 C56       -45.8278  -27.6682   12.4133 C.3       14 UNK        -0.0967 
     57 S57       -46.3636  -28.4920   10.8707 S.3       14 UNK        -0.2604 
     58 C58       -47.3466  -29.8811   11.5234 C.3       14 UNK         0.0134 
     59 N         -46.4158  -25.3798   11.6211 N.am      6 UNK        -0.4116 
     60 C         -46.9102  -24.1383   11.5441 C.2       5 UNK         0.5034 
     61 O         -47.6346  -23.6390   12.4067 O.2       5 UNK        -0.5045 
     62 CA        -46.5778  -23.3185   10.2819 C.3       5 UNK         0.0224 
     63 CB        -45.3542  -22.4141   10.5226 C.3       5 UNK        -0.1978 
     64 N         -46.4308  -24.0962    9.0381 N.am      5 UNK        -0.4737 
     65 C         -45.5014  -25.0071    8.7029 C.2       4 UNK         0.5027 
     66 O         -44.5894  -25.3510    9.4543 O.2       4 UNK        -0.5211 
     67 CA        -45.6137  -25.6786    7.3213 C.3       4 UNK         0.0297 
     68 CB        -45.8564  -27.1908    7.4672 C.3       4 UNK        -0.1993 
     69 N         -46.6872  -25.1045    6.5083 N.am      4 UNK        -0.4486 
     70 C         -46.5275  -24.0968    5.6380 C.2       3 UNK         0.4961 
     71 O         -45.4386  -23.5832    5.3801 O.2       3 UNK        -0.5105 
     72 CA        -47.7893  -23.5557    4.9370 C.3       3 UNK         0.0299 
     73 CB        -47.9118  -24.1499    3.5245 C.3       3 UNK        -0.1972 
     74 N         -49.0325  -23.8068    5.6714 N.am      3 UNK        -0.4305 
     75 C         -49.3386  -23.2901    6.8703 C.2       2 UNK         0.5006 
     76 O         -48.6170  -22.5039    7.4835 O.2       2 UNK        -0.5106 
     77 CA        -50.6382  -23.7858    7.5258 C.3       2 UNK         0.0296 
     78 CB        -51.8209  -22.8839    7.1401 C.3       2 UNK        -0.2002 
     79 N         -50.9656  -25.1817    7.2134 N.am      2 UNK        -0.4032 
     80 C         -50.2011  -26.2453    7.5066 C.2       1 UNK         0.5000 
     81 O         -49.0842  -26.1395    8.0163 O.2       1 UNK        -0.5238 
     82 H82       -54.3864  -27.9858    5.5068 H         1 UNK         0.0889 
     83 H83       -55.0826  -26.6414    6.4162 H         1 UNK         0.0889 
     84 H84       -55.1714  -28.2829    7.0595 H         1 UNK         0.0889 
     85 H85       -52.1607  -28.0469    5.6620 H         1 UNK         0.3028 
     86 H86       -50.7922  -28.1913    8.1161 H         1 UNK         0.0864 
     87 H87       -49.5946  -27.8853    5.3178 H         1 UNK         0.0720 
     88 H88       -48.7474  -28.4549    6.7318 H         1 UNK         0.0720 
     89 H89       -48.1427  -30.9313    6.6736 H         1 UNK         0.0814 
     90 H90       -49.3671  -32.1727    6.7517 H         1 UNK         0.0814 
     91 H91       -47.3418  -30.3758    8.8285 H         1 UNK         0.1469 
     92 H92       -49.9553  -30.2166   12.2243 H         1 UNK         0.1381 
     93 H93       -51.5054  -31.3089    8.3821 H         1 UNK         0.1206 
     94 H94       -52.1845  -31.2593   12.0165 H         1 UNK         0.0813 
     95 H95       -52.8186  -31.7145   10.4494 H         1 UNK         0.0813 
     96 H96       -54.5275  -30.0140   12.7664 H         1 UNK         0.0638 
     97 H97       -55.1017  -30.7311   11.2760 H         1 UNK         0.0638 
     98 H98       -55.9657  -28.5426   10.5082 H         1 UNK         0.0568 
     99 H99       -58.6482  -28.6209   13.4602 H         1 UNK         0.3450 
    100 H100      -57.3217  -27.4846   13.4354 H         1 UNK         0.3450 
    101 H101      -54.6563  -27.4693   12.8946 H         1 UNK         0.2987 
    102 H102      -54.0050  -24.8698   11.9915 H         1 UNK         0.0766 
    103 H103      -55.2907  -22.8439   12.7118 H         1 UNK         0.0798 
    104 H104      -56.8009  -23.7348   12.5233 H         1 UNK         0.0798 
    105 H105      -55.7886  -23.4068   11.1254 H         1 UNK         0.0798 
    106 H106      -53.8442  -25.3415   14.1304 H         1 UNK         0.3198 
    107 H107      -54.9917  -24.8407   16.5875 H         1 UNK         0.0843 
    108 H108      -56.7826  -27.3250   16.7281 H         1 UNK         0.0831 
    109 H109      -57.2480  -25.6835   17.1463 H         1 UNK         0.0831 
    110 H110      -56.0461  -26.5206   18.1139 H         1 UNK         0.0831 
    111 H111      -53.2858  -26.2458   16.6848 H         1 UNK         0.3133 
    112 H112      -52.6932  -29.2816   16.8157 H         1 UNK         0.0566 
    113 H113      -52.2204  -28.8240   13.8256 H         1 UNK         0.0814 
    114 H114      -51.1854  -29.8342   14.8362 H         1 UNK         0.0814 
    115 H115      -52.8691  -30.2636   14.5928 H         1 UNK         0.0814 
    116 H116      -51.2942  -27.0172   15.4648 H         1 UNK         0.3091 
    117 H117      -50.0917  -25.6852   18.3892 H         1 UNK         0.0702 
    118 H118      -47.7168  -26.1308   17.7348 H         1 UNK         0.0785 
    119 H119      -48.2294  -27.5527   16.8257 H         1 UNK         0.0785 
    120 H120      -48.4256  -27.5029   18.5706 H         1 UNK         0.0785 
    121 H121      -49.2547  -25.6609   15.5774 H         1 UNK         0.2998 
    122 H122      -51.7057  -23.2753   14.5871 H         1 UNK         0.0697 
    123 H123      -48.7010  -22.8179   15.0076 H         1 UNK         0.0825 
    124 H124      -49.9849  -21.7995   15.6478 H         1 UNK         0.0825 
    125 H125      -49.7422  -21.9126   13.9118 H         1 UNK         0.0825 
    126 H126      -49.4771  -24.3416   13.1860 H         1 UNK         0.3029 
    127 H127      -50.6421  -27.6022   12.5862 H         1 UNK         0.0897 
    128 H128      -52.2032  -26.4092   11.0002 H         1 UNK         0.0792 
    129 H129      -50.8314  -27.1510   10.2099 H         1 UNK         0.0792 
    130 H130      -50.8618  -25.4019   10.4690 H         1 UNK         0.0792 
    131 H131      -48.6486  -26.2441   11.1727 H         1 UNK         0.3086 
    132 H132      -46.1464  -25.9026   13.5895 H         1 UNK         0.0583 
    133 H133      -44.7632  -27.4488   12.3165 H         1 UNK         0.1020 
    134 H134      -45.8997  -28.3552   13.2589 H         1 UNK         0.1020 
    135 H135      -46.6981  -30.7498   11.6435 H         1 UNK         0.0694 
    136 H136      -47.7137  -29.6300   12.5196 H         1 UNK         0.0694 
    137 H137      -45.8012  -25.6676   10.8645 H         1 UNK         0.2989 
    138 H138      -47.4366  -22.6659   10.1140 H         1 UNK         0.1055 
    139 H139      -45.5144  -21.7652   11.3849 H         1 UNK         0.0806 
    140 H140      -45.1635  -21.7699    9.6643 H         1 UNK         0.0806 
    141 H141      -44.4499  -22.9914   10.7170 H         1 UNK         0.0806 
    142 H142      -47.1403  -23.8955    8.3432 H         1 UNK         0.3061 
    143 H143      -44.6550  -25.5414    6.8168 H         1 UNK         0.0734 
    144 H144      -45.9240  -27.6799    6.4955 H         1 UNK         0.0832 
    145 H145      -45.0397  -27.6663    8.0120 H         1 UNK         0.0832 
    146 H146      -46.7744  -27.4037    8.0152 H         1 UNK         0.0832 
    147 H147      -47.6211  -25.4456    6.7102 H         1 UNK         0.3156 
    148 H148      -47.6717  -22.4740    4.8441 H         1 UNK         0.0589 
    149 H149      -48.0514  -25.2314    3.5512 H         1 UNK         0.0808 
    150 H150      -48.7503  -23.7145    2.9806 H         1 UNK         0.0808 
    151 H151      -47.0124  -23.9526    2.9391 H         1 UNK         0.0808 
    152 H152      -49.6911  -24.4424    5.2455 H         1 UNK         0.3098 
    153 H153      -50.4989  -23.7196    8.6068 H         1 UNK         0.0720 
    154 H154      -52.7263  -23.1660    7.6784 H         1 UNK         0.0791 
    155 H155      -52.0356  -22.9317    6.0718 H         1 UNK         0.0791 
    156 H156      -51.6127  -21.8413    7.3849 H         1 UNK         0.0791 
    157 H157      -51.8792  -25.3601    6.8226 H         1 UNK         0.3028 
@<TRIPOS>BOND
     1    1    2 1    
     2    1   82 1    
     3    1   83 1    
     4    1   84 1    
     5    2    3 2    
     6    2    4 am   BACKBONE|DICT|INTERRES
     7    4    5 1    
     8    4   85 1    
     9    5    6 1    
    10    5   80 1    
    11    5   86 1    
    12    6    7 1    
    13    6   87 1    
    14    6   88 1    
    15    7    8 1    
    16    8    9 1    
    17    8   89 1    
    18    8   90 1    
    19    9   10 ar   
    20    9   14 ar   
    21   10   11 ar   
    22   10   91 1    
    23   11   12 ar   
    24   11   58 1    
    25   12   13 ar   
    26   12   92 1    
    27   13   14 ar   
    28   13   15 1    
    29   14   93 1    
    30   15   16 1    
    31   15   94 1    
    32   15   95 1    
    33   16   17 1    
    34   17   18 1    
    35   17   96 1    
    36   17   97 1    
    37   18   19 1    
    38   18   22 1    
    39   18   98 1    
    40   19   20 am   BACKBONE|DICT|INTERRES
    41   19   21 2    
    42   20   99 1    
    43   20  100 1    
    44   22   23 am   BACKBONE|DICT|INTERRES
    45   22  101 1    
    46   23   24 2    
    47   23   25 1    
    48   25   26 1    
    49   25   27 1    
    50   25  102 1    
    51   26  103 1    
    52   26  104 1    
    53   26  105 1    
    54   27   28 am   BACKBONE|DICT|INTERRES
    55   27  106 1    
    56   28   29 2    
    57   28   30 1    
    58   30   31 1    
    59   30   32 1    
    60   30  107 1    
    61   31  108 1    
    62   31  109 1    
    63   31  110 1    
    64   32   33 am   BACKBONE|DICT|INTERRES
    65   32  111 1    
    66   33   34 2    
    67   33   35 1    
    68   35   36 1    
    69   35   37 1    
    70   35  112 1    
    71   36  113 1    
    72   36  114 1    
    73   36  115 1    
    74   37   38 am   BACKBONE|DICT|INTERRES
    75   37  116 1    
    76   38   39 2    
    77   38   40 1    
    78   40   41 1    
    79   40   42 1    
    80   40  117 1    
    81   41  118 1    
    82   41  119 1    
    83   41  120 1    
    84   42   43 am   BACKBONE|DICT|INTERRES
    85   42  121 1    
    86   43   44 2    
    87   43   45 1    
    88   45   46 1    
    89   45   47 1    
    90   45  122 1    
    91   46  123 1    
    92   46  124 1    
    93   46  125 1    
    94   47   48 am   BACKBONE|DICT|INTERRES
    95   47  126 1    
    96   48   49 2    
    97   48   50 1    
    98   50   51 1    
    99   50   52 1    
   100   50  127 1    
   101   51  128 1    
   102   51  129 1    
   103   51  130 1    
   104   52   53 am   BACKBONE|DICT|INTERRES
   105   52  131 1    
   106   53   54 2    
   107   53   55 1    
   108   55   56 1    
   109   55   59 1    
   110   55  132 1    
   111   56   57 1    
   112   56  133 1    
   113   56  134 1    
   114   57   58 1    
   115   58  135 1    
   116   58  136 1    
   117   59   60 am   BACKBONE|DICT|INTERRES
   118   59  137 1    
   119   60   61 2    
   120   60   62 1    
   121   62   63 1    
   122   62   64 1    
   123   62  138 1    
   124   63  139 1    
   125   63  140 1    
   126   63  141 1    
   127   64   65 am   BACKBONE|DICT|INTERRES
   128   64  142 1    
   129   65   66 2    
   130   65   67 1    
   131   67   68 1    
   132   67   69 1    
   133   67  143 1    
   134   68  144 1    
   135   68  145 1    
   136   68  146 1    
   137   69   70 am   BACKBONE|DICT|INTERRES
   138   69  147 1    
   139   70   71 2    
   140   70   72 1    
   141   72   73 1    
   142   72   74 1    
   143   72  148 1    
   144   73  149 1    
   145   73  150 1    
   146   73  151 1    
   147   74   75 am   BACKBONE|DICT|INTERRES
   148   74  152 1    
   149   75   76 2    
   150   75   77 1    
   151   77   78 1    
   152   77   79 1    
   153   77  153 1    
   154   78  154 1    
   155   78  155 1    
   156   78  156 1    
   157   79   80 am   BACKBONE|DICT|INTERRES
   158   79  157 1    
   159   80   81 2    
@<TRIPOS>SUBSTRUCTURE
     1 UNK         1 GROUP             0       ****    0 ROOT    
