@<TRIPOS>MOLECULE
3R207
157   159    1
SMALL
USER_CHARGES


@<TRIPOS>ATOM
      1 CA        -46.2196  -26.3696   10.3778 C.3       0 UNK        -0.1975 
      2 C         -46.4768  -27.4328    9.3217 C.2       0 UNK         0.4852 
      3 O         -45.9179  -28.5286    9.3987 O.2       0 UNK        -0.5216 
      4 N         -47.3147  -27.1173    8.3265 N.am      1 UNK        -0.4461 
      5 CA        -47.7468  -28.0173    7.2446 C.3       1 UNK         0.0864 
      6 C6        -49.0956  -27.5698    6.6244 C.3       14 UNK        -0.0898 
      7 S7        -50.4264  -27.5259    7.8587 S.3       14 UNK        -0.2598 
      8 C8        -51.9014  -27.4759    6.8035 C.3       14 UNK         0.0286 
      9 C9        -53.0736  -26.9422    7.6060 C.ar      14 UNK        -0.0844 
     10 C10       -53.3004  -25.5662    7.6652 C.ar      14 UNK        -0.0881 
     11 C11       -54.3147  -25.0454    8.4733 C.ar      14 UNK        -0.0643 
     12 C12       -55.1383  -25.9231    9.1882 C.ar      14 UNK        -0.0930 
     13 C13       -54.9405  -27.3061    9.1110 C.ar      14 UNK        -0.0827 
     14 C14       -53.9007  -27.8097    8.3236 C.ar      14 UNK        -0.1249 
     15 C15       -55.8459  -28.2625    9.8728 C.3       14 UNK         0.0141 
     16 S16       -55.1124  -28.7263   11.4688 S.3       14 UNK        -0.2313 
     17 C17       -56.2726  -30.0071   12.0486 C.3       14 UNK        -0.0915 
     18 CA        -57.2526  -29.5218   13.1510 C.3       13 UNK         0.0968 
     19 C         -58.1795  -30.6988   13.5765 C.2       13 UNK         0.5732 
     20 N         -57.9422  -31.3513   14.7105 N.am      13 UNK        -0.7310 
     21 O         -59.1259  -31.0231   12.8632 O.2       13 UNK        -0.5035 
     22 N         -56.5428  -28.8919   14.2732 N.am      13 UNK        -0.4233 
     23 C         -57.1181  -28.2585   15.3047 C.2       13 UNK         0.4989 
     24 O         -58.3137  -27.9630   15.3360 O.2       13 UNK        -0.4996 
     25 CA        -56.2182  -27.8979   16.5096 C.3       12 UNK         0.0216 
     26 CB        -56.9222  -28.1789   17.8539 C.3       12 UNK        -0.1964 
     27 N         -54.8811  -28.5191   16.4903 N.am      12 UNK        -0.4276 
     28 C         -54.5920  -29.8305   16.4751 C.2       12 UNK         0.5020 
     29 O         -55.4477  -30.7171   16.5073 O.2       12 UNK        -0.5489 
     30 CA        -53.1178  -30.2323   16.3062 C.3       11 UNK         0.0294 
     31 CB        -52.8992  -30.8258   14.9027 C.3       11 UNK        -0.2019 
     32 N         -52.1718  -29.1278   16.4946 N.am      11 UNK        -0.4493 
     33 C         -51.6666  -28.7547   17.6782 C.2       11 UNK         0.4932 
     34 O         -52.0306  -29.2309   18.7535 O.2       11 UNK        -0.5029 
     35 CA        -50.5593  -27.6897   17.6684 C.3       10 UNK         0.0280 
     36 CB        -49.2159  -28.3160   17.2582 C.3       10 UNK        -0.1976 
     37 N         -50.8722  -26.5817   16.7637 N.am      10 UNK        -0.4242 
     38 C         -50.9389  -25.2907   17.1247 C.2       10 UNK         0.5072 
     39 O         -50.7129  -24.8851   18.2660 O.2       10 UNK        -0.5224 
     40 CA        -51.3219  -24.2608   16.0402 C.3       9 UNK         0.0343 
     41 CB        -50.0629  -23.5792   15.4801 C.3       9 UNK        -0.2003 
     42 N         -52.0897  -24.8257   14.9288 N.am      9 UNK        -0.4272 
     43 C         -53.3036  -25.3846   15.0458 C.2       9 UNK         0.4988 
     44 O         -53.9545  -25.3832   16.0892 O.2       9 UNK        -0.5108 
     45 CA        -53.8736  -26.1256   13.8223 C.3       8 UNK         0.0248 
     46 CB        -54.9372  -25.2649   13.1221 C.3       8 UNK        -0.2001 
     47 N         -52.8738  -26.5577   12.8425 N.am      8 UNK        -0.4140 
     48 C         -51.7914  -27.3154   13.0781 C.2       8 UNK         0.5028 
     49 O         -51.5088  -27.7825   14.1825 O.2       8 UNK        -0.5428 
     50 CA        -50.8270  -27.5266   11.8991 C.3       7 UNK         0.0264 
     51 CB        -51.1056  -28.8750   11.2179 C.3       7 UNK        -0.1988 
     52 N         -50.8879  -26.4477   10.9049 N.am      7 UNK        -0.4454 
     53 C         -50.5899  -25.1642   11.1503 C.2       7 UNK         0.5027 
     54 O         -50.1742  -24.7531   12.2367 O.2       7 UNK        -0.5083 
     55 CA        -50.9180  -24.1548   10.0358 C.3       6 UNK         0.0844 
     56 C56       -52.2815  -23.4798   10.3425 C.3       14 UNK        -0.0967 
     57 S57       -52.9612  -22.6138    8.8889 S.3       14 UNK        -0.2604 
     58 C58       -54.5136  -23.5363    8.5897 C.3       14 UNK         0.0134 
     59 N         -49.8465  -23.1653    9.9389 N.am      6 UNK        -0.4116 
     60 C         -48.6186  -23.3963    9.4599 C.2       5 UNK         0.5034 
     61 O         -48.2814  -24.4288    8.8752 O.2       5 UNK        -0.5045 
     62 CA        -47.5904  -22.2969    9.7777 C.3       5 UNK         0.0224 
     63 CB        -47.1204  -22.4236   11.2382 C.3       5 UNK        -0.1978 
     64 N         -46.4075  -22.2880    8.9156 N.am      5 UNK        -0.4737 
     65 C         -46.3844  -21.9832    7.6127 C.2       4 UNK         0.5027 
     66 O         -47.3919  -21.8008    6.9284 O.2       4 UNK        -0.5211 
     67 CA        -44.9968  -21.7472    6.9810 C.3       4 UNK         0.0297 
     68 CB        -43.9194  -21.3024    7.9983 C.3       4 UNK        -0.1993 
     69 N         -44.5100  -22.8728    6.1790 N.am      4 UNK        -0.4486 
     70 C         -44.2672  -24.1219    6.5942 C.2       3 UNK         0.4961 
     71 O         -44.4990  -24.5442    7.7301 O.2       3 UNK        -0.5105 
     72 CA        -43.5908  -25.0431    5.5733 C.3       3 UNK         0.0299 
     73 CB        -42.0674  -24.8083    5.5549 C.3       3 UNK        -0.1972 
     74 N         -43.8918  -26.4191    5.9428 N.am      3 UNK        -0.4305 
     75 C         -43.7466  -27.5023    5.1718 C.2       2 UNK         0.5006 
     76 O         -43.2457  -27.4874    4.0465 O.2       2 UNK        -0.5106 
     77 CA        -44.2778  -28.8288    5.7447 C.3       2 UNK         0.0296 
     78 CB        -43.1821  -29.5497    6.5464 C.3       2 UNK        -0.2002 
     79 N         -45.4651  -28.6564    6.5882 N.am      2 UNK        -0.4032 
     80 C         -46.6511  -28.1927    6.1692 C.2       1 UNK         0.5000 
     81 O         -46.8837  -27.8981    4.9941 O.2       1 UNK        -0.5238 
     82 H82       -47.1276  -26.1740   10.9482 H         1 UNK         0.0889 
     83 H83       -45.8969  -25.4385    9.9121 H         1 UNK         0.0889 
     84 H84       -45.4414  -26.6892   11.0703 H         1 UNK         0.0889 
     85 H85       -47.7322  -26.1884    8.3262 H         1 UNK         0.3028 
     86 H86       -47.9057  -29.0076    7.6774 H         1 UNK         0.0864 
     87 H87       -49.0068  -26.5789    6.1745 H         1 UNK         0.0720 
     88 H88       -49.3968  -28.2525    5.8271 H         1 UNK         0.0720 
     89 H89       -52.1154  -28.4748    6.4204 H         1 UNK         0.0814 
     90 H90       -51.7187  -26.8384    5.9369 H         1 UNK         0.0814 
     91 H91       -52.6577  -24.8943    7.1125 H         1 UNK         0.1469 
     92 H92       -55.9335  -25.5312    9.8076 H         1 UNK         0.1381 
     93 H93       -53.7266  -28.8765    8.2817 H         1 UNK         0.1206 
     94 H94       -56.0158  -29.1587    9.2741 H         1 UNK         0.0813 
     95 H95       -56.8249  -27.8116   10.0420 H         1 UNK         0.0813 
     96 H96       -55.6710  -30.8383   12.4217 H         1 UNK         0.0638 
     97 H97       -56.8257  -30.3998   11.1933 H         1 UNK         0.0638 
     98 H98       -57.8969  -28.7575   12.7128 H         1 UNK         0.0568 
     99 H99       -57.1553  -31.1014   15.2986 H         1 UNK         0.3450 
    100 H100      -58.5477  -32.1107   14.9777 H         1 UNK         0.3450 
    101 H101      -55.5580  -29.0949   14.3289 H         1 UNK         0.2987 
    102 H102      -56.0615  -26.8214   16.4454 H         1 UNK         0.0766 
    103 H103      -57.8476  -27.6082   17.9408 H         1 UNK         0.0798 
    104 H104      -56.2916  -27.8978   18.6974 H         1 UNK         0.0798 
    105 H105      -57.1802  -29.2327   17.9641 H         1 UNK         0.0798 
    106 H106      -54.1039  -27.8724   16.4728 H         1 UNK         0.3198 
    107 H107      -52.9081  -31.0125   17.0414 H         1 UNK         0.0843 
    108 H108      -53.1156  -30.1017   14.1161 H         1 UNK         0.0831 
    109 H109      -53.5451  -31.6892   14.7362 H         1 UNK         0.0831 
    110 H110      -51.8712  -31.1638   14.7709 H         1 UNK         0.0831 
    111 H111      -51.8277  -28.6843   15.6417 H         1 UNK         0.3133 
    112 H112      -50.4594  -27.3274   18.6936 H         1 UNK         0.0566 
    113 H113      -48.4046  -27.5917   17.3327 H         1 UNK         0.0814 
    114 H114      -49.2381  -28.6878   16.2327 H         1 UNK         0.0814 
    115 H115      -48.9609  -29.1558   17.9061 H         1 UNK         0.0814 
    116 H116      -51.0752  -26.8288   15.7990 H         1 UNK         0.3091 
    117 H117      -51.9415  -23.4991   16.5179 H         1 UNK         0.0702 
    118 H118      -50.3188  -22.7970   14.7650 H         1 UNK         0.0785 
    119 H119      -49.4101  -24.2925   14.9747 H         1 UNK         0.0785 
    120 H120      -49.4826  -23.1124   16.2772 H         1 UNK         0.0785 
    121 H121      -51.6142  -24.8762   14.0362 H         1 UNK         0.2998 
    122 H122      -54.3578  -27.0294   14.1893 H         1 UNK         0.0697 
    123 H123      -54.5108  -24.3518   12.7058 H         1 UNK         0.0825 
    124 H124      -55.7200  -24.9682   13.8218 H         1 UNK         0.0825 
    125 H125      -55.4241  -25.8105   12.3142 H         1 UNK         0.0825 
    126 H126      -53.0311  -26.2696   11.8888 H         1 UNK         0.3029 
    127 H127      -49.8152  -27.5484   12.3095 H         1 UNK         0.0897 
    128 H128      -52.0737  -28.8825   10.7154 H         1 UNK         0.0792 
    129 H129      -51.1084  -29.6888   11.9448 H         1 UNK         0.0792 
    130 H130      -50.3410  -29.1092   10.4773 H         1 UNK         0.0792 
    131 H131      -51.1896  -26.7107    9.9739 H         1 UNK         0.3086 
    132 H132      -50.9794  -24.6913    9.0871 H         1 UNK         0.0583 
    133 H133      -53.0149  -24.2114   10.6842 H         1 UNK         0.1020 
    134 H134      -52.1867  -22.7654   11.1628 H         1 UNK         0.1020 
    135 H135      -55.2117  -23.3031    9.3953 H         1 UNK         0.0694 
    136 H136      -54.9699  -23.1693    7.6695 H         1 UNK         0.0694 
    137 H137      -50.0166  -22.2969   10.4232 H         1 UNK         0.2989 
    138 H138      -48.0862  -21.3314    9.6529 H         1 UNK         0.1055 
    139 H139      -46.5900  -23.3611   11.4098 H         1 UNK         0.0806 
    140 H140      -47.9620  -22.3988   11.9323 H         1 UNK         0.0806 
    141 H141      -46.4547  -21.6057   11.5150 H         1 UNK         0.0806 
    142 H142      -45.5238  -22.4868    9.3609 H         1 UNK         0.3061 
    143 H143      -45.1296  -20.9189    6.2829 H         1 UNK         0.0734 
    144 H144      -43.6428  -22.0984    8.6903 H         1 UNK         0.0832 
    145 H145      -43.0101  -20.9847    7.4880 H         1 UNK         0.0832 
    146 H146      -44.2639  -20.4535    8.5908 H         1 UNK         0.0832 
    147 H147      -44.3107  -22.6530    5.2125 H         1 UNK         0.3156 
    148 H148      -44.0101  -24.8440    4.5848 H         1 UNK         0.0589 
    149 H149      -41.6173  -25.0256    6.5244 H         1 UNK         0.0808 
    150 H150      -41.5730  -25.4318    4.8100 H         1 UNK         0.0808 
    151 H151      -41.8319  -23.7716    5.3111 H         1 UNK         0.0808 
    152 H152      -44.3225  -26.5072    6.8554 H         1 UNK         0.3098 
    153 H153      -44.5590  -29.4624    4.9009 H         1 UNK         0.0720 
    154 H154      -43.5185  -30.5297    6.8855 H         1 UNK         0.0791 
    155 H155      -42.8798  -28.9763    7.4238 H         1 UNK         0.0791 
    156 H156      -42.2916  -29.7072    5.9361 H         1 UNK         0.0791 
    157 H157      -45.3677  -28.8431    7.5834 H         1 UNK         0.3028 
@<TRIPOS>BOND
     1    1    2 1    
     2    1   82 1    
     3    1   83 1    
     4    1   84 1    
     5    2    3 2    
     6    2    4 am   BACKBONE|DICT|INTERRES
     7    4    5 1    
     8    4   85 1    
     9    5    6 1    
    10    5   80 1    
    11    5   86 1    
    12    6    7 1    
    13    6   87 1    
    14    6   88 1    
    15    7    8 1    
    16    8    9 1    
    17    8   89 1    
    18    8   90 1    
    19    9   10 ar   
    20    9   14 ar   
    21   10   11 ar   
    22   10   91 1    
    23   11   12 ar   
    24   11   58 1    
    25   12   13 ar   
    26   12   92 1    
    27   13   14 ar   
    28   13   15 1    
    29   14   93 1    
    30   15   16 1    
    31   15   94 1    
    32   15   95 1    
    33   16   17 1    
    34   17   18 1    
    35   17   96 1    
    36   17   97 1    
    37   18   19 1    
    38   18   22 1    
    39   18   98 1    
    40   19   20 am   BACKBONE|DICT|INTERRES
    41   19   21 2    
    42   20   99 1    
    43   20  100 1    
    44   22   23 am   BACKBONE|DICT|INTERRES
    45   22  101 1    
    46   23   24 2    
    47   23   25 1    
    48   25   26 1    
    49   25   27 1    
    50   25  102 1    
    51   26  103 1    
    52   26  104 1    
    53   26  105 1    
    54   27   28 am   BACKBONE|DICT|INTERRES
    55   27  106 1    
    56   28   29 2    
    57   28   30 1    
    58   30   31 1    
    59   30   32 1    
    60   30  107 1    
    61   31  108 1    
    62   31  109 1    
    63   31  110 1    
    64   32   33 am   BACKBONE|DICT|INTERRES
    65   32  111 1    
    66   33   34 2    
    67   33   35 1    
    68   35   36 1    
    69   35   37 1    
    70   35  112 1    
    71   36  113 1    
    72   36  114 1    
    73   36  115 1    
    74   37   38 am   BACKBONE|DICT|INTERRES
    75   37  116 1    
    76   38   39 2    
    77   38   40 1    
    78   40   41 1    
    79   40   42 1    
    80   40  117 1    
    81   41  118 1    
    82   41  119 1    
    83   41  120 1    
    84   42   43 am   BACKBONE|DICT|INTERRES
    85   42  121 1    
    86   43   44 2    
    87   43   45 1    
    88   45   46 1    
    89   45   47 1    
    90   45  122 1    
    91   46  123 1    
    92   46  124 1    
    93   46  125 1    
    94   47   48 am   BACKBONE|DICT|INTERRES
    95   47  126 1    
    96   48   49 2    
    97   48   50 1    
    98   50   51 1    
    99   50   52 1    
   100   50  127 1    
   101   51  128 1    
   102   51  129 1    
   103   51  130 1    
   104   52   53 am   BACKBONE|DICT|INTERRES
   105   52  131 1    
   106   53   54 2    
   107   53   55 1    
   108   55   56 1    
   109   55   59 1    
   110   55  132 1    
   111   56   57 1    
   112   56  133 1    
   113   56  134 1    
   114   57   58 1    
   115   58  135 1    
   116   58  136 1    
   117   59   60 am   BACKBONE|DICT|INTERRES
   118   59  137 1    
   119   60   61 2    
   120   60   62 1    
   121   62   63 1    
   122   62   64 1    
   123   62  138 1    
   124   63  139 1    
   125   63  140 1    
   126   63  141 1    
   127   64   65 am   BACKBONE|DICT|INTERRES
   128   64  142 1    
   129   65   66 2    
   130   65   67 1    
   131   67   68 1    
   132   67   69 1    
   133   67  143 1    
   134   68  144 1    
   135   68  145 1    
   136   68  146 1    
   137   69   70 am   BACKBONE|DICT|INTERRES
   138   69  147 1    
   139   70   71 2    
   140   70   72 1    
   141   72   73 1    
   142   72   74 1    
   143   72  148 1    
   144   73  149 1    
   145   73  150 1    
   146   73  151 1    
   147   74   75 am   BACKBONE|DICT|INTERRES
   148   74  152 1    
   149   75   76 2    
   150   75   77 1    
   151   77   78 1    
   152   77   79 1    
   153   77  153 1    
   154   78  154 1    
   155   78  155 1    
   156   78  156 1    
   157   79   80 am   BACKBONE|DICT|INTERRES
   158   79  157 1    
   159   80   81 2    
@<TRIPOS>SUBSTRUCTURE
     1 UNK         1 GROUP             0       ****    0 ROOT    
