@<TRIPOS>MOLECULE
3R207
157   159    1
SMALL
USER_CHARGES


@<TRIPOS>ATOM
      1 CA        -47.3564  -26.6969   10.7390 C.3       0 UNK        -0.1975 
      2 C         -47.2512  -27.6146    9.5301 C.2       0 UNK         0.4852 
      3 O         -46.3029  -28.3952    9.4398 O.2       0 UNK        -0.5216 
      4 N         -48.2122  -27.5225    8.6013 N.am      1 UNK        -0.4461 
      5 CA        -48.3205  -28.3243    7.3753 C.3       1 UNK         0.0864 
      6 C6        -49.6408  -28.0558    6.6072 C.3       14 UNK        -0.0898 
      7 S7        -51.1258  -28.2864    7.6339 S.3       14 UNK        -0.2598 
      8 C8        -52.4073  -27.5686    6.5538 C.3       14 UNK         0.0286 
      9 C9        -53.4859  -26.8532    7.3555 C.ar      14 UNK        -0.0844 
     10 C10       -53.7421  -25.4944    7.1457 C.ar      14 UNK        -0.0881 
     11 C11       -54.7278  -24.8288    7.8856 C.ar      14 UNK        -0.0643 
     12 C12       -55.4630  -25.5423    8.8402 C.ar      14 UNK        -0.0930 
     13 C13       -55.2311  -26.9072    9.0420 C.ar      14 UNK        -0.0827 
     14 C14       -54.2455  -27.5550    8.2940 C.ar      14 UNK        -0.1249 
     15 C15       -56.0583  -27.7056   10.0379 C.3       14 UNK         0.0141 
     16 S16       -55.0816  -28.1480   11.5069 S.3       14 UNK        -0.2313 
     17 C17       -55.8420  -29.7434   11.9601 C.3       14 UNK        -0.0915 
     18 CA        -55.0604  -30.5322   13.0459 C.3       13 UNK         0.0968 
     19 C         -53.6950  -31.0860   12.5519 C.2       13 UNK         0.5732 
     20 N         -52.5702  -30.7562   13.1746 N.am      13 UNK        -0.7310 
     21 O         -53.6598  -31.8692   11.6057 O.2       13 UNK        -0.5035 
     22 N         -55.0009  -29.8078   14.3260 N.am      13 UNK        -0.4233 
     23 C         -55.8728  -29.9829   15.3280 C.2       13 UNK         0.4989 
     24 O         -56.8256  -30.7638   15.2730 O.2       13 UNK        -0.4996 
     25 CA        -55.6673  -29.1362   16.5996 C.3       12 UNK         0.0216 
     26 CB        -56.4135  -29.6994   17.8288 C.3       12 UNK        -0.1964 
     27 N         -54.2594  -28.8802   16.9203 N.am      12 UNK        -0.4276 
     28 C         -53.2999  -29.7742   17.2117 C.2       12 UNK         0.5020 
     29 O         -53.4915  -30.9896   17.2635 O.2       12 UNK        -0.5489 
     30 CA        -51.8817  -29.2291   17.4827 C.3       11 UNK         0.0294 
     31 CB        -50.8265  -29.9693   16.6411 C.3       11 UNK        -0.2019 
     32 N         -51.7841  -27.7952   17.2008 N.am      11 UNK        -0.4493 
     33 C         -51.9103  -26.8149   18.1066 C.2       11 UNK         0.4932 
     34 O         -52.0057  -27.0086   19.3182 O.2       11 UNK        -0.5029 
     35 CA        -51.9870  -25.3738   17.5664 C.3       10 UNK         0.0280 
     36 CB        -50.6121  -24.6932   17.6523 C.3       10 UNK        -0.1976 
     37 N         -52.4941  -25.3087   16.1892 N.am      10 UNK        -0.4242 
     38 C         -53.7610  -25.5987   15.8456 C.2       10 UNK         0.5072 
     39 O         -54.6325  -25.8758   16.6690 O.2       10 UNK        -0.5224 
     40 CA        -54.1199  -25.6694   14.3494 C.3       9 UNK         0.0343 
     41 CB        -54.7998  -24.3701   13.8938 C.3       9 UNK        -0.2003 
     42 N         -52.9764  -25.9550   13.4823 N.am      9 UNK        -0.4272 
     43 C         -52.2549  -27.0870   13.5152 C.2       9 UNK         0.4988 
     44 O         -52.5365  -28.0444   14.2410 O.2       9 UNK        -0.5108 
     45 CA        -50.9799  -27.1489   12.6465 C.3       8 UNK         0.0248 
     46 CB        -51.2789  -27.8481   11.3113 C.3       8 UNK        -0.2001 
     47 N         -50.3821  -25.8418   12.3562 N.am      8 UNK        -0.4140 
     48 C         -50.0548  -24.8973   13.2531 C.2       8 UNK         0.5028 
     49 O         -50.0826  -25.0757   14.4700 O.2       8 UNK        -0.5428 
     50 CA        -49.7344  -23.4896   12.7097 C.3       7 UNK         0.0264 
     51 CB        -48.2212  -23.2371   12.7485 C.3       7 UNK        -0.1988 
     52 N         -50.2506  -23.2433   11.3538 N.am      7 UNK        -0.4454 
     53 C         -51.5467  -23.3418   11.0053 C.2       7 UNK         0.5027 
     54 O         -52.4428  -23.5174   11.8315 O.2       7 UNK        -0.5083 
     55 CA        -51.9273  -23.3330    9.5094 C.3       6 UNK         0.0844 
     56 C56       -52.9730  -22.2339    9.2028 C.3       14 UNK        -0.0967 
     57 S57       -53.5656  -22.2927    7.4781 S.3       14 UNK        -0.2604 
     58 C58       -55.0433  -23.3565    7.6248 C.3       14 UNK         0.0134 
     59 N         -50.7852  -23.3000    8.5905 N.am      6 UNK        -0.4116 
     60 C         -49.9084  -24.2949    8.4044 C.2       5 UNK         0.5034 
     61 O         -49.9322  -25.3479    9.0424 O.2       5 UNK        -0.5045 
     62 CA        -48.7936  -24.0693    7.3615 C.3       5 UNK         0.0224 
     63 CB        -49.0688  -22.8862    6.4068 C.3       5 UNK        -0.1978 
     64 N         -47.4561  -23.9208    7.9526 N.am      5 UNK        -0.4737 
     65 C         -47.0893  -23.1282    8.9695 C.2       4 UNK         0.5027 
     66 O         -47.8899  -22.4772    9.6430 O.2       4 UNK        -0.5211 
     67 CA        -45.5759  -23.0232    9.2697 C.3       4 UNK         0.0297 
     68 CB        -45.2792  -22.3115   10.6035 C.3       4 UNK        -0.1993 
     69 N         -44.8490  -24.2994    9.2483 N.am      4 UNK        -0.4486 
     70 C         -44.4736  -24.9723    8.1524 C.2       3 UNK         0.4961 
     71 O         -44.8087  -24.6355    7.0162 O.2       3 UNK        -0.5105 
     72 CA        -43.5700  -26.2081    8.3410 C.3       3 UNK         0.0299 
     73 CB        -43.2666  -26.5630    9.8114 C.3       3 UNK        -0.1972 
     74 N         -44.1761  -27.3639    7.6833 N.am      3 UNK        -0.4305 
     75 C         -43.9489  -27.7397    6.4155 C.2       2 UNK         0.5006 
     76 O         -43.0889  -27.2356    5.6913 O.2       2 UNK        -0.5106 
     77 CA        -44.8256  -28.8738    5.8474 C.3       2 UNK         0.0296 
     78 CB        -44.0840  -30.2185    5.9243 C.3       2 UNK        -0.2002 
     79 N         -46.1227  -28.9992    6.5185 N.am      2 UNK        -0.4032 
     80 C         -47.1036  -28.0872    6.4587 C.2       1 UNK         0.5000 
     81 O         -47.0595  -27.0757    5.7550 O.2       1 UNK        -0.5238 
     82 H82       -46.3688  -26.4492   11.1238 H         1 UNK         0.0889 
     83 H83       -47.9135  -27.1903   11.5344 H         1 UNK         0.0889 
     84 H84       -47.8576  -25.7638   10.4908 H         1 UNK         0.0889 
     85 H85       -48.9558  -26.8386    8.7349 H         1 UNK         0.3028 
     86 H86       -48.3240  -29.3739    7.6769 H         1 UNK         0.0864 
     87 H87       -49.6562  -27.0384    6.2149 H         1 UNK         0.0720 
     88 H88       -49.7204  -28.7191    5.7438 H         1 UNK         0.0720 
     89 H89       -51.9514  -26.8800    5.8413 H         1 UNK         0.0814 
     90 H90       -52.8623  -28.3644    5.9627 H         1 UNK         0.0814 
     91 H91       -53.1741  -24.9496    6.4043 H         1 UNK         0.1469 
     92 H92       -56.2326  -25.0411    9.4111 H         1 UNK         0.1381 
     93 H93       -54.0610  -28.6092    8.4515 H         1 UNK         0.1206 
     94 H94       -56.9418  -27.1479   10.3519 H         1 UNK         0.0813 
     95 H95       -56.4238  -28.6066    9.5435 H         1 UNK         0.0813 
     96 H96       -56.8575  -29.5478   12.3074 H         1 UNK         0.0638 
     97 H97       -55.9469  -30.3539   11.0616 H         1 UNK         0.0638 
     98 H98       -55.6293  -31.4482   13.2149 H         1 UNK         0.0568 
     99 H99       -51.7044  -31.1552   12.8512 H         1 UNK         0.3450 
    100 H100      -52.5603  -30.0334   13.8802 H         1 UNK         0.3450 
    101 H101      -54.2390  -29.1466   14.4258 H         1 UNK         0.2987 
    102 H102      -56.1054  -28.1629   16.3748 H         1 UNK         0.0766 
    103 H103      -56.0755  -30.7047   18.0820 H         1 UNK         0.0798 
    104 H104      -56.2692  -29.0662   18.7042 H         1 UNK         0.0798 
    105 H105      -57.4873  -29.7541   17.6456 H         1 UNK         0.0798 
    106 H106      -54.0032  -27.9002   16.9218 H         1 UNK         0.3198 
    107 H107      -51.6646  -29.4165   18.5364 H         1 UNK         0.0843 
    108 H108      -50.8369  -31.0399   16.8497 H         1 UNK         0.0831 
    109 H109      -49.8216  -29.6093   16.8620 H         1 UNK         0.0831 
    110 H110      -50.9981  -29.8447   15.5721 H         1 UNK         0.0831 
    111 H111      -51.7374  -27.5460   16.2200 H         1 UNK         0.3133 
    112 H112      -52.6777  -24.8176   18.2037 H         1 UNK         0.0566 
    113 H113      -50.6453  -23.6747   17.2652 H         1 UNK         0.0814 
    114 H114      -50.2714  -24.6366   18.6870 H         1 UNK         0.0814 
    115 H115      -49.8535  -25.2412   17.0924 H         1 UNK         0.0814 
    116 H116      -51.8053  -25.1275   15.4632 H         1 UNK         0.3091 
    117 H117      -54.8345  -26.4857   14.2252 H         1 UNK         0.0702 
    118 H118      -55.1087  -24.4305   12.8498 H         1 UNK         0.0785 
    119 H119      -54.1365  -23.5105   13.9981 H         1 UNK         0.0785 
    120 H120      -55.6933  -24.1680   14.4860 H         1 UNK         0.0785 
    121 H121      -52.6921  -25.2058   12.8583 H         1 UNK         0.2998 
    122 H122      -50.2409  -27.7369   13.1937 H         1 UNK         0.0697 
    123 H123      -51.9712  -27.2689   10.6975 H         1 UNK         0.0825 
    124 H124      -51.7314  -28.8268   11.4649 H         1 UNK         0.0825 
    125 H125      -50.3708  -28.0035   10.7292 H         1 UNK         0.0825 
    126 H126      -50.3235  -25.5924   11.3771 H         1 UNK         0.3029 
    127 H127      -50.2176  -22.7726   13.3767 H         1 UNK         0.0897 
    128 H128      -47.9800  -22.2212   12.4350 H         1 UNK         0.0792 
    129 H129      -47.8286  -23.3659   13.7582 H         1 UNK         0.0792 
    130 H130      -47.6840  -23.9279   12.0994 H         1 UNK         0.0792 
    131 H131      -49.5578  -23.0611   10.6322 H         1 UNK         0.3086 
    132 H132      -52.4164  -24.2954    9.3510 H         1 UNK         0.0583 
    133 H133      -53.8327  -22.3185    9.8710 H         1 UNK         0.1020 
    134 H134      -52.5486  -21.2448    9.3846 H         1 UNK         0.1020 
    135 H135      -55.6931  -22.9534    8.4031 H         1 UNK         0.0694 
    136 H136      -55.6068  -23.2905    6.6934 H         1 UNK         0.0694 
    137 H137      -50.6794  -22.4577    8.0452 H         1 UNK         0.2989 
    138 H138      -48.7594  -24.9751    6.7562 H         1 UNK         0.1055 
    139 H139      -48.3272  -22.8531    5.6083 H         1 UNK         0.0806 
    140 H140      -49.0358  -21.9244    6.9204 H         1 UNK         0.0806 
    141 H141      -50.0443  -22.9796    5.9267 H         1 UNK         0.0806 
    142 H142      -46.7034  -24.4001    7.4649 H         1 UNK         0.3061 
    143 H143      -45.1645  -22.3938    8.4776 H         1 UNK         0.0734 
    144 H144      -45.7755  -21.3414   10.6560 H         1 UNK         0.0832 
    145 H145      -45.6134  -22.8975   11.4589 H         1 UNK         0.0832 
    146 H146      -44.2115  -22.1269   10.7233 H         1 UNK         0.0832 
    147 H147      -44.5477  -24.6537   10.1442 H         1 UNK         0.3156 
    148 H148      -42.6173  -25.9719    7.8630 H         1 UNK         0.0589 
    149 H149      -44.1653  -26.8222   10.3699 H         1 UNK         0.0808 
    150 H150      -42.5936  -27.4188    9.8695 H         1 UNK         0.0808 
    151 H151      -42.7698  -25.7405   10.3278 H         1 UNK         0.0808 
    152 H152      -44.9129  -27.8349    8.2020 H         1 UNK         0.3098 
    153 H153      -45.0127  -28.6455    4.7959 H         1 UNK         0.0720 
    154 H154      -44.6590  -31.0172    5.4552 H         1 UNK         0.0791 
    155 H155      -43.8812  -30.5096    6.9558 H         1 UNK         0.0791 
    156 H156      -43.1251  -30.1650    5.4065 H         1 UNK         0.0791 
    157 H157      -46.2248  -29.7730    7.1605 H         1 UNK         0.3028 
@<TRIPOS>BOND
     1    1    2 1    
     2    1   82 1    
     3    1   83 1    
     4    1   84 1    
     5    2    3 2    
     6    2    4 am   BACKBONE|DICT|INTERRES
     7    4    5 1    
     8    4   85 1    
     9    5    6 1    
    10    5   80 1    
    11    5   86 1    
    12    6    7 1    
    13    6   87 1    
    14    6   88 1    
    15    7    8 1    
    16    8    9 1    
    17    8   89 1    
    18    8   90 1    
    19    9   10 ar   
    20    9   14 ar   
    21   10   11 ar   
    22   10   91 1    
    23   11   12 ar   
    24   11   58 1    
    25   12   13 ar   
    26   12   92 1    
    27   13   14 ar   
    28   13   15 1    
    29   14   93 1    
    30   15   16 1    
    31   15   94 1    
    32   15   95 1    
    33   16   17 1    
    34   17   18 1    
    35   17   96 1    
    36   17   97 1    
    37   18   19 1    
    38   18   22 1    
    39   18   98 1    
    40   19   20 am   BACKBONE|DICT|INTERRES
    41   19   21 2    
    42   20   99 1    
    43   20  100 1    
    44   22   23 am   BACKBONE|DICT|INTERRES
    45   22  101 1    
    46   23   24 2    
    47   23   25 1    
    48   25   26 1    
    49   25   27 1    
    50   25  102 1    
    51   26  103 1    
    52   26  104 1    
    53   26  105 1    
    54   27   28 am   BACKBONE|DICT|INTERRES
    55   27  106 1    
    56   28   29 2    
    57   28   30 1    
    58   30   31 1    
    59   30   32 1    
    60   30  107 1    
    61   31  108 1    
    62   31  109 1    
    63   31  110 1    
    64   32   33 am   BACKBONE|DICT|INTERRES
    65   32  111 1    
    66   33   34 2    
    67   33   35 1    
    68   35   36 1    
    69   35   37 1    
    70   35  112 1    
    71   36  113 1    
    72   36  114 1    
    73   36  115 1    
    74   37   38 am   BACKBONE|DICT|INTERRES
    75   37  116 1    
    76   38   39 2    
    77   38   40 1    
    78   40   41 1    
    79   40   42 1    
    80   40  117 1    
    81   41  118 1    
    82   41  119 1    
    83   41  120 1    
    84   42   43 am   BACKBONE|DICT|INTERRES
    85   42  121 1    
    86   43   44 2    
    87   43   45 1    
    88   45   46 1    
    89   45   47 1    
    90   45  122 1    
    91   46  123 1    
    92   46  124 1    
    93   46  125 1    
    94   47   48 am   BACKBONE|DICT|INTERRES
    95   47  126 1    
    96   48   49 2    
    97   48   50 1    
    98   50   51 1    
    99   50   52 1    
   100   50  127 1    
   101   51  128 1    
   102   51  129 1    
   103   51  130 1    
   104   52   53 am   BACKBONE|DICT|INTERRES
   105   52  131 1    
   106   53   54 2    
   107   53   55 1    
   108   55   56 1    
   109   55   59 1    
   110   55  132 1    
   111   56   57 1    
   112   56  133 1    
   113   56  134 1    
   114   57   58 1    
   115   58  135 1    
   116   58  136 1    
   117   59   60 am   BACKBONE|DICT|INTERRES
   118   59  137 1    
   119   60   61 2    
   120   60   62 1    
   121   62   63 1    
   122   62   64 1    
   123   62  138 1    
   124   63  139 1    
   125   63  140 1    
   126   63  141 1    
   127   64   65 am   BACKBONE|DICT|INTERRES
   128   64  142 1    
   129   65   66 2    
   130   65   67 1    
   131   67   68 1    
   132   67   69 1    
   133   67  143 1    
   134   68  144 1    
   135   68  145 1    
   136   68  146 1    
   137   69   70 am   BACKBONE|DICT|INTERRES
   138   69  147 1    
   139   70   71 2    
   140   70   72 1    
   141   72   73 1    
   142   72   74 1    
   143   72  148 1    
   144   73  149 1    
   145   73  150 1    
   146   73  151 1    
   147   74   75 am   BACKBONE|DICT|INTERRES
   148   74  152 1    
   149   75   76 2    
   150   75   77 1    
   151   77   78 1    
   152   77   79 1    
   153   77  153 1    
   154   78  154 1    
   155   78  155 1    
   156   78  156 1    
   157   79   80 am   BACKBONE|DICT|INTERRES
   158   79  157 1    
   159   80   81 2    
@<TRIPOS>SUBSTRUCTURE
     1 UNK         1 GROUP             0       ****    0 ROOT    
