@<TRIPOS>MOLECULE
3R207
157   159    1
SMALL
USER_CHARGES


@<TRIPOS>ATOM
      1 CA        -45.1189  -31.1306    5.3041 C.3       0 UNK        -0.1975 
      2 C         -46.4857  -30.5367    4.9977 C.2       0 UNK         0.4852 
      3 O         -46.7724  -30.2244    3.8415 O.2       0 UNK        -0.5216 
      4 N         -47.3300  -30.3766    6.0255 N.am      1 UNK        -0.4461 
      5 CA        -48.6792  -29.8026    5.9304 C.3       1 UNK         0.0864 
      6 C6        -49.5476  -30.1823    7.1554 C.3       14 UNK        -0.0898 
      7 S7        -48.8135  -29.7070    8.7594 S.3       14 UNK        -0.2598 
      8 C8        -49.9752  -30.5047    9.9216 C.3       14 UNK         0.0286 
      9 C9        -51.4002  -29.9468    9.9186 C.ar      14 UNK        -0.0844 
     10 C10       -51.6983  -28.6539    9.4670 C.ar      14 UNK        -0.0881 
     11 C11       -53.0048  -28.1630    9.5210 C.ar      14 UNK        -0.0643 
     12 C12       -54.0185  -28.9682   10.0373 C.ar      14 UNK        -0.0930 
     13 C13       -53.7445  -30.2580   10.4962 C.ar      14 UNK        -0.0827 
     14 C14       -52.4339  -30.7421   10.4276 C.ar      14 UNK        -0.1249 
     15 C15       -54.8498  -31.0968   11.1255 C.3       14 UNK         0.0141 
     16 S16       -56.3138  -31.2256   10.0489 S.3       14 UNK        -0.2313 
     17 C17       -57.6651  -30.7330   11.1713 C.3       14 UNK        -0.0915 
     18 CA        -58.0609  -29.2400   11.0079 C.3       13 UNK         0.0968 
     19 C         -59.5209  -28.9997   11.4821 C.2       13 UNK         0.5732 
     20 N         -60.4947  -29.1760   10.5998 N.am      13 UNK        -0.7310 
     21 O         -59.7823  -28.6950   12.6448 O.2       13 UNK        -0.5035 
     22 N         -57.1211  -28.3465   11.7016 N.am      13 UNK        -0.4233 
     23 C         -57.0276  -27.0296   11.4894 C.2       13 UNK         0.4989 
     24 O         -57.5882  -26.4576   10.5537 O.2       13 UNK        -0.4996 
     25 CA        -56.1925  -26.1809   12.4721 C.3       12 UNK         0.0216 
     26 CB        -57.0942  -25.6309   13.5939 C.3       12 UNK        -0.1964 
     27 N         -54.9816  -26.7920   13.0457 N.am      12 UNK        -0.4276 
     28 C         -54.8591  -27.8787   13.8219 C.2       12 UNK         0.5020 
     29 O         -55.7813  -28.6502   14.0888 O.2       12 UNK        -0.5489 
     30 CA        -53.4698  -28.1398   14.4219 C.3       11 UNK         0.0294 
     31 CB        -52.5498  -28.8552   13.4247 C.3       11 UNK        -0.2019 
     32 N         -52.8115  -26.9233   14.8993 N.am      11 UNK        -0.4493 
     33 C         -53.1170  -26.2938   16.0427 C.2       11 UNK         0.4932 
     34 O         -54.0858  -26.5789   16.7488 O.2       11 UNK        -0.5029 
     35 CA        -52.1192  -25.2058   16.4896 C.3       10 UNK         0.0280 
     36 CB        -52.3519  -24.7125   17.9330 C.3       10 UNK        -0.1976 
     37 N         -50.7313  -25.6471   16.2945 N.am      10 UNK        -0.4242 
     38 C         -50.1291  -26.7201   16.8342 C.2       10 UNK         0.5072 
     39 O         -50.6196  -27.4157   17.7246 O.2       10 UNK        -0.5224 
     40 CA        -48.7614  -27.1222   16.2531 C.3       9 UNK         0.0343 
     41 CB        -48.9298  -28.2842   15.2610 C.3       9 UNK        -0.2003 
     42 N         -48.0728  -26.0201   15.5792 N.am      9 UNK        -0.4272 
     43 C         -47.4352  -25.0324   16.2218 C.2       9 UNK         0.4988 
     44 O         -47.3111  -24.9772   17.4461 O.2       9 UNK        -0.5108 
     45 CA        -46.8504  -23.9065   15.3551 C.3       8 UNK         0.0248 
     46 CB        -45.5053  -24.3371   14.7488 C.3       8 UNK        -0.2001 
     47 N         -47.7606  -23.4607   14.2947 N.am      8 UNK        -0.4140 
     48 C         -48.9519  -22.8818   14.5110 C.2       8 UNK         0.5028 
     49 O         -49.4146  -22.6619   15.6303 O.2       8 UNK        -0.5428 
     50 CA        -49.7803  -22.4896   13.2781 C.3       7 UNK         0.0264 
     51 CB        -49.2589  -21.1793   12.6666 C.3       7 UNK        -0.1988 
     52 N         -49.8157  -23.5287   12.2502 N.am      7 UNK        -0.4454 
     53 C         -50.3905  -24.7332   12.3907 C.2       7 UNK         0.5027 
     54 O         -50.9591  -25.1176   13.4140 O.2       7 UNK        -0.5083 
     55 CA        -50.2751  -25.6876   11.1859 C.3       6 UNK         0.0844 
     56 C56       -51.1851  -25.2234   10.0203 C.3       14 UNK        -0.0967 
     57 S57       -52.9603  -25.5220   10.3142 S.3       14 UNK        -0.2604 
     58 C58       -53.3330  -26.7613    9.0372 C.3       14 UNK         0.0134 
     59 N         -48.8840  -25.8464   10.7508 N.am      6 UNK        -0.4116 
     60 C         -47.8444  -26.1946   11.5249 C.2       5 UNK         0.5034 
     61 O         -47.9319  -26.5092   12.7117 O.2       5 UNK        -0.5045 
     62 CA        -46.4533  -26.0999   10.8799 C.3       5 UNK         0.0224 
     63 CB        -46.1504  -27.3363   10.0186 C.3       5 UNK        -0.1978 
     64 N         -46.3029  -24.8812   10.0797 N.am      5 UNK        -0.4737 
     65 C         -46.2813  -23.6404   10.5886 C.2       4 UNK         0.5027 
     66 O         -46.3442  -23.3917   11.7910 O.2       4 UNK        -0.5211 
     67 CA        -46.2308  -22.4805    9.5813 C.3       4 UNK         0.0297 
     68 CB        -44.7980  -22.2667    9.0684 C.3       4 UNK        -0.1993 
     69 N         -47.1371  -22.6876    8.4499 N.am      4 UNK        -0.4486 
     70 C         -48.4730  -22.7420    8.5518 C.2       3 UNK         0.4961 
     71 O         -49.0869  -22.5553    9.6019 O.2       3 UNK        -0.5105 
     72 CA        -49.2516  -23.1175    7.2780 C.3       3 UNK         0.0299 
     73 CB        -49.5804  -21.8606    6.4576 C.3       3 UNK        -0.1972 
     74 N         -48.5484  -24.0904    6.4331 N.am      3 UNK        -0.4305 
     75 C         -48.2235  -25.3336    6.8145 C.2       2 UNK         0.5006 
     76 O         -48.4863  -25.7989    7.9254 O.2       2 UNK        -0.5106 
     77 CA        -47.3918  -26.1550    5.8178 C.3       2 UNK         0.0296 
     78 CB        -45.8973  -25.8311    5.9845 C.3       2 UNK        -0.2002 
     79 N         -47.5800  -27.5945    5.9959 N.am      2 UNK        -0.4032 
     80 C         -48.6854  -28.2781    5.6660 C.2       1 UNK         0.5000 
     81 O         -49.6766  -27.7613    5.1456 O.2       1 UNK        -0.5238 
     82 H82       -44.9757  -32.0521    4.7405 H         1 UNK         0.0889 
     83 H83       -45.0015  -31.3596    6.3632 H         1 UNK         0.0889 
     84 H84       -44.3335  -30.4310    5.0193 H         1 UNK         0.0889 
     85 H85       -47.0483  -30.6549    6.9557 H         1 UNK         0.3028 
     86 H86       -49.1547  -30.2530    5.0562 H         1 UNK         0.0864 
     87 H87       -49.7045  -31.2620    7.1630 H         1 UNK         0.0720 
     88 H88       -50.5429  -29.7422    7.0702 H         1 UNK         0.0720 
     89 H89       -49.5726  -30.4004   10.9299 H         1 UNK         0.0814 
     90 H90       -49.9962  -31.5743    9.7073 H         1 UNK         0.0814 
     91 H91       -50.9149  -28.0187    9.0812 H         1 UNK         0.1469 
     92 H92       -55.0263  -28.5862   10.0859 H         1 UNK         0.1381 
     93 H93       -52.2110  -31.7339   10.7972 H         1 UNK         0.1206 
     94 H94       -54.4949  -32.1038   11.3491 H         1 UNK         0.0813 
     95 H95       -55.1183  -30.6466   12.0814 H         1 UNK         0.0813 
     96 H96       -57.4124  -30.9652   12.2073 H         1 UNK         0.0638 
     97 H97       -58.5062  -31.3831   10.9223 H         1 UNK         0.0638 
     98 H98       -58.0264  -28.9930    9.9448 H         1 UNK         0.0568 
     99 H99       -60.2945  -29.4392    9.6474 H         1 UNK         0.3450 
    100 H100      -61.4498  -29.0395   10.8914 H         1 UNK         0.3450 
    101 H101      -56.6866  -28.7046   12.5500 H         1 UNK         0.2987 
    102 H102      -55.8325  -25.3264   11.8967 H         1 UNK         0.0766 
    103 H103      -57.4888  -26.4296   14.2232 H         1 UNK         0.0798 
    104 H104      -57.9482  -25.0916   13.1814 H         1 UNK         0.0798 
    105 H105      -56.5514  -24.9364   14.2352 H         1 UNK         0.0798 
    106 H106      -54.1304  -26.2782   12.8617 H         1 UNK         0.3198 
    107 H107      -53.6054  -28.8033   15.2793 H         1 UNK         0.0843 
    108 H108      -51.5761  -29.0705   13.8624 H         1 UNK         0.0831 
    109 H109      -52.3908  -28.2689   12.5189 H         1 UNK         0.0831 
    110 H110      -52.9788  -29.8124   13.1316 H         1 UNK         0.0831 
    111 H111      -52.0296  -26.5643   14.3598 H         1 UNK         0.3133 
    112 H112      -52.2672  -24.3561   15.8216 H         1 UNK         0.0566 
    113 H113      -51.6301  -23.9433   18.2079 H         1 UNK         0.0814 
    114 H114      -52.2727  -25.5225   18.6585 H         1 UNK         0.0814 
    115 H115      -53.3463  -24.2778   18.0398 H         1 UNK         0.0814 
    116 H116      -50.2426  -25.1720   15.5458 H         1 UNK         0.3091 
    117 H117      -48.1403  -27.4699   17.0814 H         1 UNK         0.0702 
    118 H118      -49.4362  -29.1307   15.7268 H         1 UNK         0.0785 
    119 H119      -49.5184  -27.9855   14.3930 H         1 UNK         0.0785 
    120 H120      -47.9645  -28.6402   14.9007 H         1 UNK         0.0785 
    121 H121      -48.0876  -26.0257   14.5613 H         1 UNK         0.2998 
    122 H122      -46.6664  -23.0511   16.0085 H         1 UNK         0.0697 
    123 H123      -45.6261  -25.1599   14.0436 H         1 UNK         0.0825 
    124 H124      -44.8138  -24.6690   15.5244 H         1 UNK         0.0825 
    125 H125      -45.0267  -23.5120   14.2210 H         1 UNK         0.0825 
    126 H126      -47.4241  -23.5560   13.3386 H         1 UNK         0.3029 
    127 H127      -50.8069  -22.3234   13.6121 H         1 UNK         0.0897 
    128 H128      -48.2479  -21.2915   12.2727 H         1 UNK         0.0792 
    129 H129      -49.8979  -20.8425   11.8500 H         1 UNK         0.0792 
    130 H130      -49.2351  -20.3819   13.4105 H         1 UNK         0.0792 
    131 H131      -49.3998  -23.2886   11.3531 H         1 UNK         0.3086 
    132 H132      -50.6048  -26.6762   11.5117 H         1 UNK         0.0583 
    133 H133      -51.0617  -24.1598    9.8176 H         1 UNK         0.1020 
    134 H134      -50.8890  -25.7193    9.0962 H         1 UNK         0.1020 
    135 H135      -54.3937  -26.6907    8.7905 H         1 UNK         0.0694 
    136 H136      -52.7968  -26.5395    8.1133 H         1 UNK         0.0694 
    137 H137      -48.6969  -25.6641    9.7674 H         1 UNK         0.2989 
    138 H138      -45.7201  -26.0635   11.6886 H         1 UNK         0.1055 
    139 H139      -46.8253  -27.4162    9.1669 H         1 UNK         0.0806 
    140 H140      -45.1299  -27.3133    9.6366 H         1 UNK         0.0806 
    141 H141      -46.2573  -28.2521   10.6018 H         1 UNK         0.0806 
    142 H142      -46.3037  -24.9911    9.0770 H         1 UNK         0.3061 
    143 H143      -46.5461  -21.5742   10.1033 H         1 UNK         0.0734 
    144 H144      -44.4304  -23.1298    8.5119 H         1 UNK         0.0832 
    145 H145      -44.7356  -21.3948    8.4170 H         1 UNK         0.0832 
    146 H146      -44.1101  -22.0979    9.8983 H         1 UNK         0.0832 
    147 H147      -46.7183  -22.8385    7.5443 H         1 UNK         0.3156 
    148 H148      -50.1934  -23.5733    7.5890 H         1 UNK         0.0589 
    149 H149      -50.2104  -22.0991    5.6005 H         1 UNK         0.0808 
    150 H150      -50.1230  -21.1324    7.0624 H         1 UNK         0.0808 
    151 H151      -48.6796  -21.3694    6.0875 H         1 UNK         0.0808 
    152 H152      -48.2885  -23.7819    5.5068 H         1 UNK         0.3098 
    153 H153      -47.7003  -25.8929    4.8036 H         1 UNK         0.0720 
    154 H154      -45.7018  -24.7697    5.8263 H         1 UNK         0.0791 
    155 H155      -45.2918  -26.3780    5.2612 H         1 UNK         0.0791 
    156 H156      -45.5358  -26.0854    6.9818 H         1 UNK         0.0791 
    157 H157      -46.8338  -28.0999    6.4483 H         1 UNK         0.3028 
@<TRIPOS>BOND
     1    1    2 1    
     2    1   82 1    
     3    1   83 1    
     4    1   84 1    
     5    2    3 2    
     6    2    4 am   BACKBONE|DICT|INTERRES
     7    4    5 1    
     8    4   85 1    
     9    5    6 1    
    10    5   80 1    
    11    5   86 1    
    12    6    7 1    
    13    6   87 1    
    14    6   88 1    
    15    7    8 1    
    16    8    9 1    
    17    8   89 1    
    18    8   90 1    
    19    9   10 ar   
    20    9   14 ar   
    21   10   11 ar   
    22   10   91 1    
    23   11   12 ar   
    24   11   58 1    
    25   12   13 ar   
    26   12   92 1    
    27   13   14 ar   
    28   13   15 1    
    29   14   93 1    
    30   15   16 1    
    31   15   94 1    
    32   15   95 1    
    33   16   17 1    
    34   17   18 1    
    35   17   96 1    
    36   17   97 1    
    37   18   19 1    
    38   18   22 1    
    39   18   98 1    
    40   19   20 am   BACKBONE|DICT|INTERRES
    41   19   21 2    
    42   20   99 1    
    43   20  100 1    
    44   22   23 am   BACKBONE|DICT|INTERRES
    45   22  101 1    
    46   23   24 2    
    47   23   25 1    
    48   25   26 1    
    49   25   27 1    
    50   25  102 1    
    51   26  103 1    
    52   26  104 1    
    53   26  105 1    
    54   27   28 am   BACKBONE|DICT|INTERRES
    55   27  106 1    
    56   28   29 2    
    57   28   30 1    
    58   30   31 1    
    59   30   32 1    
    60   30  107 1    
    61   31  108 1    
    62   31  109 1    
    63   31  110 1    
    64   32   33 am   BACKBONE|DICT|INTERRES
    65   32  111 1    
    66   33   34 2    
    67   33   35 1    
    68   35   36 1    
    69   35   37 1    
    70   35  112 1    
    71   36  113 1    
    72   36  114 1    
    73   36  115 1    
    74   37   38 am   BACKBONE|DICT|INTERRES
    75   37  116 1    
    76   38   39 2    
    77   38   40 1    
    78   40   41 1    
    79   40   42 1    
    80   40  117 1    
    81   41  118 1    
    82   41  119 1    
    83   41  120 1    
    84   42   43 am   BACKBONE|DICT|INTERRES
    85   42  121 1    
    86   43   44 2    
    87   43   45 1    
    88   45   46 1    
    89   45   47 1    
    90   45  122 1    
    91   46  123 1    
    92   46  124 1    
    93   46  125 1    
    94   47   48 am   BACKBONE|DICT|INTERRES
    95   47  126 1    
    96   48   49 2    
    97   48   50 1    
    98   50   51 1    
    99   50   52 1    
   100   50  127 1    
   101   51  128 1    
   102   51  129 1    
   103   51  130 1    
   104   52   53 am   BACKBONE|DICT|INTERRES
   105   52  131 1    
   106   53   54 2    
   107   53   55 1    
   108   55   56 1    
   109   55   59 1    
   110   55  132 1    
   111   56   57 1    
   112   56  133 1    
   113   56  134 1    
   114   57   58 1    
   115   58  135 1    
   116   58  136 1    
   117   59   60 am   BACKBONE|DICT|INTERRES
   118   59  137 1    
   119   60   61 2    
   120   60   62 1    
   121   62   63 1    
   122   62   64 1    
   123   62  138 1    
   124   63  139 1    
   125   63  140 1    
   126   63  141 1    
   127   64   65 am   BACKBONE|DICT|INTERRES
   128   64  142 1    
   129   65   66 2    
   130   65   67 1    
   131   67   68 1    
   132   67   69 1    
   133   67  143 1    
   134   68  144 1    
   135   68  145 1    
   136   68  146 1    
   137   69   70 am   BACKBONE|DICT|INTERRES
   138   69  147 1    
   139   70   71 2    
   140   70   72 1    
   141   72   73 1    
   142   72   74 1    
   143   72  148 1    
   144   73  149 1    
   145   73  150 1    
   146   73  151 1    
   147   74   75 am   BACKBONE|DICT|INTERRES
   148   74  152 1    
   149   75   76 2    
   150   75   77 1    
   151   77   78 1    
   152   77   79 1    
   153   77  153 1    
   154   78  154 1    
   155   78  155 1    
   156   78  156 1    
   157   79   80 am   BACKBONE|DICT|INTERRES
   158   79  157 1    
   159   80   81 2    
@<TRIPOS>SUBSTRUCTURE
     1 UNK         1 GROUP             0       ****    0 ROOT    
