@<TRIPOS>MOLECULE
3R207
157   159    1
SMALL
USER_CHARGES


@<TRIPOS>ATOM
      1 CA        -52.5211  -31.0856    2.5389 C.3       0 UNK        -0.1975 
      2 C         -52.5587  -30.4922    3.9396 C.2       0 UNK         0.4852 
      3 O         -53.5717  -30.6208    4.6288 O.2       0 UNK        -0.5216 
      4 N         -51.4651  -29.8455    4.3574 N.am      1 UNK        -0.4461 
      5 CA        -51.3184  -29.1589    5.6438 C.3       1 UNK         0.0864 
      6 C6        -50.3017  -29.8576    6.5867 C.3       14 UNK        -0.0898 
      7 S7        -50.5557  -31.6615    6.7728 S.3       14 UNK        -0.2598 
      8 C8        -51.8619  -31.7691    8.0491 C.3       14 UNK         0.0286 
      9 C9        -51.4857  -31.2519    9.4389 C.ar      14 UNK        -0.0844 
     10 C10       -50.1575  -31.0576    9.8358 C.ar      14 UNK        -0.0881 
     11 C11       -49.8587  -30.5006   11.0798 C.ar      14 UNK        -0.0643 
     12 C12       -50.8965  -30.1814   11.9589 C.ar      14 UNK        -0.0930 
     13 C13       -52.2297  -30.3956   11.5962 C.ar      14 UNK        -0.0827 
     14 C14       -52.5117  -30.9460   10.3392 C.ar      14 UNK        -0.1249 
     15 C15       -53.3312  -29.9826   12.5754 C.3       14 UNK         0.0141 
     16 S16       -54.9071  -29.4435   11.8202 S.3       14 UNK        -0.2313 
     17 C17       -54.4473  -28.1358   10.6283 C.3       14 UNK        -0.0915 
     18 CA        -53.2515  -27.2163   11.0061 C.3       13 UNK         0.0968 
     19 C         -52.8214  -26.3775    9.7701 C.2       13 UNK         0.5732 
     20 N         -53.2370  -25.1268    9.6310 N.am      13 UNK        -0.7310 
     21 O         -52.0878  -26.8806    8.9222 O.2       13 UNK        -0.5035 
     22 N         -53.4407  -26.4704   12.2642 N.am      13 UNK        -0.4233 
     23 C         -54.3352  -25.5143   12.5337 C.2       13 UNK         0.4989 
     24 O         -55.2183  -25.1496   11.7549 O.2       13 UNK        -0.4996 
     25 CA        -54.1568  -24.8147   13.8893 C.3       12 UNK         0.0216 
     26 CB        -54.8639  -23.4440   13.9659 C.3       12 UNK        -0.1964 
     27 N         -54.5254  -25.6779   15.0147 N.am      12 UNK        -0.4276 
     28 C         -55.7434  -26.1105   15.3726 C.2       12 UNK         0.5020 
     29 O         -56.7761  -25.8702   14.7449 O.2       12 UNK        -0.5489 
     30 CA        -55.8280  -26.8902   16.7033 C.3       11 UNK         0.0294 
     31 CB        -57.0893  -27.7764   16.8098 C.3       11 UNK        -0.2019 
     32 N         -54.6051  -27.6373   17.0339 N.am      11 UNK        -0.4493 
     33 C         -54.1276  -28.7227   16.4079 C.2       11 UNK         0.4932 
     34 O         -54.6958  -29.2863   15.4732 O.2       11 UNK        -0.5029 
     35 CA        -52.7680  -29.2469   16.9181 C.3       10 UNK         0.0280 
     36 CB        -52.2327  -30.4391   16.0981 C.3       10 UNK        -0.1976 
     37 N         -51.7182  -28.2218   17.0304 N.am      10 UNK        -0.4242 
     38 C         -51.3644  -27.3056   16.1155 C.2       10 UNK         0.5072 
     39 O         -51.9856  -27.0867   15.0748 O.2       10 UNK        -0.5224 
     40 CA        -50.0787  -26.5264   16.4158 C.3       9 UNK         0.0343 
     41 CB        -48.8487  -27.3588   16.0141 C.3       9 UNK        -0.2003 
     42 N         -50.0463  -25.2625   15.6768 N.am      9 UNK        -0.4272 
     43 C         -49.7047  -24.0797   16.2110 C.2       9 UNK         0.4988 
     44 O         -49.4565  -23.9313   17.4092 O.2       9 UNK        -0.5108 
     45 CA        -49.5972  -22.8486   15.2885 C.3       8 UNK         0.0248 
     46 CB        -48.2707  -22.1003   15.5171 C.3       8 UNK        -0.2001 
     47 N         -49.6818  -23.2000   13.8726 N.am      8 UNK        -0.4140 
     48 C         -50.6897  -22.8798   13.0504 C.2       8 UNK         0.5028 
     49 O         -51.6613  -22.2057   13.3923 O.2       8 UNK        -0.5428 
     50 CA        -50.6269  -23.4040   11.6008 C.3       7 UNK         0.0264 
     51 CB        -50.3037  -22.2636   10.6226 C.3       7 UNK        -0.1988 
     52 N         -49.6752  -24.4969   11.3814 N.am      7 UNK        -0.4454 
     53 C         -49.7188  -25.6908   11.9854 C.2       7 UNK         0.5027 
     54 O         -50.5961  -26.0108   12.7820 O.2       7 UNK        -0.5083 
     55 CA        -48.5629  -26.6671   11.7155 C.3       6 UNK         0.0844 
     56 C56       -48.8707  -27.5467   10.4855 C.3       14 UNK        -0.0967 
     57 S57       -47.6891  -28.9296   10.3273 S.3       14 UNK        -0.2604 
     58 C58       -48.4153  -30.1822   11.4413 C.3       14 UNK         0.0134 
     59 N         -47.2694  -25.9870   11.6086 N.am      6 UNK        -0.4116 
     60 C         -46.6734  -25.2917   12.5872 C.2       5 UNK         0.5034 
     61 O         -47.1565  -25.1222   13.7065 O.2       5 UNK        -0.5045 
     62 CA        -45.3217  -24.6502   12.2368 C.3       5 UNK         0.0224 
     63 CB        -44.1960  -25.6969   12.2646 C.3       5 UNK        -0.1978 
     64 N         -45.3536  -23.9917   10.9279 N.am      5 UNK        -0.4737 
     65 C         -45.9993  -22.8420   10.6878 C.2       4 UNK         0.5027 
     66 O         -46.5621  -22.1786   11.5583 O.2       4 UNK        -0.5211 
     67 CA        -46.0477  -22.3629    9.2256 C.3       4 UNK         0.0297 
     68 CB        -44.8016  -21.5268    8.8928 C.3       4 UNK        -0.1993 
     69 N         -46.1987  -23.4373    8.2340 N.am      4 UNK        -0.4486 
     70 C         -47.2199  -24.3034    8.1952 C.2       3 UNK         0.4961 
     71 O         -48.0948  -24.3692    9.0606 O.2       3 UNK        -0.5105 
     72 CA        -47.2582  -25.2827    7.0103 C.3       3 UNK         0.0299 
     73 CB        -46.4285  -26.5395    7.3157 C.3       3 UNK        -0.1972 
     74 N         -48.6407  -25.6722    6.7220 N.am      3 UNK        -0.4305 
     75 C         -49.5316  -24.8788    6.1111 C.2       2 UNK         0.5006 
     76 O         -49.2304  -23.8097    5.5756 O.2       2 UNK        -0.5106 
     77 CA        -51.0074  -25.3263    6.1367 C.3       2 UNK         0.0296 
     78 CB        -51.8339  -24.7387    4.9716 C.3       2 UNK        -0.2002 
     79 N         -51.2121  -26.7778    6.2495 N.am      2 UNK        -0.4032 
     80 C         -50.8850  -27.7106    5.3433 C.2       1 UNK         0.5000 
     81 O         -50.2627  -27.4681    4.3040 O.2       1 UNK        -0.5238 
     82 H82       -51.5682  -30.9007    2.0431 H         1 UNK         0.0889 
     83 H83       -53.3118  -30.6532    1.9264 H         1 UNK         0.0889 
     84 H84       -52.6753  -32.1633    2.5847 H         1 UNK         0.0889 
     85 H85       -50.6906  -29.7017    3.7230 H         1 UNK         0.3028 
     86 H86       -52.2836  -29.1117    6.1529 H         1 UNK         0.0864 
     87 H87       -49.2848  -29.7243    6.2120 H         1 UNK         0.0720 
     88 H88       -50.3193  -29.3878    7.5716 H         1 UNK         0.0720 
     89 H89       -52.1621  -32.8133    8.1429 H         1 UNK         0.0814 
     90 H90       -52.7371  -31.2297    7.6829 H         1 UNK         0.0814 
     91 H91       -49.3424  -31.2904    9.1658 H         1 UNK         0.1469 
     92 H92       -50.6670  -29.7345   12.9169 H         1 UNK         0.1381 
     93 H93       -53.5382  -31.1107   10.0428 H         1 UNK         0.1206 
     94 H94       -53.5406  -30.8246   13.2359 H         1 UNK         0.0813 
     95 H95       -52.9804  -29.1726   13.2166 H         1 UNK         0.0813 
     96 H96       -54.2398  -28.6463    9.6859 H         1 UNK         0.0638 
     97 H97       -55.3379  -27.5338   10.4421 H         1 UNK         0.0638 
     98 H98       -52.3813  -27.8362   11.2013 H         1 UNK         0.0568 
     99 H99       -53.9213  -24.7662   10.2845 H         1 UNK         0.3450 
    100 H100      -52.9638  -24.5891    8.8263 H         1 UNK         0.3450 
    101 H101      -52.7185  -26.6385   12.9590 H         1 UNK         0.2987 
    102 H102      -53.0880  -24.6239   14.0007 H         1 UNK         0.0766 
    103 H103      -54.5020  -22.7809   13.1791 H         1 UNK         0.0798 
    104 H104      -54.6684  -22.9505   14.9177 H         1 UNK         0.0798 
    105 H105      -55.9441  -23.5285   13.8446 H         1 UNK         0.0798 
    106 H106      -53.7337  -26.0634   15.5173 H         1 UNK         0.3198 
    107 H107      -55.9166  -26.1245   17.4757 H         1 UNK         0.0843 
    108 H108      -57.9954  -27.1722   16.7515 H         1 UNK         0.0831 
    109 H109      -57.1207  -28.3136   17.7575 H         1 UNK         0.0831 
    110 H110      -57.1413  -28.5092   16.0042 H         1 UNK         0.0831 
    111 H111      -54.0545  -27.2581   17.7927 H         1 UNK         0.3133 
    112 H112      -52.9544  -29.6097   17.9301 H         1 UNK         0.0566 
    113 H113      -51.3659  -30.8904   16.5807 H         1 UNK         0.0814 
    114 H114      -51.9294  -30.1342   15.0980 H         1 UNK         0.0814 
    115 H115      -52.9845  -31.2224   15.9929 H         1 UNK         0.0814 
    116 H116      -51.1518  -28.2849   17.8654 H         1 UNK         0.3091 
    117 H117      -50.0465  -26.3427   17.4916 H         1 UNK         0.0702 
    118 H118      -47.9229  -26.8206   16.2191 H         1 UNK         0.0785 
    119 H119      -48.8615  -27.6024   14.9513 H         1 UNK         0.0785 
    120 H120      -48.8073  -28.2991   16.5653 H         1 UNK         0.0785 
    121 H121      -50.3117  -25.3317   14.6986 H         1 UNK         0.2998 
    122 H122      -50.4145  -22.1798   15.5651 H         1 UNK         0.0697 
    123 H123      -47.4100  -22.7374   15.3086 H         1 UNK         0.0825 
    124 H124      -48.1820  -21.7562   16.5483 H         1 UNK         0.0825 
    125 H125      -48.1972  -21.2205   14.8774 H         1 UNK         0.0825 
    126 H126      -48.9253  -23.7732   13.5173 H         1 UNK         0.3029 
    127 H127      -51.6215  -23.7849   11.3666 H         1 UNK         0.0897 
    128 H128      -49.3045  -21.8608   10.7936 H         1 UNK         0.0792 
    129 H129      -51.0123  -21.4412   10.7294 H         1 UNK         0.0792 
    130 H130      -50.3547  -22.6032    9.5877 H         1 UNK         0.0792 
    131 H131      -48.9569  -24.3407   10.6750 H         1 UNK         0.3086 
    132 H132      -48.5050  -27.3204   12.5878 H         1 UNK         0.0583 
    133 H133      -49.8881  -27.9377   10.5251 H         1 UNK         0.1020 
    134 H134      -48.8340  -26.9510    9.5727 H         1 UNK         0.1020 
    135 H135      -47.8210  -31.0951   11.3842 H         1 UNK         0.0694 
    136 H136      -48.3398  -29.8294   12.4709 H         1 UNK         0.0694 
    137 H137      -46.8122  -26.0422   10.7119 H         1 UNK         0.2989 
    138 H138      -45.1063  -23.8975   12.9992 H         1 UNK         0.1055 
    139 H139      -44.3396  -26.4730   11.5117 H         1 UNK         0.0806 
    140 H140      -43.2232  -25.2366   12.0904 H         1 UNK         0.0806 
    141 H141      -44.1488  -26.1910   13.2362 H         1 UNK         0.0806 
    142 H142      -44.9040  -24.4616   10.1554 H         1 UNK         0.3061 
    143 H143      -46.9230  -21.7164    9.1315 H         1 UNK         0.0734 
    144 H144      -43.8907  -22.1259    8.9263 H         1 UNK         0.0832 
    145 H145      -44.8749  -21.0798    7.9012 H         1 UNK         0.0832 
    146 H146      -44.6793  -20.7092    9.6048 H         1 UNK         0.0832 
    147 H147      -45.5144  -23.4647    7.4912 H         1 UNK         0.3156 
    148 H148      -46.8379  -24.7920    6.1297 H         1 UNK         0.0589 
    149 H149      -46.4552  -27.2432    6.4834 H         1 UNK         0.0808 
    150 H150      -45.3818  -26.2862    7.4889 H         1 UNK         0.0808 
    151 H151      -46.7871  -27.0594    8.2029 H         1 UNK         0.0808 
    152 H152      -48.9792  -26.5126    7.1639 H         1 UNK         0.3098 
    153 H153      -51.4120  -24.9044    7.0573 H         1 UNK         0.0720 
    154 H154      -51.8160  -23.6483    4.9878 H         1 UNK         0.0791 
    155 H155      -52.8787  -25.0431    5.0333 H         1 UNK         0.0791 
    156 H156      -51.4483  -25.0543    4.0017 H         1 UNK         0.0791 
    157 H157      -51.6567  -27.0646    7.1206 H         1 UNK         0.3028 
@<TRIPOS>BOND
     1    1    2 1    
     2    1   82 1    
     3    1   83 1    
     4    1   84 1    
     5    2    3 2    
     6    2    4 am   BACKBONE|DICT|INTERRES
     7    4    5 1    
     8    4   85 1    
     9    5    6 1    
    10    5   80 1    
    11    5   86 1    
    12    6    7 1    
    13    6   87 1    
    14    6   88 1    
    15    7    8 1    
    16    8    9 1    
    17    8   89 1    
    18    8   90 1    
    19    9   10 ar   
    20    9   14 ar   
    21   10   11 ar   
    22   10   91 1    
    23   11   12 ar   
    24   11   58 1    
    25   12   13 ar   
    26   12   92 1    
    27   13   14 ar   
    28   13   15 1    
    29   14   93 1    
    30   15   16 1    
    31   15   94 1    
    32   15   95 1    
    33   16   17 1    
    34   17   18 1    
    35   17   96 1    
    36   17   97 1    
    37   18   19 1    
    38   18   22 1    
    39   18   98 1    
    40   19   20 am   BACKBONE|DICT|INTERRES
    41   19   21 2    
    42   20   99 1    
    43   20  100 1    
    44   22   23 am   BACKBONE|DICT|INTERRES
    45   22  101 1    
    46   23   24 2    
    47   23   25 1    
    48   25   26 1    
    49   25   27 1    
    50   25  102 1    
    51   26  103 1    
    52   26  104 1    
    53   26  105 1    
    54   27   28 am   BACKBONE|DICT|INTERRES
    55   27  106 1    
    56   28   29 2    
    57   28   30 1    
    58   30   31 1    
    59   30   32 1    
    60   30  107 1    
    61   31  108 1    
    62   31  109 1    
    63   31  110 1    
    64   32   33 am   BACKBONE|DICT|INTERRES
    65   32  111 1    
    66   33   34 2    
    67   33   35 1    
    68   35   36 1    
    69   35   37 1    
    70   35  112 1    
    71   36  113 1    
    72   36  114 1    
    73   36  115 1    
    74   37   38 am   BACKBONE|DICT|INTERRES
    75   37  116 1    
    76   38   39 2    
    77   38   40 1    
    78   40   41 1    
    79   40   42 1    
    80   40  117 1    
    81   41  118 1    
    82   41  119 1    
    83   41  120 1    
    84   42   43 am   BACKBONE|DICT|INTERRES
    85   42  121 1    
    86   43   44 2    
    87   43   45 1    
    88   45   46 1    
    89   45   47 1    
    90   45  122 1    
    91   46  123 1    
    92   46  124 1    
    93   46  125 1    
    94   47   48 am   BACKBONE|DICT|INTERRES
    95   47  126 1    
    96   48   49 2    
    97   48   50 1    
    98   50   51 1    
    99   50   52 1    
   100   50  127 1    
   101   51  128 1    
   102   51  129 1    
   103   51  130 1    
   104   52   53 am   BACKBONE|DICT|INTERRES
   105   52  131 1    
   106   53   54 2    
   107   53   55 1    
   108   55   56 1    
   109   55   59 1    
   110   55  132 1    
   111   56   57 1    
   112   56  133 1    
   113   56  134 1    
   114   57   58 1    
   115   58  135 1    
   116   58  136 1    
   117   59   60 am   BACKBONE|DICT|INTERRES
   118   59  137 1    
   119   60   61 2    
   120   60   62 1    
   121   62   63 1    
   122   62   64 1    
   123   62  138 1    
   124   63  139 1    
   125   63  140 1    
   126   63  141 1    
   127   64   65 am   BACKBONE|DICT|INTERRES
   128   64  142 1    
   129   65   66 2    
   130   65   67 1    
   131   67   68 1    
   132   67   69 1    
   133   67  143 1    
   134   68  144 1    
   135   68  145 1    
   136   68  146 1    
   137   69   70 am   BACKBONE|DICT|INTERRES
   138   69  147 1    
   139   70   71 2    
   140   70   72 1    
   141   72   73 1    
   142   72   74 1    
   143   72  148 1    
   144   73  149 1    
   145   73  150 1    
   146   73  151 1    
   147   74   75 am   BACKBONE|DICT|INTERRES
   148   74  152 1    
   149   75   76 2    
   150   75   77 1    
   151   77   78 1    
   152   77   79 1    
   153   77  153 1    
   154   78  154 1    
   155   78  155 1    
   156   78  156 1    
   157   79   80 am   BACKBONE|DICT|INTERRES
   158   79  157 1    
   159   80   81 2    
@<TRIPOS>SUBSTRUCTURE
     1 UNK         1 GROUP             0       ****    0 ROOT    
