@<TRIPOS>MOLECULE
3R207
157   159    1
SMALL
USER_CHARGES


@<TRIPOS>ATOM
      1 CA        -49.4520  -32.5465    5.0258 C.3       0 UNK        -0.1975 
      2 C         -49.6220  -31.1590    4.4249 C.2       0 UNK         0.4852 
      3 O         -49.0373  -30.8696    3.3804 O.2       0 UNK        -0.5216 
      4 N         -50.4180  -30.2998    5.0770 N.am      1 UNK        -0.4461 
      5 CA        -50.6868  -28.9179    4.6554 C.3       1 UNK         0.0864 
      6 C6        -51.9425  -28.3568    5.3691 C.3       14 UNK        -0.0898 
      7 S7        -52.7758  -27.0449    4.4130 S.3       14 UNK        -0.2598 
      8 C8        -54.3911  -26.9582    5.2528 C.3       14 UNK         0.0286 
      9 C9        -54.2392  -26.6629    6.7379 C.ar      14 UNK        -0.0844 
     10 C10       -53.8077  -25.4042    7.1638 C.ar      14 UNK        -0.0881 
     11 C11       -53.6080  -25.1436    8.5224 C.ar      14 UNK        -0.0643 
     12 C12       -53.8679  -26.1483    9.4624 C.ar      14 UNK        -0.0930 
     13 C13       -54.3268  -27.4037    9.0481 C.ar      14 UNK        -0.0827 
     14 C14       -54.5062  -27.6551    7.6850 C.ar      14 UNK        -0.1249 
     15 C15       -54.6422  -28.4936   10.0615 C.3       14 UNK         0.0141 
     16 S16       -53.2084  -29.5765   10.3415 S.3       14 UNK        -0.2313 
     17 C17       -54.0116  -31.0321   11.0963 C.3       14 UNK        -0.0915 
     18 CA        -54.3514  -30.8474   12.6042 C.3       13 UNK         0.0968 
     19 C         -55.1719  -32.0329   13.1987 C.2       13 UNK         0.5732 
     20 N         -55.0419  -32.3485   14.4828 N.am      13 UNK        -0.7310 
     21 O         -55.9651  -32.6587   12.4990 O.2       13 UNK        -0.5035 
     22 N         -53.1975  -30.4392   13.4213 N.am      13 UNK        -0.4233 
     23 C         -52.0921  -31.1590   13.6669 C.2       13 UNK         0.4989 
     24 O         -51.8744  -32.2709   13.1845 O.2       13 UNK        -0.4996 
     25 CA        -51.0443  -30.5500   14.6220 C.3       12 UNK         0.0216 
     26 CB        -49.7942  -30.1119   13.8427 C.3       12 UNK        -0.1964 
     27 N         -51.5451  -29.4105   15.3956 N.am      12 UNK        -0.4276 
     28 C         -52.4510  -29.4860   16.3807 C.2       12 UNK         0.5020 
     29 O         -52.9072  -30.5451   16.8128 O.2       12 UNK        -0.5489 
     30 CA        -52.9774  -28.1491   16.9319 C.3       11 UNK         0.0294 
     31 CB        -52.1618  -27.7173   18.1599 C.3       11 UNK        -0.2019 
     32 N         -52.9834  -27.0708   15.9323 N.am      11 UNK        -0.4493 
     33 C         -53.7407  -27.0724   14.8210 C.2       11 UNK         0.4932 
     34 O         -54.4923  -28.0022   14.5272 O.2       11 UNK        -0.5029 
     35 CA        -53.6080  -25.8941   13.8368 C.3       10 UNK         0.0280 
     36 CB        -54.9616  -25.4750   13.2244 C.3       10 UNK        -0.1976 
     37 N         -52.8776  -24.7427   14.3755 N.am      10 UNK        -0.4242 
     38 C         -53.2618  -23.9086   15.3538 C.2       10 UNK         0.5072 
     39 O         -54.3511  -23.9770   15.9256 O.2       10 UNK        -0.5224 
     40 CA        -52.2489  -22.8228   15.7705 C.3       9 UNK         0.0343 
     41 CB        -52.4990  -22.2917   17.1984 C.3       9 UNK        -0.2003 
     42 N         -50.8440  -23.2224   15.6115 N.am      9 UNK        -0.4272 
     43 C         -50.2151  -24.2506   16.2039 C.2       9 UNK         0.4988 
     44 O         -50.7938  -25.0571   16.9324 O.2       9 UNK        -0.5108 
     45 CA        -48.7049  -24.4369   15.9316 C.3       8 UNK         0.0248 
     46 CB        -48.3355  -25.9260   15.7938 C.3       8 UNK        -0.2001 
     47 N         -48.2340  -23.7180   14.7438 N.am      8 UNK        -0.4140 
     48 C         -47.9021  -22.4200   14.6931 C.2       8 UNK         0.5028 
     49 O         -47.8575  -21.6861   15.6802 O.2       8 UNK        -0.5428 
     50 CA        -47.6473  -21.8220   13.2958 C.3       7 UNK         0.0264 
     51 CB        -46.1688  -21.9648   12.9034 C.3       7 UNK        -0.1988 
     52 N         -48.4931  -22.4200   12.2562 N.am      7 UNK        -0.4454 
     53 C         -49.8341  -22.3623   12.2297 C.2       7 UNK         0.5027 
     54 O         -50.5034  -21.7112   13.0320 O.2       7 UNK        -0.5083 
     55 CA        -50.5516  -23.2367   11.1842 C.3       6 UNK         0.0844 
     56 C56       -50.7253  -22.4915    9.8366 C.3       14 UNK        -0.0967 
     57 S57       -51.3473  -23.5710    8.5020 S.3       14 UNK        -0.2604 
     58 C58       -53.0963  -23.7806    8.9637 C.3       14 UNK         0.0134 
     59 N         -49.8937  -24.5359   11.0380 N.am      6 UNK        -0.4116 
     60 C         -49.8999  -25.5063   11.9584 C.2       5 UNK         0.5034 
     61 O         -50.4636  -25.4164   13.0475 O.2       5 UNK        -0.5045 
     62 CA        -49.1072  -26.7744   11.6187 C.3       5 UNK         0.0224 
     63 CB        -49.9534  -27.7154   10.7479 C.3       5 UNK        -0.1978 
     64 N         -47.8446  -26.4611   10.9456 N.am      5 UNK        -0.4737 
     65 C         -46.8118  -25.8593   11.5571 C.2       4 UNK         0.5027 
     66 O         -46.8021  -25.5828   12.7558 O.2       4 UNK        -0.5211 
     67 CA        -45.6096  -25.4517   10.6862 C.3       4 UNK         0.0297 
     68 CB        -44.5752  -26.5869   10.6380 C.3       4 UNK        -0.1993 
     69 N         -45.9818  -25.0749    9.3210 N.am      4 UNK        -0.4486 
     70 C         -46.8142  -24.0765    8.9910 C.2       3 UNK         0.4961 
     71 O         -47.2994  -23.2953    9.8088 O.2       3 UNK        -0.5105 
     72 CA        -47.2128  -23.9559    7.5083 C.3       3 UNK         0.0299 
     73 CB        -46.4060  -22.8397    6.8272 C.3       3 UNK        -0.1972 
     74 N         -47.0663  -25.2021    6.7434 N.am      3 UNK        -0.4305 
     75 C         -47.7361  -26.3372    6.9893 C.2       2 UNK         0.5006 
     76 O         -48.5378  -26.4758    7.9155 O.2       2 UNK        -0.5106 
     77 CA        -47.3808  -27.5447    6.1115 C.3       2 UNK         0.0296 
     78 CB        -46.3764  -28.4535    6.8402 C.3       2 UNK        -0.2002 
     79 N         -48.5762  -28.3197    5.7848 N.am      2 UNK        -0.4032 
     80 C         -49.4612  -27.9888    4.8333 C.2       1 UNK         0.5000 
     81 O         -49.3241  -27.0129    4.0921 O.2       1 UNK        -0.5238 
     82 H82       -50.0265  -32.6677    5.9440 H         1 UNK         0.0889 
     83 H83       -48.4026  -32.7296    5.2557 H         1 UNK         0.0889 
     84 H84       -49.7828  -33.3050    4.3168 H         1 UNK         0.0889 
     85 H85       -50.8802  -30.6001    5.9240 H         1 UNK         0.3028 
     86 H86       -50.8968  -28.9575    3.5839 H         1 UNK         0.0864 
     87 H87       -51.7014  -27.9848    6.3676 H         1 UNK         0.0720 
     88 H88       -52.6743  -29.1533    5.5151 H         1 UNK         0.0720 
     89 H89       -54.9284  -27.8947    5.0948 H         1 UNK         0.0814 
     90 H90       -54.9937  -26.1771    4.7873 H         1 UNK         0.0814 
     91 H91       -53.5921  -24.6358    6.4337 H         1 UNK         0.1469 
     92 H92       -53.7110  -25.9556   10.5143 H         1 UNK         0.1381 
     93 H93       -54.8429  -28.6309    7.3620 H         1 UNK         0.1206 
     94 H94       -55.4882  -29.0842    9.7070 H         1 UNK         0.0813 
     95 H95       -54.9508  -28.0542   11.0107 H         1 UNK         0.0813 
     96 H96       -54.9114  -31.2577   10.5217 H         1 UNK         0.0638 
     97 H97       -53.3511  -31.8893   10.9594 H         1 UNK         0.0638 
     98 H98       -55.0416  -30.0059   12.6647 H         1 UNK         0.0568 
     99 H99       -54.4089  -31.8349   15.0775 H         1 UNK         0.3450 
    100 H100      -55.5850  -33.1086   14.8603 H         1 UNK         0.3450 
    101 H101      -53.3220  -29.5540   13.8970 H         1 UNK         0.2987 
    102 H102      -50.7528  -31.3335   15.3248 H         1 UNK         0.0766 
    103 H103      -50.0319  -29.3404   13.1123 H         1 UNK         0.0798 
    104 H104      -49.3589  -30.9510   13.2981 H         1 UNK         0.0798 
    105 H105      -49.0226  -29.7234   14.5078 H         1 UNK         0.0798 
    106 H106      -51.2307  -28.4928   15.1156 H         1 UNK         0.3198 
    107 H107      -54.0103  -28.3099   17.2483 H         1 UNK         0.0843 
    108 H108      -52.5440  -26.7892   18.5856 H         1 UNK         0.0831 
    109 H109      -51.1103  -27.5643   17.9136 H         1 UNK         0.0831 
    110 H110      -52.2053  -28.4757   18.9428 H         1 UNK         0.0831 
    111 H111      -52.3786  -26.2770   16.1177 H         1 UNK         0.3133 
    112 H112      -52.9949  -26.2723   13.0181 H         1 UNK         0.0566 
    113 H113      -55.4202  -26.3024   12.6824 H         1 UNK         0.0814 
    114 H114      -55.6741  -25.1606   13.9872 H         1 UNK         0.0814 
    115 H115      -54.8412  -24.6540   12.5177 H         1 UNK         0.0814 
    116 H116      -51.9333  -24.6474   14.0089 H         1 UNK         0.3091 
    117 H117      -52.4044  -21.9925   15.0804 H         1 UNK         0.0702 
    118 H118      -51.7844  -21.5121   17.4622 H         1 UNK         0.0785 
    119 H119      -52.4216  -23.0844   17.9433 H         1 UNK         0.0785 
    120 H120      -53.4958  -21.8579   17.2875 H         1 UNK         0.0785 
    121 H121      -50.3106  -22.6419   14.9756 H         1 UNK         0.2998 
    122 H122      -48.1795  -24.0451   16.8047 H         1 UNK         0.0697 
    123 H123      -47.2687  -26.0546   15.6099 H         1 UNK         0.0825 
    124 H124      -48.5737  -26.4781   16.7038 H         1 UNK         0.0825 
    125 H125      -48.8740  -26.4015   14.9743 H         1 UNK         0.0825 
    126 H126      -48.1920  -24.2567   13.8867 H         1 UNK         0.3029 
    127 H127      -47.8879  -20.7578   13.3433 H         1 UNK         0.0897 
    128 H128      -45.9723  -21.5274   11.9242 H         1 UNK         0.0792 
    129 H129      -45.5251  -21.4562   13.6223 H         1 UNK         0.0792 
    130 H130      -45.8589  -23.0092   12.8726 H         1 UNK         0.0792 
    131 H131      -48.0182  -22.9139   11.5028 H         1 UNK         0.3086 
    132 H132      -51.5486  -23.4338   11.5827 H         1 UNK         0.0583 
    133 H133      -51.3994  -21.6405    9.9526 H         1 UNK         0.1020 
    134 H134      -49.7720  -22.0785    9.5005 H         1 UNK         0.1020 
    135 H135      -53.2249  -23.6638   10.0398 H         1 UNK         0.0694 
    136 H136      -53.6886  -22.9925    8.4967 H         1 UNK         0.0694 
    137 H137      -49.4006  -24.6911   10.1702 H         1 UNK         0.2989 
    138 H138      -48.8759  -27.2827   12.5569 H         1 UNK         0.1055 
    139 H139      -50.8787  -27.9824   11.2590 H         1 UNK         0.0806 
    140 H140      -50.2350  -27.2550    9.8000 H         1 UNK         0.0806 
    141 H141      -49.4238  -28.6422   10.5276 H         1 UNK         0.0806 
    142 H142      -47.8102  -26.6134    9.9435 H         1 UNK         0.3061 
    143 H143      -45.1433  -24.5818   11.1524 H         1 UNK         0.0734 
    144 H144      -43.6775  -26.2852   10.0982 H         1 UNK         0.0832 
    145 H145      -44.2646  -26.8725   11.6441 H         1 UNK         0.0832 
    146 H146      -44.9754  -27.4797   10.1555 H         1 UNK         0.0832 
    147 H147      -45.6245  -25.6544    8.5765 H         1 UNK         0.3156 
    148 H148      -48.2686  -23.6778    7.4823 H         1 UNK         0.0589 
    149 H149      -46.7434  -22.6725    5.8041 H         1 UNK         0.0808 
    150 H150      -46.5203  -21.8950    7.3612 H         1 UNK         0.0808 
    151 H151      -45.3402  -23.0702    6.7982 H         1 UNK         0.0808 
    152 H152      -46.4144  -25.1818    5.9717 H         1 UNK         0.3098 
    153 H153      -46.9229  -27.1953    5.1834 H         1 UNK         0.0720 
    154 H154      -45.4533  -27.9177    7.0649 H         1 UNK         0.0791 
    155 H155      -46.7766  -28.8244    7.7851 H         1 UNK         0.0791 
    156 H156      -46.1070  -29.3155    6.2294 H         1 UNK         0.0791 
    157 H157      -48.7775  -29.1152    6.3717 H         1 UNK         0.3028 
@<TRIPOS>BOND
     1    1    2 1    
     2    1   82 1    
     3    1   83 1    
     4    1   84 1    
     5    2    3 2    
     6    2    4 am   BACKBONE|DICT|INTERRES
     7    4    5 1    
     8    4   85 1    
     9    5    6 1    
    10    5   80 1    
    11    5   86 1    
    12    6    7 1    
    13    6   87 1    
    14    6   88 1    
    15    7    8 1    
    16    8    9 1    
    17    8   89 1    
    18    8   90 1    
    19    9   10 ar   
    20    9   14 ar   
    21   10   11 ar   
    22   10   91 1    
    23   11   12 ar   
    24   11   58 1    
    25   12   13 ar   
    26   12   92 1    
    27   13   14 ar   
    28   13   15 1    
    29   14   93 1    
    30   15   16 1    
    31   15   94 1    
    32   15   95 1    
    33   16   17 1    
    34   17   18 1    
    35   17   96 1    
    36   17   97 1    
    37   18   19 1    
    38   18   22 1    
    39   18   98 1    
    40   19   20 am   BACKBONE|DICT|INTERRES
    41   19   21 2    
    42   20   99 1    
    43   20  100 1    
    44   22   23 am   BACKBONE|DICT|INTERRES
    45   22  101 1    
    46   23   24 2    
    47   23   25 1    
    48   25   26 1    
    49   25   27 1    
    50   25  102 1    
    51   26  103 1    
    52   26  104 1    
    53   26  105 1    
    54   27   28 am   BACKBONE|DICT|INTERRES
    55   27  106 1    
    56   28   29 2    
    57   28   30 1    
    58   30   31 1    
    59   30   32 1    
    60   30  107 1    
    61   31  108 1    
    62   31  109 1    
    63   31  110 1    
    64   32   33 am   BACKBONE|DICT|INTERRES
    65   32  111 1    
    66   33   34 2    
    67   33   35 1    
    68   35   36 1    
    69   35   37 1    
    70   35  112 1    
    71   36  113 1    
    72   36  114 1    
    73   36  115 1    
    74   37   38 am   BACKBONE|DICT|INTERRES
    75   37  116 1    
    76   38   39 2    
    77   38   40 1    
    78   40   41 1    
    79   40   42 1    
    80   40  117 1    
    81   41  118 1    
    82   41  119 1    
    83   41  120 1    
    84   42   43 am   BACKBONE|DICT|INTERRES
    85   42  121 1    
    86   43   44 2    
    87   43   45 1    
    88   45   46 1    
    89   45   47 1    
    90   45  122 1    
    91   46  123 1    
    92   46  124 1    
    93   46  125 1    
    94   47   48 am   BACKBONE|DICT|INTERRES
    95   47  126 1    
    96   48   49 2    
    97   48   50 1    
    98   50   51 1    
    99   50   52 1    
   100   50  127 1    
   101   51  128 1    
   102   51  129 1    
   103   51  130 1    
   104   52   53 am   BACKBONE|DICT|INTERRES
   105   52  131 1    
   106   53   54 2    
   107   53   55 1    
   108   55   56 1    
   109   55   59 1    
   110   55  132 1    
   111   56   57 1    
   112   56  133 1    
   113   56  134 1    
   114   57   58 1    
   115   58  135 1    
   116   58  136 1    
   117   59   60 am   BACKBONE|DICT|INTERRES
   118   59  137 1    
   119   60   61 2    
   120   60   62 1    
   121   62   63 1    
   122   62   64 1    
   123   62  138 1    
   124   63  139 1    
   125   63  140 1    
   126   63  141 1    
   127   64   65 am   BACKBONE|DICT|INTERRES
   128   64  142 1    
   129   65   66 2    
   130   65   67 1    
   131   67   68 1    
   132   67   69 1    
   133   67  143 1    
   134   68  144 1    
   135   68  145 1    
   136   68  146 1    
   137   69   70 am   BACKBONE|DICT|INTERRES
   138   69  147 1    
   139   70   71 2    
   140   70   72 1    
   141   72   73 1    
   142   72   74 1    
   143   72  148 1    
   144   73  149 1    
   145   73  150 1    
   146   73  151 1    
   147   74   75 am   BACKBONE|DICT|INTERRES
   148   74  152 1    
   149   75   76 2    
   150   75   77 1    
   151   77   78 1    
   152   77   79 1    
   153   77  153 1    
   154   78  154 1    
   155   78  155 1    
   156   78  156 1    
   157   79   80 am   BACKBONE|DICT|INTERRES
   158   79  157 1    
   159   80   81 2    
@<TRIPOS>SUBSTRUCTURE
     1 UNK         1 GROUP             0       ****    0 ROOT    
