@<TRIPOS>MOLECULE
3R207
157   159    1
SMALL
USER_CHARGES


@<TRIPOS>ATOM
      1 CA        -50.4179  -29.4514   10.2447 C.3       0 UNK        -0.1975 
      2 C         -49.5757  -29.8685    9.0484 C.2       0 UNK         0.4852 
      3 O         -48.6653  -30.6841    9.2020 O.2       0 UNK        -0.5216 
      4 N         -49.8768  -29.3288    7.8590 N.am      1 UNK        -0.4461 
      5 CA        -49.1216  -29.5677    6.6248 C.3       1 UNK         0.0864 
      6 C6        -49.9527  -29.2278    5.3598 C.3       14 UNK        -0.0898 
      7 S7        -50.4671  -27.4792    5.2155 S.3       14 UNK        -0.2598 
      8 C8        -52.2825  -27.6071    5.1607 C.3       14 UNK         0.0286 
      9 C9        -52.8797  -27.7075    6.5554 C.ar      14 UNK        -0.0844 
     10 C10       -53.2025  -26.5446    7.2604 C.ar      14 UNK        -0.0881 
     11 C11       -53.7507  -26.6263    8.5417 C.ar      14 UNK        -0.0643 
     12 C12       -53.9613  -27.8794    9.1205 C.ar      14 UNK        -0.0930 
     13 C13       -53.6526  -29.0566    8.4272 C.ar      14 UNK        -0.0827 
     14 C14       -53.1201  -28.9559    7.1378 C.ar      14 UNK        -0.1249 
     15 C15       -53.8526  -30.4532    9.0230 C.3       14 UNK         0.0141 
     16 S16       -54.2234  -30.5139   10.8135 S.3       14 UNK        -0.2313 
     17 C17       -56.0526  -30.5168   10.8456 C.3       14 UNK        -0.0915 
     18 CA        -56.7021  -29.1327   11.1226 C.3       13 UNK         0.0968 
     19 C         -58.2539  -29.2493   11.1588 C.2       13 UNK         0.5732 
     20 N         -58.9180  -28.9918   12.2796 N.am      13 UNK        -0.7310 
     21 O         -58.8680  -29.5743   10.1454 O.2       13 UNK        -0.5035 
     22 N         -56.1084  -28.4739   12.2971 N.am      13 UNK        -0.4233 
     23 C         -56.1610  -27.1677   12.5739 C.2       13 UNK         0.4989 
     24 O         -56.7143  -26.3435   11.8466 O.2       13 UNK        -0.4996 
     25 CA        -55.4844  -26.6758   13.8708 C.3       12 UNK         0.0216 
     26 CB        -56.4880  -26.6790   15.0397 C.3       12 UNK        -0.1964 
     27 N         -54.2340  -27.3535   14.2545 N.am      12 UNK        -0.4276 
     28 C         -54.0282  -28.6411   14.5791 C.2       12 UNK         0.5020 
     29 O         -54.9001  -29.5103   14.5586 O.2       12 UNK        -0.5489 
     30 CA        -52.6016  -29.0220   14.9964 C.3       11 UNK         0.0294 
     31 CB        -51.7344  -29.3059   13.7586 C.3       11 UNK        -0.2019 
     32 N         -51.9848  -27.9623   15.7911 N.am      11 UNK        -0.4493 
     33 C         -52.1698  -27.7781   17.1047 C.2       11 UNK         0.4932 
     34 O         -52.8383  -28.5315   17.8143 O.2       11 UNK        -0.5029 
     35 CA        -51.4960  -26.5321   17.7155 C.3       10 UNK         0.0280 
     36 CB        -51.3180  -26.6267   19.2456 C.3       10 UNK        -0.1976 
     37 N         -50.2311  -26.1887   17.0535 N.am      10 UNK        -0.4242 
     38 C         -49.1148  -26.9329   16.9829 C.2       10 UNK         0.5072 
     39 O         -48.9710  -28.0163   17.5508 O.2       10 UNK        -0.5224 
     40 CA        -47.9681  -26.4038   16.0996 C.3       9 UNK         0.0343 
     41 CB        -47.8708  -27.2344   14.8084 C.3       9 UNK        -0.2003 
     42 N         -48.1064  -24.9916   15.7374 N.am      9 UNK        -0.4272 
     43 C         -47.9427  -23.9596   16.5763 C.2       9 UNK         0.4988 
     44 O         -47.5862  -24.0752   17.7490 O.2       9 UNK        -0.5108 
     45 CA        -48.2700  -22.5663   16.0167 C.3       8 UNK         0.0248 
     46 CB        -47.0696  -21.9933   15.2463 C.3       8 UNK        -0.2001 
     47 N         -49.4535  -22.5756   15.1509 N.am      8 UNK        -0.4140 
     48 C         -50.7117  -22.7574   15.5790 C.2       8 UNK         0.5028 
     49 O         -51.0162  -22.9381   16.7575 O.2       8 UNK        -0.5428 
     50 CA        -51.8126  -22.7699   14.5063 C.3       7 UNK         0.0264 
     51 CB        -52.1834  -21.3389   14.0850 C.3       7 UNK        -0.1988 
     52 N         -51.4229  -23.5446   13.3277 N.am      7 UNK        -0.4454 
     53 C         -51.3676  -24.8827   13.2936 C.2       7 UNK         0.5027 
     54 O         -51.7110  -25.6090   14.2288 O.2       7 UNK        -0.5083 
     55 CA        -50.8297  -25.5376   12.0082 C.3       6 UNK         0.0844 
     56 C56       -51.9778  -25.9575   11.0611 C.3       14 UNK        -0.0967 
     57 S57       -52.6747  -24.5785   10.0842 S.3       14 UNK        -0.2604 
     58 C58       -54.1194  -25.3651    9.3093 C.3       14 UNK         0.0134 
     59 N         -49.8127  -24.7543   11.3035 N.am      6 UNK        -0.4116 
     60 C         -48.6244  -24.3609   11.7749 C.2       5 UNK         0.5034 
     61 O         -48.2748  -24.5234   12.9441 O.2       5 UNK        -0.5045 
     62 CA        -47.6677  -23.6874   10.7682 C.3       5 UNK         0.0224 
     63 CB        -46.1961  -23.7852   11.2113 C.3       5 UNK        -0.1978 
     64 N         -47.7886  -24.2539    9.4192 N.am      5 UNK        -0.4737 
     65 C         -48.7053  -23.9113    8.5037 C.2       4 UNK         0.5027 
     66 O         -49.5649  -23.0537    8.7040 O.2       4 UNK        -0.5211 
     67 CA        -48.6842  -24.6973    7.1798 C.3       4 UNK         0.0297 
     68 CB        -49.4024  -23.9644    6.0267 C.3       4 UNK        -0.1993 
     69 N         -47.3330  -25.1292    6.7995 N.am      4 UNK        -0.4486 
     70 C         -46.3011  -24.3524    6.4308 C.2       3 UNK         0.4961 
     71 O         -46.3769  -23.1300    6.3025 O.2       3 UNK        -0.5105 
     72 CA        -44.9357  -25.0305    6.1917 C.3       3 UNK         0.0299 
     73 CB        -43.9051  -24.5372    7.2227 C.3       3 UNK        -0.1972 
     74 N         -44.9769  -26.4941    6.2394 N.am      3 UNK        -0.4305 
     75 C         -45.4499  -27.2927    5.2736 C.2       2 UNK         0.5006 
     76 O         -45.8776  -26.8853    4.1929 O.2       2 UNK        -0.5106 
     77 CA        -45.4739  -28.8063    5.5683 C.3       2 UNK         0.0296 
     78 CB        -44.5765  -29.2338    6.7536 C.3       2 UNK        -0.2002 
     79 N         -46.8417  -29.3049    5.7596 N.am      2 UNK        -0.4032 
     80 C         -47.7497  -28.8550    6.6409 C.2       1 UNK         0.5000 
     81 O         -47.5430  -27.9201    7.4229 O.2       1 UNK        -0.5238 
     82 H82       -49.8415  -28.8023   10.9031 H         1 UNK         0.0889 
     83 H83       -50.7266  -30.3287   10.8126 H         1 UNK         0.0889 
     84 H84       -51.3171  -28.9228    9.9380 H         1 UNK         0.0889 
     85 H85       -50.6223  -28.6504    7.7818 H         1 UNK         0.3028 
     86 H86       -48.9104  -30.6389    6.5859 H         1 UNK         0.0864 
     87 H87       -49.3926  -29.4824    4.4585 H         1 UNK         0.0720 
     88 H88       -50.8342  -29.8687    5.3309 H         1 UNK         0.0720 
     89 H89       -52.5836  -28.4577    4.5473 H         1 UNK         0.0814 
     90 H90       -52.6768  -26.7229    4.6575 H         1 UNK         0.0814 
     91 H91       -53.0234  -25.5751    6.8156 H         1 UNK         0.1469 
     92 H92       -54.3552  -27.9183   10.1230 H         1 UNK         0.1381 
     93 H93       -52.8783  -29.8563    6.5898 H         1 UNK         0.1206 
     94 H94       -54.6289  -30.9755    8.4630 H         1 UNK         0.0813 
     95 H95       -52.9358  -31.0237    8.8673 H         1 UNK         0.0813 
     96 H96       -56.3527  -31.2242   11.6209 H         1 UNK         0.0638 
     97 H97       -56.4256  -30.9311    9.9076 H         1 UNK         0.0638 
     98 H98       -56.4972  -28.4995   10.2593 H         1 UNK         0.0568 
     99 H99       -58.4238  -28.7297   13.1167 H         1 UNK         0.3450 
    100 H100      -59.9228  -29.0677   12.2867 H         1 UNK         0.3450 
    101 H101      -55.6668  -29.0807   12.9854 H         1 UNK         0.2987 
    102 H102      -55.2018  -25.6375   13.6879 H         1 UNK         0.0766 
    103 H103      -56.0550  -26.2297   15.9335 H         1 UNK         0.0798 
    104 H104      -56.8115  -27.6882   15.2967 H         1 UNK         0.0798 
    105 H105      -57.3815  -26.1051   14.7897 H         1 UNK         0.0798 
    106 H106      -53.4235  -26.7442   14.3029 H         1 UNK         0.3198 
    107 H107      -52.6541  -29.9338   15.5957 H         1 UNK         0.0843 
    108 H108      -52.1522  -30.1266   13.1737 H         1 UNK         0.0831 
    109 H109      -50.7215  -29.5936   14.0411 H         1 UNK         0.0831 
    110 H110      -51.6663  -28.4404   13.0998 H         1 UNK         0.0831 
    111 H111      -51.4943  -27.2333   15.2829 H         1 UNK         0.3133 
    112 H112      -52.1709  -25.6986   17.5151 H         1 UNK         0.0566 
    113 H113      -50.8450  -25.7296   19.6451 H         1 UNK         0.0814 
    114 H114      -52.2816  -26.7335   19.7450 H         1 UNK         0.0814 
    115 H115      -50.7084  -27.4843   19.5316 H         1 UNK         0.0814 
    116 H116      -50.2362  -25.3116   16.5506 H         1 UNK         0.3091 
    117 H117      -47.0386  -26.5244   16.6597 H         1 UNK         0.0702 
    118 H118      -47.0340  -26.9096   14.1897 H         1 UNK         0.0785 
    119 H119      -48.7790  -27.1551   14.2099 H         1 UNK         0.0785 
    120 H120      -47.7180  -28.2913   15.0316 H         1 UNK         0.0785 
    121 H121      -48.3193  -24.7934   14.7612 H         1 UNK         0.2998 
    122 H122      -48.4762  -21.9077   16.8634 H         1 UNK         0.0697 
    123 H123      -46.8159  -22.6041   14.3796 H         1 UNK         0.0825 
    124 H124      -46.1846  -21.9487   15.8825 H         1 UNK         0.0825 
    125 H125      -47.2678  -20.9797   14.8975 H         1 UNK         0.0825 
    126 H126      -49.2896  -22.4832   14.1594 H         1 UNK         0.3029 
    127 H127      -52.6992  -23.2334   14.9460 H         1 UNK         0.0897 
    128 H128      -53.0143  -21.3375   13.3790 H         1 UNK         0.0792 
    129 H129      -52.4929  -20.7472   14.9478 H         1 UNK         0.0792 
    130 H130      -51.3455  -20.8200   13.6177 H         1 UNK         0.0792 
    131 H131      -51.1624  -23.0322   12.4973 H         1 UNK         0.3086 
    132 H132      -50.3292  -26.4521   12.3320 H         1 UNK         0.0583 
    133 H133      -52.7768  -26.4675   11.6035 H         1 UNK         0.1020 
    134 H134      -51.5892  -26.6856   10.3504 H         1 UNK         0.1020 
    135 H135      -54.8589  -25.5867   10.0789 H         1 UNK         0.0694 
    136 H136      -54.5911  -24.6501    8.6337 H         1 UNK         0.0694 
    137 H137      -50.0420  -24.4992   10.3512 H         1 UNK         0.2989 
    138 H138      -47.9384  -22.6297   10.7337 H         1 UNK         0.1055 
    139 H139      -46.0395  -23.2924   12.1713 H         1 UNK         0.0806 
    140 H140      -45.5322  -23.3029   10.4933 H         1 UNK         0.0806 
    141 H141      -45.8761  -24.8221   11.3218 H         1 UNK         0.0806 
    142 H142      -47.1475  -24.9984    9.1845 H         1 UNK         0.3061 
    143 H143      -49.2420  -25.6147    7.3739 H         1 UNK         0.0734 
    144 H144      -50.4586  -23.8213    6.2581 H         1 UNK         0.0832 
    145 H145      -48.9757  -22.9787    5.8407 H         1 UNK         0.0832 
    146 H146      -49.3499  -24.5354    5.0999 H         1 UNK         0.0832 
    147 H147      -47.1727  -26.1300    6.8986 H         1 UNK         0.3156 
    148 H148      -44.5952  -24.7286    5.1990 H         1 UNK         0.0589 
    149 H149      -44.1942  -24.7996    8.2413 H         1 UNK         0.0808 
    150 H150      -42.9184  -24.9600    7.0327 H         1 UNK         0.0808 
    151 H151      -43.8007  -23.4519    7.1847 H         1 UNK         0.0808 
    152 H152      -44.6724  -26.9271    7.0996 H         1 UNK         0.3098 
    153 H153      -45.0865  -29.2940    4.6724 H         1 UNK         0.0720 
    154 H154      -44.5382  -30.3201    6.8371 H         1 UNK         0.0791 
    155 H155      -44.9347  -28.8489    7.7091 H         1 UNK         0.0791 
    156 H156      -43.5497  -28.8914    6.6168 H         1 UNK         0.0791 
    157 H157      -47.1171  -30.0476    5.1320 H         1 UNK         0.3028 
@<TRIPOS>BOND
     1    1    2 1    
     2    1   82 1    
     3    1   83 1    
     4    1   84 1    
     5    2    3 2    
     6    2    4 am   BACKBONE|DICT|INTERRES
     7    4    5 1    
     8    4   85 1    
     9    5    6 1    
    10    5   80 1    
    11    5   86 1    
    12    6    7 1    
    13    6   87 1    
    14    6   88 1    
    15    7    8 1    
    16    8    9 1    
    17    8   89 1    
    18    8   90 1    
    19    9   10 ar   
    20    9   14 ar   
    21   10   11 ar   
    22   10   91 1    
    23   11   12 ar   
    24   11   58 1    
    25   12   13 ar   
    26   12   92 1    
    27   13   14 ar   
    28   13   15 1    
    29   14   93 1    
    30   15   16 1    
    31   15   94 1    
    32   15   95 1    
    33   16   17 1    
    34   17   18 1    
    35   17   96 1    
    36   17   97 1    
    37   18   19 1    
    38   18   22 1    
    39   18   98 1    
    40   19   20 am   BACKBONE|DICT|INTERRES
    41   19   21 2    
    42   20   99 1    
    43   20  100 1    
    44   22   23 am   BACKBONE|DICT|INTERRES
    45   22  101 1    
    46   23   24 2    
    47   23   25 1    
    48   25   26 1    
    49   25   27 1    
    50   25  102 1    
    51   26  103 1    
    52   26  104 1    
    53   26  105 1    
    54   27   28 am   BACKBONE|DICT|INTERRES
    55   27  106 1    
    56   28   29 2    
    57   28   30 1    
    58   30   31 1    
    59   30   32 1    
    60   30  107 1    
    61   31  108 1    
    62   31  109 1    
    63   31  110 1    
    64   32   33 am   BACKBONE|DICT|INTERRES
    65   32  111 1    
    66   33   34 2    
    67   33   35 1    
    68   35   36 1    
    69   35   37 1    
    70   35  112 1    
    71   36  113 1    
    72   36  114 1    
    73   36  115 1    
    74   37   38 am   BACKBONE|DICT|INTERRES
    75   37  116 1    
    76   38   39 2    
    77   38   40 1    
    78   40   41 1    
    79   40   42 1    
    80   40  117 1    
    81   41  118 1    
    82   41  119 1    
    83   41  120 1    
    84   42   43 am   BACKBONE|DICT|INTERRES
    85   42  121 1    
    86   43   44 2    
    87   43   45 1    
    88   45   46 1    
    89   45   47 1    
    90   45  122 1    
    91   46  123 1    
    92   46  124 1    
    93   46  125 1    
    94   47   48 am   BACKBONE|DICT|INTERRES
    95   47  126 1    
    96   48   49 2    
    97   48   50 1    
    98   50   51 1    
    99   50   52 1    
   100   50  127 1    
   101   51  128 1    
   102   51  129 1    
   103   51  130 1    
   104   52   53 am   BACKBONE|DICT|INTERRES
   105   52  131 1    
   106   53   54 2    
   107   53   55 1    
   108   55   56 1    
   109   55   59 1    
   110   55  132 1    
   111   56   57 1    
   112   56  133 1    
   113   56  134 1    
   114   57   58 1    
   115   58  135 1    
   116   58  136 1    
   117   59   60 am   BACKBONE|DICT|INTERRES
   118   59  137 1    
   119   60   61 2    
   120   60   62 1    
   121   62   63 1    
   122   62   64 1    
   123   62  138 1    
   124   63  139 1    
   125   63  140 1    
   126   63  141 1    
   127   64   65 am   BACKBONE|DICT|INTERRES
   128   64  142 1    
   129   65   66 2    
   130   65   67 1    
   131   67   68 1    
   132   67   69 1    
   133   67  143 1    
   134   68  144 1    
   135   68  145 1    
   136   68  146 1    
   137   69   70 am   BACKBONE|DICT|INTERRES
   138   69  147 1    
   139   70   71 2    
   140   70   72 1    
   141   72   73 1    
   142   72   74 1    
   143   72  148 1    
   144   73  149 1    
   145   73  150 1    
   146   73  151 1    
   147   74   75 am   BACKBONE|DICT|INTERRES
   148   74  152 1    
   149   75   76 2    
   150   75   77 1    
   151   77   78 1    
   152   77   79 1    
   153   77  153 1    
   154   78  154 1    
   155   78  155 1    
   156   78  156 1    
   157   79   80 am   BACKBONE|DICT|INTERRES
   158   79  157 1    
   159   80   81 2    
@<TRIPOS>SUBSTRUCTURE
     1 UNK         1 GROUP             0       ****    0 ROOT    
