@<TRIPOS>MOLECULE
3R207
157   159    1
SMALL
USER_CHARGES


@<TRIPOS>ATOM
      1 CA        -43.3528  -27.1720    5.8342 C.3       0 UNK        -0.1975 
      2 C         -44.4557  -27.6585    4.9061 C.2       0 UNK         0.4852 
      3 O         -44.2995  -27.6007    3.6864 O.2       0 UNK        -0.5216 
      4 N         -45.5730  -28.1357    5.4730 N.am      1 UNK        -0.4461 
      5 CA        -46.7083  -28.7155    4.7421 C.3       1 UNK         0.0864 
      6 C6        -47.5367  -29.6625    5.6520 C.3       14 UNK        -0.0898 
      7 S7        -48.5531  -28.8462    6.9422 S.3       14 UNK        -0.2598 
      8 C8        -50.2110  -29.0951    6.2237 C.3       14 UNK         0.0286 
      9 C9        -51.3295  -28.7699    7.2011 C.ar      14 UNK        -0.0844 
     10 C10       -51.7524  -27.4496    7.3717 C.ar      14 UNK        -0.0881 
     11 C11       -52.8165  -27.1459    8.2267 C.ar      14 UNK        -0.0643 
     12 C12       -53.4659  -28.1818    8.9045 C.ar      14 UNK        -0.0930 
     13 C13       -53.0470  -29.5069    8.7504 C.ar      14 UNK        -0.0827 
     14 C14       -51.9806  -29.7955    7.8938 C.ar      14 UNK        -0.1249 
     15 C15       -53.7713  -30.6304    9.4795 C.3       14 UNK         0.0141 
     16 S16       -52.9263  -31.1400   11.0134 S.3       14 UNK        -0.2313 
     17 C17       -53.1290  -29.6692   12.0709 C.3       14 UNK        -0.0915 
     18 CA        -54.5529  -29.5511   12.6847 C.3       13 UNK         0.0968 
     19 C         -54.6386  -30.2125   14.0903 C.2       13 UNK         0.5732 
     20 N         -54.7025  -29.4463   15.1739 N.am      13 UNK        -0.7310 
     21 O         -54.6651  -31.4358   14.1971 O.2       13 UNK        -0.5035 
     22 N         -55.0094  -28.1564   12.6713 N.am      13 UNK        -0.4233 
     23 C         -56.2860  -27.7611   12.6589 C.2       13 UNK         0.4989 
     24 O         -57.2466  -28.5232   12.5380 O.2       13 UNK        -0.4996 
     25 CA        -56.5149  -26.2463   12.8358 C.3       12 UNK         0.0216 
     26 CB        -57.8366  -25.7845   12.1951 C.3       12 UNK        -0.1964 
     27 N         -56.4922  -25.8230   14.2411 N.am      12 UNK        -0.4276 
     28 C         -55.4518  -25.9247   15.0787 C.2       12 UNK         0.5020 
     29 O         -54.3752  -26.4477   14.7771 O.2       12 UNK        -0.5489 
     30 CA        -55.6609  -25.3954   16.5067 C.3       11 UNK         0.0294 
     31 CB        -56.2554  -26.4946   17.4013 C.3       11 UNK        -0.2019 
     32 N         -54.3827  -24.9676   17.0714 N.am      11 UNK        -0.4493 
     33 C         -53.7443  -23.8355   16.7548 C.2       11 UNK         0.4932 
     34 O         -54.2673  -22.9091   16.1338 O.2       11 UNK        -0.5029 
     35 CA        -52.2660  -23.7239   17.1721 C.3       10 UNK         0.0280 
     36 CB        -52.1178  -23.2694   18.6373 C.3       10 UNK        -0.1976 
     37 N         -51.4823  -24.9340   16.8797 N.am      10 UNK        -0.4242 
     38 C         -51.5451  -26.1439   17.4556 C.2       10 UNK         0.5072 
     39 O         -52.2844  -26.4107   18.4045 O.2       10 UNK        -0.5224 
     40 CA        -50.6838  -27.2689   16.8544 C.3       9 UNK         0.0343 
     41 CB        -51.5630  -28.2305   16.0396 C.3       9 UNK        -0.2003 
     42 N         -49.5835  -26.7947   16.0108 N.am      9 UNK        -0.4272 
     43 C         -48.4489  -26.2562   16.4791 C.2       9 UNK         0.4988 
     44 O         -48.2117  -26.0921   17.6765 O.2       9 UNK        -0.5108 
     45 CA        -47.3991  -25.8298   15.4391 C.3       8 UNK         0.0248 
     46 CB        -46.6316  -27.0517   14.9085 C.3       8 UNK        -0.2001 
     47 N         -47.9732  -25.0808   14.3187 N.am      8 UNK        -0.4140 
     48 C         -48.5154  -23.8583   14.4215 C.2       8 UNK         0.5028 
     49 O         -48.5611  -23.2132   15.4695 O.2       8 UNK        -0.5428 
     50 CA        -49.1368  -23.2606   13.1472 C.3       7 UNK         0.0264 
     51 CB        -48.0505  -22.6647   12.2380 C.3       7 UNK        -0.1988 
     52 N         -49.9495  -24.2327   12.4074 N.am      7 UNK        -0.4454 
     53 C         -51.0789  -24.7718   12.8953 C.2       7 UNK         0.5027 
     54 O         -51.5766  -24.4249   13.9651 O.2       7 UNK        -0.5083 
     55 CA        -51.7439  -25.9237   12.1134 C.3       6 UNK         0.0844 
     56 C56       -52.8815  -25.4410   11.1788 C.3       14 UNK        -0.0967 
     57 S57       -52.3208  -24.7575    9.5829 S.3       14 UNK        -0.2604 
     58 C58       -53.2975  -25.7081    8.3736 C.3       14 UNK         0.0134 
     59 N         -50.7660  -26.7923   11.4534 N.am      6 UNK        -0.4116 
     60 C         -49.9296  -27.6058   12.1136 C.2       5 UNK         0.5034 
     61 O         -49.9200  -27.7313   13.3368 O.2       5 UNK        -0.5045 
     62 CA        -48.8969  -28.3753   11.2800 C.3       5 UNK         0.0224 
     63 CB        -49.5340  -29.5924   10.6002 C.3       5 UNK        -0.1978 
     64 N         -48.2365  -27.5314   10.2830 N.am      5 UNK        -0.4737 
     65 C         -47.4044  -26.5309   10.6010 C.2       4 UNK         0.5027 
     66 O         -47.1518  -26.1903   11.7562 O.2       4 UNK        -0.5211 
     67 CA        -46.7538  -25.7747    9.4354 C.3       4 UNK         0.0297 
     68 CB        -45.5781  -26.5771    8.8584 C.3       4 UNK        -0.1993 
     69 N         -47.6912  -25.4270    8.3645 N.am      4 UNK        -0.4486 
     70 C         -48.7142  -24.5711    8.5053 C.2       3 UNK         0.4961 
     71 O         -49.0435  -24.0938    9.5897 O.2       3 UNK        -0.5105 
     72 CA        -49.4721  -24.1502    7.2325 C.3       3 UNK         0.0299 
     73 CB        -49.8291  -22.6521    7.2440 C.3       3 UNK        -0.1972 
     74 N         -48.7076  -24.4594    6.0207 N.am      3 UNK        -0.4305 
     75 C         -49.2126  -24.9769    4.8931 C.2       2 UNK         0.5006 
     76 O         -50.4021  -25.2443    4.7245 O.2       2 UNK        -0.5106 
     77 CA        -48.2000  -25.2829    3.7799 C.3       2 UNK         0.0296 
     78 CB        -47.3457  -24.0553    3.4107 C.3       2 UNK        -0.2002 
     79 N         -47.3361  -26.3827    4.2075 N.am      2 UNK        -0.4032 
     80 C         -47.5972  -27.6823    4.0072 C.2       1 UNK         0.5000 
     81 O         -48.5151  -28.0880    3.2913 O.2       1 UNK        -0.5238 
     82 H82       -43.4797  -27.5501    6.8482 H         1 UNK         0.0889 
     83 H83       -43.3418  -26.0831    5.8694 H         1 UNK         0.0889 
     84 H84       -42.3819  -27.5104    5.4731 H         1 UNK         0.0889 
     85 H85       -45.6425  -28.1798    6.4789 H         1 UNK         0.3028 
     86 H86       -46.2840  -29.3397    3.9522 H         1 UNK         0.0864 
     87 H87       -46.8673  -30.3630    6.1539 H         1 UNK         0.0720 
     88 H88       -48.1756  -30.2909    5.0294 H         1 UNK         0.0720 
     89 H89       -50.3124  -30.1288    5.8896 H         1 UNK         0.0814 
     90 H90       -50.3148  -28.4757    5.3316 H         1 UNK         0.0814 
     91 H91       -51.2672  -26.6642    6.8130 H         1 UNK         0.1469 
     92 H92       -54.3060  -27.9609    9.5479 H         1 UNK         0.1381 
     93 H93       -51.6621  -30.8208    7.7634 H         1 UNK         0.1206 
     94 H94       -54.7977  -30.3387    9.7059 H         1 UNK         0.0813 
     95 H95       -53.8468  -31.4973    8.8215 H         1 UNK         0.0813 
     96 H96       -52.3597  -29.6898   12.8457 H         1 UNK         0.0638 
     97 H97       -52.8859  -28.7948   11.4698 H         1 UNK         0.0638 
     98 H98       -55.2471  -30.1094   12.0546 H         1 UNK         0.0568 
     99 H99       -54.6384  -28.4387   15.0924 H         1 UNK         0.3450 
    100 H100      -54.7689  -29.8817   16.0792 H         1 UNK         0.3450 
    101 H101      -54.3300  -27.4687   12.9715 H         1 UNK         0.2987 
    102 H102      -55.7055  -25.7262   12.3207 H         1 UNK         0.0766 
    103 H103      -57.8864  -26.0815   11.1465 H         1 UNK         0.0798 
    104 H104      -57.9360  -24.6993   12.2264 H         1 UNK         0.0798 
    105 H105      -58.7039  -26.2159   12.6968 H         1 UNK         0.0798 
    106 H106      -57.3486  -25.4195   14.5933 H         1 UNK         0.3198 
    107 H107      -56.3436  -24.5434   16.4801 H         1 UNK         0.0843 
    108 H108      -55.6012  -27.3659   17.4587 H         1 UNK         0.0831 
    109 H109      -57.2189  -26.8350   17.0195 H         1 UNK         0.0831 
    110 H110      -56.4196  -26.1330   18.4165 H         1 UNK         0.0831 
    111 H111      -53.8413  -25.6706   17.5663 H         1 UNK         0.3133 
    112 H112      -51.8244  -22.9465   16.5464 H         1 UNK         0.0566 
    113 H113      -51.0692  -23.1549   18.9116 H         1 UNK         0.0814 
    114 H114      -52.5733  -23.9722   19.3352 H         1 UNK         0.0814 
    115 H115      -52.6016  -22.3043   18.7922 H         1 UNK         0.0814 
    116 H116      -50.9252  -24.8635   16.0365 H         1 UNK         0.3091 
    117 H117      -50.2569  -27.8294   17.6887 H         1 UNK         0.0702 
    118 H118      -50.9869  -29.0750   15.6613 H         1 UNK         0.0785 
    119 H119      -52.0207  -27.7295   15.1859 H         1 UNK         0.0785 
    120 H120      -52.3692  -28.6362   16.6516 H         1 UNK         0.0785 
    121 H121      -49.6792  -26.9560   15.0098 H         1 UNK         0.2998 
    122 H122      -46.6831  -25.1760   15.9416 H         1 UNK         0.0697 
    123 H123      -47.2827  -27.7298   14.3555 H         1 UNK         0.0825 
    124 H124      -46.1855  -27.6195   15.7261 H         1 UNK         0.0825 
    125 H125      -45.8225  -26.7516   14.2425 H         1 UNK         0.0825 
    126 H126      -47.9175  -25.5175   13.4014 H         1 UNK         0.3029 
    127 H127      -49.7958  -22.4462   13.4565 H         1 UNK         0.0897 
    128 H128      -47.3857  -23.4333   11.8432 H         1 UNK         0.0792 
    129 H129      -47.4350  -21.9472   12.7822 H         1 UNK         0.0792 
    130 H130      -48.4903  -22.1362   11.3922 H         1 UNK         0.0792 
    131 H131      -49.6228  -24.4944   11.4814 H         1 UNK         0.3086 
    132 H132      -52.2286  -26.5375   12.8763 H         1 UNK         0.0583 
    133 H133      -53.5538  -26.2744   10.9854 H         1 UNK         0.1020 
    134 H134      -53.4981  -24.6910   11.6786 H         1 UNK         0.1020 
    135 H135      -54.3516  -25.6803    8.6543 H         1 UNK         0.0694 
    136 H136      -53.2312  -25.2066    7.4068 H         1 UNK         0.0694 
    137 H137      -50.6988  -26.7149   10.4487 H         1 UNK         0.2989 
    138 H138      -48.1297  -28.7395   11.9673 H         1 UNK         0.1055 
    139 H139      -50.3359  -29.2936    9.9289 H         1 UNK         0.0806 
    140 H140      -48.8041  -30.1597   10.0226 H         1 UNK         0.0806 
    141 H141      -49.9634  -30.2704   11.3388 H         1 UNK         0.0806 
    142 H142      -48.3988  -27.7474    9.3085 H         1 UNK         0.3061 
    143 H143      -46.3557  -24.8402    9.8374 H         1 UNK         0.0734 
    144 H144      -45.9050  -27.5264    8.4339 H         1 UNK         0.0832 
    145 H145      -45.0576  -26.0128    8.0850 H         1 UNK         0.0832 
    146 H146      -44.8472  -26.8054    9.6356 H         1 UNK         0.0832 
    147 H147      -47.5338  -25.8452    7.4615 H         1 UNK         0.3156 
    148 H148      -50.4048  -24.7113    7.2367 H         1 UNK         0.0589 
    149 H149      -50.3936  -22.3729    6.3544 H         1 UNK         0.0808 
    150 H150      -50.4480  -22.4029    8.1072 H         1 UNK         0.0808 
    151 H151      -48.9374  -22.0260    7.2879 H         1 UNK         0.0808 
    152 H152      -47.7259  -24.2232    6.0490 H         1 UNK         0.3098 
    153 H153      -48.7608  -25.5749    2.8891 H         1 UNK         0.0720 
    154 H154      -47.9777  -23.2051    3.1500 H         1 UNK         0.0791 
    155 H155      -46.7178  -24.2656    2.5446 H         1 UNK         0.0791 
    156 H156      -46.6894  -23.7400    4.2222 H         1 UNK         0.0791 
    157 H157      -46.5352  -26.1506    4.7747 H         1 UNK         0.3028 
@<TRIPOS>BOND
     1    1    2 1    
     2    1   82 1    
     3    1   83 1    
     4    1   84 1    
     5    2    3 2    
     6    2    4 am   BACKBONE|DICT|INTERRES
     7    4    5 1    
     8    4   85 1    
     9    5    6 1    
    10    5   80 1    
    11    5   86 1    
    12    6    7 1    
    13    6   87 1    
    14    6   88 1    
    15    7    8 1    
    16    8    9 1    
    17    8   89 1    
    18    8   90 1    
    19    9   10 ar   
    20    9   14 ar   
    21   10   11 ar   
    22   10   91 1    
    23   11   12 ar   
    24   11   58 1    
    25   12   13 ar   
    26   12   92 1    
    27   13   14 ar   
    28   13   15 1    
    29   14   93 1    
    30   15   16 1    
    31   15   94 1    
    32   15   95 1    
    33   16   17 1    
    34   17   18 1    
    35   17   96 1    
    36   17   97 1    
    37   18   19 1    
    38   18   22 1    
    39   18   98 1    
    40   19   20 am   BACKBONE|DICT|INTERRES
    41   19   21 2    
    42   20   99 1    
    43   20  100 1    
    44   22   23 am   BACKBONE|DICT|INTERRES
    45   22  101 1    
    46   23   24 2    
    47   23   25 1    
    48   25   26 1    
    49   25   27 1    
    50   25  102 1    
    51   26  103 1    
    52   26  104 1    
    53   26  105 1    
    54   27   28 am   BACKBONE|DICT|INTERRES
    55   27  106 1    
    56   28   29 2    
    57   28   30 1    
    58   30   31 1    
    59   30   32 1    
    60   30  107 1    
    61   31  108 1    
    62   31  109 1    
    63   31  110 1    
    64   32   33 am   BACKBONE|DICT|INTERRES
    65   32  111 1    
    66   33   34 2    
    67   33   35 1    
    68   35   36 1    
    69   35   37 1    
    70   35  112 1    
    71   36  113 1    
    72   36  114 1    
    73   36  115 1    
    74   37   38 am   BACKBONE|DICT|INTERRES
    75   37  116 1    
    76   38   39 2    
    77   38   40 1    
    78   40   41 1    
    79   40   42 1    
    80   40  117 1    
    81   41  118 1    
    82   41  119 1    
    83   41  120 1    
    84   42   43 am   BACKBONE|DICT|INTERRES
    85   42  121 1    
    86   43   44 2    
    87   43   45 1    
    88   45   46 1    
    89   45   47 1    
    90   45  122 1    
    91   46  123 1    
    92   46  124 1    
    93   46  125 1    
    94   47   48 am   BACKBONE|DICT|INTERRES
    95   47  126 1    
    96   48   49 2    
    97   48   50 1    
    98   50   51 1    
    99   50   52 1    
   100   50  127 1    
   101   51  128 1    
   102   51  129 1    
   103   51  130 1    
   104   52   53 am   BACKBONE|DICT|INTERRES
   105   52  131 1    
   106   53   54 2    
   107   53   55 1    
   108   55   56 1    
   109   55   59 1    
   110   55  132 1    
   111   56   57 1    
   112   56  133 1    
   113   56  134 1    
   114   57   58 1    
   115   58  135 1    
   116   58  136 1    
   117   59   60 am   BACKBONE|DICT|INTERRES
   118   59  137 1    
   119   60   61 2    
   120   60   62 1    
   121   62   63 1    
   122   62   64 1    
   123   62  138 1    
   124   63  139 1    
   125   63  140 1    
   126   63  141 1    
   127   64   65 am   BACKBONE|DICT|INTERRES
   128   64  142 1    
   129   65   66 2    
   130   65   67 1    
   131   67   68 1    
   132   67   69 1    
   133   67  143 1    
   134   68  144 1    
   135   68  145 1    
   136   68  146 1    
   137   69   70 am   BACKBONE|DICT|INTERRES
   138   69  147 1    
   139   70   71 2    
   140   70   72 1    
   141   72   73 1    
   142   72   74 1    
   143   72  148 1    
   144   73  149 1    
   145   73  150 1    
   146   73  151 1    
   147   74   75 am   BACKBONE|DICT|INTERRES
   148   74  152 1    
   149   75   76 2    
   150   75   77 1    
   151   77   78 1    
   152   77   79 1    
   153   77  153 1    
   154   78  154 1    
   155   78  155 1    
   156   78  156 1    
   157   79   80 am   BACKBONE|DICT|INTERRES
   158   79  157 1    
   159   80   81 2    
@<TRIPOS>SUBSTRUCTURE
     1 UNK         1 GROUP             0       ****    0 ROOT    
