@<TRIPOS>MOLECULE
3R207
157   159    1
SMALL
USER_CHARGES


@<TRIPOS>ATOM
      1 CA        -50.6231  -30.1930    1.8858 C.3       0 UNK        -0.1975 
      2 C         -50.5820  -29.1314    2.9752 C.2       0 UNK         0.4852 
      3 O         -51.4430  -28.2507    3.0038 O.2       0 UNK        -0.5216 
      4 N         -49.5942  -29.2135    3.8755 N.am      1 UNK        -0.4461 
      5 CA        -49.3693  -28.2597    4.9657 C.3       1 UNK         0.0864 
      6 C6        -48.3322  -28.7896    5.9880 C.3       14 UNK        -0.0898 
      7 S7        -48.8519  -30.3428    6.7958 S.3       14 UNK        -0.2598 
      8 C8        -49.0297  -29.8347    8.5363 C.3       14 UNK         0.0286 
      9 C9        -50.4274  -29.3200    8.8476 C.ar      14 UNK        -0.0844 
     10 C10       -50.8250  -28.0453    8.4355 C.ar      14 UNK        -0.0881 
     11 C11       -52.0998  -27.5613    8.7464 C.ar      14 UNK        -0.0643 
     12 C12       -52.9788  -28.3612    9.4815 C.ar      14 UNK        -0.0930 
     13 C13       -52.5881  -29.6333    9.9081 C.ar      14 UNK        -0.0827 
     14 C14       -51.3157  -30.1105    9.5818 C.ar      14 UNK        -0.1249 
     15 C15       -53.5247  -30.4803   10.7514 C.3       14 UNK         0.0141 
     16 S16       -53.3744  -30.0152   12.4997 S.3       14 UNK        -0.2313 
     17 C17       -54.3227  -31.3404   13.3167 C.3       14 UNK        -0.0915 
     18 CA        -55.7866  -30.9456   13.6444 C.3       13 UNK         0.0968 
     19 C         -56.5105  -32.1254   14.3578 C.2       13 UNK         0.5732 
     20 N         -56.8160  -32.0374   15.6470 N.am      13 UNK        -0.7310 
     21 O         -56.7989  -33.1390   13.7259 O.2       13 UNK        -0.5035 
     22 N         -55.8567  -29.6460   14.3327 N.am      13 UNK        -0.4233 
     23 C         -56.9748  -28.9497   14.5706 C.2       13 UNK         0.4989 
     24 O         -58.1081  -29.3325   14.2778 O.2       13 UNK        -0.4996 
     25 CA        -56.7867  -27.5780   15.2323 C.3       12 UNK         0.0216 
     26 CB        -56.5021  -27.7254   16.7363 C.3       12 UNK        -0.1964 
     27 N         -55.7200  -26.7967   14.6005 N.am      12 UNK        -0.4276 
     28 C         -55.8381  -26.1819   13.4118 C.2       12 UNK         0.5020 
     29 O         -56.8408  -26.2810   12.7017 O.2       12 UNK        -0.5489 
     30 CA        -54.6639  -25.2957   12.9325 C.3       11 UNK         0.0294 
     31 CB        -55.1396  -24.0896   12.0968 C.3       11 UNK        -0.2019 
     32 N         -53.7671  -24.8479   14.0039 N.am      11 UNK        -0.4493 
     33 C         -54.0785  -24.1742   15.1227 C.2       11 UNK         0.4932 
     34 O         -55.1927  -23.7000   15.3491 O.2       11 UNK        -0.5029 
     35 CA        -52.9678  -24.0524   16.1892 C.3       10 UNK         0.0280 
     36 CB        -53.5384  -23.9796   17.6209 C.3       10 UNK        -0.1976 
     37 N         -51.9400  -25.1020   16.1079 N.am      10 UNK        -0.4242 
     38 C         -52.1178  -26.4342   16.1508 C.2       10 UNK         0.5072 
     39 O         -53.2221  -26.9643   16.2919 O.2       10 UNK        -0.5224 
     40 CA        -50.8841  -27.3377   15.9445 C.3       9 UNK         0.0343 
     41 CB        -51.1279  -28.3307   14.7962 C.3       9 UNK        -0.2003 
     42 N         -49.6616  -26.5869   15.6510 N.am      9 UNK        -0.4272 
     43 C         -48.8073  -26.1129   16.5678 C.2       9 UNK         0.4988 
     44 O         -48.9148  -26.3174   17.7771 O.2       9 UNK        -0.5108 
     45 CA        -47.6575  -25.2263   16.0517 C.3       8 UNK         0.0248 
     46 CB        -46.4424  -26.0875   15.6742 C.3       8 UNK        -0.2001 
     47 N         -48.0372  -24.3848   14.9107 N.am      8 UNK        -0.4140 
     48 C         -49.0046  -23.4561   14.9349 C.2       8 UNK         0.5028 
     49 O         -49.6560  -23.1736   15.9401 O.2       8 UNK        -0.5428 
     50 CA        -49.3547  -22.7737   13.6042 C.3       7 UNK         0.0264 
     51 CB        -48.4014  -21.6026   13.3171 C.3       7 UNK        -0.1988 
     52 N         -49.3537  -23.7043   12.4737 N.am      7 UNK        -0.4454 
     53 C         -50.2056  -24.7306   12.3231 C.2       7 UNK         0.5027 
     54 O         -51.0853  -25.0189   13.1342 O.2       7 UNK        -0.5083 
     55 CA        -50.0034  -25.6049   11.0712 C.3       6 UNK         0.0844 
     56 C56       -50.5034  -24.8800    9.7947 C.3       14 UNK        -0.0967 
     57 S57       -52.3188  -24.9410    9.6226 S.3       14 UNK        -0.2604 
     58 C58       -52.5286  -26.1722    8.2988 C.3       14 UNK         0.0134 
     59 N         -48.6040  -26.0204   10.9506 N.am      6 UNK        -0.4116 
     60 C         -47.9636  -26.8194   11.8199 C.2       5 UNK         0.5034 
     61 O         -48.5098  -27.3717   12.7744 O.2       5 UNK        -0.5045 
     62 CA        -46.4426  -26.9916   11.6310 C.3       5 UNK         0.0224 
     63 CB        -46.1346  -28.2308   10.7766 C.3       5 UNK        -0.1978 
     64 N         -45.7883  -25.8232   11.0352 N.am      5 UNK        -0.4737 
     65 C         -45.7909  -24.5894   11.5582 C.2       4 UNK         0.5027 
     66 O         -46.2474  -24.3267   12.6701 O.2       4 UNK        -0.5211 
     67 CA        -45.2577  -23.4454   10.6746 C.3       4 UNK         0.0297 
     68 CB        -43.8312  -23.0670   11.1021 C.3       4 UNK        -0.1993 
     69 N         -45.2785  -23.7097    9.2270 N.am      4 UNK        -0.4486 
     70 C         -46.3562  -24.0411    8.5011 C.2       3 UNK         0.4961 
     71 O         -47.4795  -24.2259    8.9797 O.2       3 UNK        -0.5105 
     72 CA        -46.1284  -24.2501    6.9991 C.3       3 UNK         0.0299 
     73 CB        -45.2818  -25.5099    6.7335 C.3       3 UNK        -0.1972 
     74 N         -47.4260  -24.3968    6.3485 N.am      3 UNK        -0.4305 
     75 C         -47.7183  -24.0783    5.0831 C.2       2 UNK         0.5006 
     76 O         -46.9108  -23.5832    4.2941 O.2       2 UNK        -0.5106 
     77 CA        -49.1577  -24.4037    4.6339 C.3       2 UNK         0.0296 
     78 CB        -49.4354  -24.0322    3.1607 C.3       2 UNK        -0.2002 
     79 N         -49.5099  -25.8070    4.9016 N.am      2 UNK        -0.4032 
     80 C         -48.9012  -26.8992    4.4094 C.2       1 UNK         0.5000 
     81 O         -47.9807  -26.8746    3.5878 O.2       1 UNK        -0.5238 
     82 H82       -51.5671  -30.7357    1.9262 H         1 UNK         0.0889 
     83 H83       -49.8127  -30.9145    1.9886 H         1 UNK         0.0889 
     84 H84       -50.5393  -29.7265    0.9046 H         1 UNK         0.0889 
     85 H85       -48.9110  -29.9533    3.8001 H         1 UNK         0.3028 
     86 H86       -50.3228  -28.1198    5.4796 H         1 UNK         0.0864 
     87 H87       -47.3761  -28.9781    5.4952 H         1 UNK         0.0720 
     88 H88       -48.1234  -28.0359    6.7489 H         1 UNK         0.0720 
     89 H89       -48.2908  -29.0761    8.7902 H         1 UNK         0.0814 
     90 H90       -48.7984  -30.6942    9.1675 H         1 UNK         0.0814 
     91 H91       -50.1366  -27.4270    7.8807 H         1 UNK         0.1469 
     92 H92       -53.9590  -27.9845    9.7406 H         1 UNK         0.1381 
     93 H93       -51.0106  -31.0920    9.9186 H         1 UNK         0.1206 
     94 H94       -53.2887  -31.5383   10.6271 H         1 UNK         0.0813 
     95 H95       -54.5572  -30.3483   10.4245 H         1 UNK         0.0813 
     96 H96       -54.2956  -32.2363   12.6937 H         1 UNK         0.0638 
     97 H97       -53.7903  -31.5976   14.2344 H         1 UNK         0.0638 
     98 H98       -56.3059  -30.8121   12.6937 H         1 UNK         0.0568 
     99 H99       -56.5842  -31.2101   16.1719 H         1 UNK         0.3450 
    100 H100      -57.2868  -32.8068   16.0961 H         1 UNK         0.3450 
    101 H101      -54.9703  -29.2416   14.5952 H         1 UNK         0.2987 
    102 H102      -57.7225  -27.0252   15.1231 H         1 UNK         0.0766 
    103 H103      -56.4227  -26.7514   17.2198 H         1 UNK         0.0798 
    104 H104      -55.5740  -28.2661   16.9254 H         1 UNK         0.0798 
    105 H105      -57.3055  -28.2700   17.2342 H         1 UNK         0.0798 
    106 H106      -54.8571  -26.6882   15.1270 H         1 UNK         0.3198 
    107 H107      -54.0574  -25.9290   12.2825 H         1 UNK         0.0843 
    108 H108      -55.8062  -23.4417   12.6666 H         1 UNK         0.0831 
    109 H109      -55.6813  -24.4167   11.2085 H         1 UNK         0.0831 
    110 H110      -54.2967  -23.4892   11.7545 H         1 UNK         0.0831 
    111 H111      -52.7900  -25.1097   13.8786 H         1 UNK         0.3133 
    112 H112      -52.4564  -23.1109   15.9853 H         1 UNK         0.0566 
    113 H113      -52.7433  -23.8777   18.3594 H         1 UNK         0.0814 
    114 H114      -54.1987  -23.1195   17.7388 H         1 UNK         0.0814 
    115 H115      -54.1163  -24.8704   17.8700 H         1 UNK         0.0814 
    116 H116      -50.9976  -24.7534   15.9696 H         1 UNK         0.3091 
    117 H117      -50.7462  -27.9105   16.8635 H         1 UNK         0.0702 
    118 H118      -51.9819  -28.9744   15.0095 H         1 UNK         0.0785 
    119 H119      -51.3299  -27.8175   13.8546 H         1 UNK         0.0785 
    120 H120      -50.2664  -28.9804   14.6415 H         1 UNK         0.0785 
    121 H121      -49.4806  -26.3962   14.6727 H         1 UNK         0.2998 
    122 H122      -47.3642  -24.5586   16.8643 H         1 UNK         0.0697 
    123 H123      -46.6866  -26.8027   14.8890 H         1 UNK         0.0825 
    124 H124      -46.0877  -26.6577   16.5338 H         1 UNK         0.0825 
    125 H125      -45.6111  -25.4745   15.3250 H         1 UNK         0.0825 
    126 H126      -47.5014  -24.4999   14.0523 H         1 UNK         0.3029 
    127 H127      -50.3665  -22.3728   13.6988 H         1 UNK         0.0897 
    128 H128      -47.3695  -21.9352   13.2004 H         1 UNK         0.0792 
    129 H129      -48.4186  -20.8796   14.1338 H         1 UNK         0.0792 
    130 H130      -48.6876  -21.0707   12.4096 H         1 UNK         0.0792 
    131 H131      -48.6295  -23.5742   11.7821 H         1 UNK         0.3086 
    132 H132      -50.5891  -26.5179   11.2039 H         1 UNK         0.0583 
    133 H133      -50.1830  -23.8364    9.7716 H         1 UNK         0.1020 
    134 H134      -50.0547  -25.3251    8.9077 H         1 UNK         0.1020 
    135 H135      -53.5786  -26.1926    8.0030 H         1 UNK         0.0694 
    136 H136      -51.9717  -25.8590    7.4149 H         1 UNK         0.0694 
    137 H137      -48.0650  -25.5592   10.2235 H         1 UNK         0.2989 
    138 H138      -46.0108  -27.1439   12.6219 H         1 UNK         0.1055 
    139 H139      -46.4228  -28.0843    9.7359 H         1 UNK         0.0806 
    140 H140      -46.6664  -29.1085   11.1476 H         1 UNK         0.0806 
    141 H141      -45.0706  -28.4677   10.7962 H         1 UNK         0.0806 
    142 H142      -45.3790  -25.9449   10.1207 H         1 UNK         0.3061 
    143 H143      -45.9052  -22.5843   10.8523 H         1 UNK         0.0734 
    144 H144      -43.4774  -22.1823   10.5724 H         1 UNK         0.0832 
    145 H145      -43.7907  -22.8392   12.1685 H         1 UNK         0.0832 
    146 H146      -43.1253  -23.8774   10.9160 H         1 UNK         0.0832 
    147 H147      -44.3985  -23.5951    8.7439 H         1 UNK         0.3156 
    148 H148      -45.6178  -23.3682    6.6067 H         1 UNK         0.0589 
    149 H149      -45.1375  -25.6700    5.6647 H         1 UNK         0.0808 
    150 H150      -44.2904  -25.4274    7.1800 H         1 UNK         0.0808 
    151 H151      -45.7528  -26.4055    7.1410 H         1 UNK         0.0808 
    152 H152      -48.1597  -24.7097    6.9704 H         1 UNK         0.3098 
    153 H153      -49.8175  -23.7934    5.2527 H         1 UNK         0.0720 
    154 H154      -49.2735  -22.9670    2.9911 H         1 UNK         0.0791 
    155 H155      -50.4668  -24.2513    2.8846 H         1 UNK         0.0791 
    156 H156      -48.7834  -24.5717    2.4730 H         1 UNK         0.0791 
    157 H157      -50.2746  -25.9411    5.5468 H         1 UNK         0.3028 
@<TRIPOS>BOND
     1    1    2 1    
     2    1   82 1    
     3    1   83 1    
     4    1   84 1    
     5    2    3 2    
     6    2    4 am   BACKBONE|DICT|INTERRES
     7    4    5 1    
     8    4   85 1    
     9    5    6 1    
    10    5   80 1    
    11    5   86 1    
    12    6    7 1    
    13    6   87 1    
    14    6   88 1    
    15    7    8 1    
    16    8    9 1    
    17    8   89 1    
    18    8   90 1    
    19    9   10 ar   
    20    9   14 ar   
    21   10   11 ar   
    22   10   91 1    
    23   11   12 ar   
    24   11   58 1    
    25   12   13 ar   
    26   12   92 1    
    27   13   14 ar   
    28   13   15 1    
    29   14   93 1    
    30   15   16 1    
    31   15   94 1    
    32   15   95 1    
    33   16   17 1    
    34   17   18 1    
    35   17   96 1    
    36   17   97 1    
    37   18   19 1    
    38   18   22 1    
    39   18   98 1    
    40   19   20 am   BACKBONE|DICT|INTERRES
    41   19   21 2    
    42   20   99 1    
    43   20  100 1    
    44   22   23 am   BACKBONE|DICT|INTERRES
    45   22  101 1    
    46   23   24 2    
    47   23   25 1    
    48   25   26 1    
    49   25   27 1    
    50   25  102 1    
    51   26  103 1    
    52   26  104 1    
    53   26  105 1    
    54   27   28 am   BACKBONE|DICT|INTERRES
    55   27  106 1    
    56   28   29 2    
    57   28   30 1    
    58   30   31 1    
    59   30   32 1    
    60   30  107 1    
    61   31  108 1    
    62   31  109 1    
    63   31  110 1    
    64   32   33 am   BACKBONE|DICT|INTERRES
    65   32  111 1    
    66   33   34 2    
    67   33   35 1    
    68   35   36 1    
    69   35   37 1    
    70   35  112 1    
    71   36  113 1    
    72   36  114 1    
    73   36  115 1    
    74   37   38 am   BACKBONE|DICT|INTERRES
    75   37  116 1    
    76   38   39 2    
    77   38   40 1    
    78   40   41 1    
    79   40   42 1    
    80   40  117 1    
    81   41  118 1    
    82   41  119 1    
    83   41  120 1    
    84   42   43 am   BACKBONE|DICT|INTERRES
    85   42  121 1    
    86   43   44 2    
    87   43   45 1    
    88   45   46 1    
    89   45   47 1    
    90   45  122 1    
    91   46  123 1    
    92   46  124 1    
    93   46  125 1    
    94   47   48 am   BACKBONE|DICT|INTERRES
    95   47  126 1    
    96   48   49 2    
    97   48   50 1    
    98   50   51 1    
    99   50   52 1    
   100   50  127 1    
   101   51  128 1    
   102   51  129 1    
   103   51  130 1    
   104   52   53 am   BACKBONE|DICT|INTERRES
   105   52  131 1    
   106   53   54 2    
   107   53   55 1    
   108   55   56 1    
   109   55   59 1    
   110   55  132 1    
   111   56   57 1    
   112   56  133 1    
   113   56  134 1    
   114   57   58 1    
   115   58  135 1    
   116   58  136 1    
   117   59   60 am   BACKBONE|DICT|INTERRES
   118   59  137 1    
   119   60   61 2    
   120   60   62 1    
   121   62   63 1    
   122   62   64 1    
   123   62  138 1    
   124   63  139 1    
   125   63  140 1    
   126   63  141 1    
   127   64   65 am   BACKBONE|DICT|INTERRES
   128   64  142 1    
   129   65   66 2    
   130   65   67 1    
   131   67   68 1    
   132   67   69 1    
   133   67  143 1    
   134   68  144 1    
   135   68  145 1    
   136   68  146 1    
   137   69   70 am   BACKBONE|DICT|INTERRES
   138   69  147 1    
   139   70   71 2    
   140   70   72 1    
   141   72   73 1    
   142   72   74 1    
   143   72  148 1    
   144   73  149 1    
   145   73  150 1    
   146   73  151 1    
   147   74   75 am   BACKBONE|DICT|INTERRES
   148   74  152 1    
   149   75   76 2    
   150   75   77 1    
   151   77   78 1    
   152   77   79 1    
   153   77  153 1    
   154   78  154 1    
   155   78  155 1    
   156   78  156 1    
   157   79   80 am   BACKBONE|DICT|INTERRES
   158   79  157 1    
   159   80   81 2    
@<TRIPOS>SUBSTRUCTURE
     1 UNK         1 GROUP             0       ****    0 ROOT    
