@<TRIPOS>MOLECULE
3R207
157   159    1
SMALL
USER_CHARGES


@<TRIPOS>ATOM
      1 CA        -46.6597  -28.9976    2.7338 C.3       0 UNK        -0.1975 
      2 C         -47.8990  -28.4162    3.3977 C.2       0 UNK         0.4852 
      3 O         -48.7254  -27.8030    2.7213 O.2       0 UNK        -0.5216 
      4 N         -48.0320  -28.6016    4.7181 N.am      1 UNK        -0.4461 
      5 CA        -49.1691  -28.1343    5.5262 C.3       1 UNK         0.0864 
      6 C6        -49.2265  -28.8372    6.9065 C.3       14 UNK        -0.0898 
      7 S7        -49.2007  -30.6583    6.7813 S.3       14 UNK        -0.2598 
      8 C8        -50.9610  -31.0826    7.0226 C.3       14 UNK         0.0286 
      9 C9        -51.5120  -30.7241    8.4021 C.ar      14 UNK        -0.0844 
     10 C10       -50.7308  -30.8550    9.5562 C.ar      14 UNK        -0.0881 
     11 C11       -51.2445  -30.5084   10.8077 C.ar      14 UNK        -0.0643 
     12 C12       -52.5653  -30.0662   10.9077 C.ar      14 UNK        -0.0930 
     13 C13       -53.3673  -29.9367    9.7675 C.ar      14 UNK        -0.0827 
     14 C14       -52.8290  -30.2662    8.5190 C.ar      14 UNK        -0.1249 
     15 C15       -54.7955  -29.4014    9.8611 C.3       14 UNK         0.0141 
     16 S16       -55.7588  -30.1673   11.2054 S.3       14 UNK        -0.2313 
     17 C17       -57.3949  -29.3748   10.9942 C.3       14 UNK        -0.0915 
     18 CA        -58.1057  -29.0189   12.3298 C.3       13 UNK         0.0968 
     19 C         -58.4552  -30.2940   13.1568 C.2       13 UNK         0.5732 
     20 N         -57.7500  -30.5911   14.2441 N.am      13 UNK        -0.7310 
     21 O         -59.3875  -31.0148   12.8084 O.2       13 UNK        -0.5035 
     22 N         -57.3671  -27.9946   13.0814 N.am      13 UNK        -0.4233 
     23 C         -57.8399  -27.3336   14.1479 C.2       13 UNK         0.4989 
     24 O         -59.0281  -27.3456   14.4744 O.2       13 UNK        -0.4996 
     25 CA        -56.8345  -26.5306   15.0070 C.3       12 UNK         0.0216 
     26 CB        -57.0641  -26.7613   16.5150 C.3       12 UNK        -0.1964 
     27 N         -55.4152  -26.7375   14.6812 N.am      12 UNK        -0.4276 
     28 C         -54.7308  -27.8930   14.6659 C.2       12 UNK         0.5020 
     29 O         -55.2186  -28.9922   14.9357 O.2       12 UNK        -0.5489 
     30 CA        -53.2688  -27.8005   14.2078 C.3       11 UNK         0.0294 
     31 CB        -53.1868  -27.2193   12.7842 C.3       11 UNK        -0.2019 
     32 N         -52.4524  -26.9810   15.0971 N.am      11 UNK        -0.4493 
     33 C         -52.2068  -27.2128   16.3935 C.2       11 UNK         0.4932 
     34 O         -52.6006  -28.2012   17.0125 O.2       11 UNK        -0.5029 
     35 CA        -51.3838  -26.1417   17.1246 C.3       10 UNK         0.0280 
     36 CB        -49.8804  -26.3302   16.8591 C.3       10 UNK        -0.1976 
     37 N         -51.7951  -24.7976   16.7140 N.am      10 UNK        -0.4242 
     38 C         -52.8469  -24.1414   17.2249 C.2       10 UNK         0.5072 
     39 O         -53.5287  -24.5634   18.1599 O.2       10 UNK        -0.5224 
     40 CA        -53.2040  -22.7796   16.6005 C.3       9 UNK         0.0343 
     41 CB        -52.5437  -21.6382   17.3909 C.3       9 UNK        -0.2003 
     42 N         -52.8343  -22.6622   15.1879 N.am      9 UNK        -0.4272 
     43 C         -53.4415  -23.3113   14.1848 C.2       9 UNK         0.4988 
     44 O         -54.3909  -24.0817   14.3338 O.2       9 UNK        -0.5108 
     45 CA        -52.8608  -23.0959   12.7755 C.3       8 UNK         0.0248 
     46 CB        -53.4235  -21.8071   12.1547 C.3       8 UNK        -0.2001 
     47 N         -51.3928  -23.0733   12.7109 N.am      8 UNK        -0.4140 
     48 C         -50.5799  -24.0257   13.1897 C.2       8 UNK         0.5028 
     49 O         -50.9631  -24.9831   13.8630 O.2       8 UNK        -0.5428 
     50 CA        -49.0781  -23.8609   12.9215 C.3       7 UNK         0.0264 
     51 CB        -48.3859  -23.2304   14.1403 C.3       7 UNK        -0.1988 
     52 N         -48.4460  -25.1484   12.6219 N.am      7 UNK        -0.4454 
     53 C         -48.6740  -25.8695   11.5154 C.2       7 UNK         0.5027 
     54 O         -49.4110  -25.5045   10.5975 O.2       7 UNK        -0.5083 
     55 CA        -47.9194  -27.2023   11.3935 C.3       6 UNK         0.0844 
     56 C56       -48.8517  -28.4063   11.0995 C.3       14 UNK        -0.0967 
     57 S57       -49.7649  -28.9596   12.5795 S.3       14 UNK        -0.2604 
     58 C58       -50.3668  -30.5971   12.0488 C.3       14 UNK         0.0134 
     59 N         -46.8987  -27.0281   10.3654 N.am      6 UNK        -0.4116 
     60 C         -45.7575  -27.7237   10.2952 C.2       5 UNK         0.5034 
     61 O         -45.4535  -28.6248   11.0774 O.2       5 UNK        -0.5045 
     62 CA        -44.7768  -27.3443    9.1764 C.3       5 UNK         0.0224 
     63 CB        -45.2001  -27.9730    7.8372 C.3       5 UNK        -0.1978 
     64 N         -44.6741  -25.8912    9.0291 N.am      5 UNK        -0.4737 
     65 C         -43.7824  -25.1230    9.6708 C.2       4 UNK         0.5027 
     66 O         -42.9178  -25.5688   10.4255 O.2       4 UNK        -0.5211 
     67 CA        -43.8446  -23.6026    9.4258 C.3       4 UNK         0.0297 
     68 CB        -42.8249  -23.1942    8.3502 C.3       4 UNK        -0.1993 
     69 N         -45.1735  -23.1341    9.0273 N.am      4 UNK        -0.4486 
     70 C         -46.2235  -23.0309    9.8536 C.2       3 UNK         0.4961 
     71 O         -46.1596  -23.2269   11.0664 O.2       3 UNK        -0.5105 
     72 CA        -47.5819  -22.6719    9.2180 C.3       3 UNK         0.0299 
     73 CB        -47.8537  -21.1649    9.3472 C.3       3 UNK        -0.1972 
     74 N         -47.7306  -23.0790    7.8135 N.am      3 UNK        -0.4305 
     75 C         -47.6263  -24.3376    7.3646 C.2       2 UNK         0.5006 
     76 O         -47.3337  -25.2965    8.0833 O.2       2 UNK        -0.5106 
     77 CA        -47.7921  -24.5426    5.8504 C.3       2 UNK         0.0296 
     78 CB        -46.5257  -24.0829    5.1074 C.3       2 UNK        -0.2002 
     79 N         -48.0260  -25.9524    5.5402 N.am      2 UNK        -0.4032 
     80 C         -49.1855  -26.6009    5.7186 C.2       1 UNK         0.5000 
     81 O         -50.2386  -26.0423    6.0326 O.2       1 UNK        -0.5238 
     82 H82       -46.0155  -29.5094    3.4486 H         1 UNK         0.0889 
     83 H83       -46.0799  -28.2049    2.2617 H         1 UNK         0.0889 
     84 H84       -46.9478  -29.7136    1.9646 H         1 UNK         0.0889 
     85 H85       -47.3434  -29.1487    5.2153 H         1 UNK         0.3028 
     86 H86       -50.0827  -28.3903    4.9850 H         1 UNK         0.0864 
     87 H87       -48.3798  -28.5379    7.5267 H         1 UNK         0.0720 
     88 H88       -50.1176  -28.5258    7.4551 H         1 UNK         0.0720 
     89 H89       -51.0842  -32.1555    6.8706 H         1 UNK         0.0814 
     90 H90       -51.5419  -30.5915    6.2402 H         1 UNK         0.0814 
     91 H91       -49.7124  -31.2096    9.4811 H         1 UNK         0.1469 
     92 H92       -52.9621  -29.8165   11.8802 H         1 UNK         0.1381 
     93 H93       -53.4378  -30.1617    7.6311 H         1 UNK         0.1206 
     94 H94       -54.7613  -28.3211   10.0037 H         1 UNK         0.0813 
     95 H95       -55.3257  -29.5721    8.9227 H         1 UNK         0.0813 
     96 H96       -57.2799  -28.4701   10.3954 H         1 UNK         0.0638 
     97 H97       -58.0208  -30.0424   10.3993 H         1 UNK         0.0638 
     98 H98       -59.0648  -28.5703   12.0641 H         1 UNK         0.0568 
     99 H99       -57.9831  -31.4140   14.7757 H         1 UNK         0.3450 
    100 H100      -56.9512  -30.0240   14.5088 H         1 UNK         0.3450 
    101 H101      -56.3762  -27.9555   12.9020 H         1 UNK         0.2987 
    102 H102      -57.0365  -25.4791   14.7977 H         1 UNK         0.0766 
    103 H103      -56.9233  -27.8076   16.7884 H         1 UNK         0.0798 
    104 H104      -56.3775  -26.1634   17.1151 H         1 UNK         0.0798 
    105 H105      -58.0763  -26.4810   16.8090 H         1 UNK         0.0798 
    106 H106      -54.9108  -25.8806   14.4563 H         1 UNK         0.3198 
    107 H107      -52.8522  -28.8097   14.1993 H         1 UNK         0.0843 
    108 H108      -53.8698  -27.7299   12.1082 H         1 UNK         0.0831 
    109 H109      -52.1829  -27.3123   12.3710 H         1 UNK         0.0831 
    110 H110      -53.4494  -26.1635   12.7592 H         1 UNK         0.0831 
    111 H111      -51.9982  -26.1751   14.6666 H         1 UNK         0.3133 
    112 H112      -51.5518  -26.2559   18.1978 H         1 UNK         0.0566 
    113 H113      -49.2873  -25.5860   17.3907 H         1 UNK         0.0814 
    114 H114      -49.5480  -27.3122   17.1980 H         1 UNK         0.0814 
    115 H115      -49.6390  -26.2562   15.7982 H         1 UNK         0.0814 
    116 H116      -51.3393  -24.4204   15.8925 H         1 UNK         0.3091 
    117 H117      -54.2874  -22.6619   16.6747 H         1 UNK         0.0702 
    118 H118      -52.8545  -20.6631   17.0152 H         1 UNK         0.0785 
    119 H119      -51.4552  -21.6879   17.3405 H         1 UNK         0.0785 
    120 H120      -52.8232  -21.6811   18.4446 H         1 UNK         0.0785 
    121 H121      -52.0598  -22.0538   14.9663 H         1 UNK         0.2998 
    122 H122      -53.1909  -23.9320   12.1573 H         1 UNK         0.0697 
    123 H123      -53.0881  -20.9181   12.6904 H         1 UNK         0.0825 
    124 H124      -54.5144  -21.8076   12.1758 H         1 UNK         0.0825 
    125 H125      -53.1238  -21.7041   11.1116 H         1 UNK         0.0825 
    126 H126      -50.9836  -22.3091   12.1930 H         1 UNK         0.3029 
    127 H127      -48.9389  -23.2032   12.0620 H         1 UNK         0.0897 
    128 H128      -47.3234  -23.0732   13.9519 H         1 UNK         0.0792 
    129 H129      -48.8178  -22.2571   14.3771 H         1 UNK         0.0792 
    130 H130      -48.4818  -23.8554   15.0293 H         1 UNK         0.0792 
    131 H131      -47.8377  -25.5262   13.3328 H         1 UNK         0.3086 
    132 H132      -47.4065  -27.3882   12.3402 H         1 UNK         0.0583 
    133 H133      -49.5562  -28.1766   10.2972 H         1 UNK         0.1020 
    134 H134      -48.2621  -29.2531   10.7452 H         1 UNK         0.1020 
    135 H135      -49.5134  -31.2540   11.8732 H         1 UNK         0.0694 
    136 H136      -50.9348  -31.0455   12.8651 H         1 UNK         0.0694 
    137 H137      -47.0951  -26.3146    9.6656 H         1 UNK         0.2989 
    138 H138      -43.7994  -27.7545    9.4417 H         1 UNK         0.1055 
    139 H139      -44.4649  -27.7716    7.0580 H         1 UNK         0.0806 
    140 H140      -46.1619  -27.5944    7.4936 H         1 UNK         0.0806 
    141 H141      -45.2893  -29.0567    7.9262 H         1 UNK         0.0806 
    142 H142      -45.4082  -25.4446    8.4904 H         1 UNK         0.3061 
    143 H143      -43.5714  -23.1075   10.3603 H         1 UNK         0.0734 
    144 H144      -41.8172  -23.5032    8.6320 H         1 UNK         0.0832 
    145 H145      -43.0474  -23.6528    7.3858 H         1 UNK         0.0832 
    146 H146      -42.8028  -22.1130    8.2129 H         1 UNK         0.0832 
    147 H147      -45.3145  -22.9327    8.0484 H         1 UNK         0.3156 
    148 H148      -48.3504  -23.2010    9.7817 H         1 UNK         0.0589 
    149 H149      -48.8570  -20.9104    9.0052 H         1 UNK         0.0808 
    150 H150      -47.7774  -20.8425   10.3869 H         1 UNK         0.0808 
    151 H151      -47.1404  -20.5747    8.7705 H         1 UNK         0.0808 
    152 H152      -47.9527  -22.3467    7.1537 H         1 UNK         0.3098 
    153 H153      -48.6457  -23.9552    5.5055 H         1 UNK         0.0720 
    154 H154      -46.6224  -24.2340    4.0319 H         1 UNK         0.0791 
    155 H155      -45.6397  -24.6247    5.4422 H         1 UNK         0.0791 
    156 H156      -46.3373  -23.0201    5.2642 H         1 UNK         0.0791 
    157 H157      -47.2154  -26.5017    5.2989 H         1 UNK         0.3028 
@<TRIPOS>BOND
     1    1    2 1    
     2    1   82 1    
     3    1   83 1    
     4    1   84 1    
     5    2    3 2    
     6    2    4 am   BACKBONE|DICT|INTERRES
     7    4    5 1    
     8    4   85 1    
     9    5    6 1    
    10    5   80 1    
    11    5   86 1    
    12    6    7 1    
    13    6   87 1    
    14    6   88 1    
    15    7    8 1    
    16    8    9 1    
    17    8   89 1    
    18    8   90 1    
    19    9   10 ar   
    20    9   14 ar   
    21   10   11 ar   
    22   10   91 1    
    23   11   12 ar   
    24   11   58 1    
    25   12   13 ar   
    26   12   92 1    
    27   13   14 ar   
    28   13   15 1    
    29   14   93 1    
    30   15   16 1    
    31   15   94 1    
    32   15   95 1    
    33   16   17 1    
    34   17   18 1    
    35   17   96 1    
    36   17   97 1    
    37   18   19 1    
    38   18   22 1    
    39   18   98 1    
    40   19   20 am   BACKBONE|DICT|INTERRES
    41   19   21 2    
    42   20   99 1    
    43   20  100 1    
    44   22   23 am   BACKBONE|DICT|INTERRES
    45   22  101 1    
    46   23   24 2    
    47   23   25 1    
    48   25   26 1    
    49   25   27 1    
    50   25  102 1    
    51   26  103 1    
    52   26  104 1    
    53   26  105 1    
    54   27   28 am   BACKBONE|DICT|INTERRES
    55   27  106 1    
    56   28   29 2    
    57   28   30 1    
    58   30   31 1    
    59   30   32 1    
    60   30  107 1    
    61   31  108 1    
    62   31  109 1    
    63   31  110 1    
    64   32   33 am   BACKBONE|DICT|INTERRES
    65   32  111 1    
    66   33   34 2    
    67   33   35 1    
    68   35   36 1    
    69   35   37 1    
    70   35  112 1    
    71   36  113 1    
    72   36  114 1    
    73   36  115 1    
    74   37   38 am   BACKBONE|DICT|INTERRES
    75   37  116 1    
    76   38   39 2    
    77   38   40 1    
    78   40   41 1    
    79   40   42 1    
    80   40  117 1    
    81   41  118 1    
    82   41  119 1    
    83   41  120 1    
    84   42   43 am   BACKBONE|DICT|INTERRES
    85   42  121 1    
    86   43   44 2    
    87   43   45 1    
    88   45   46 1    
    89   45   47 1    
    90   45  122 1    
    91   46  123 1    
    92   46  124 1    
    93   46  125 1    
    94   47   48 am   BACKBONE|DICT|INTERRES
    95   47  126 1    
    96   48   49 2    
    97   48   50 1    
    98   50   51 1    
    99   50   52 1    
   100   50  127 1    
   101   51  128 1    
   102   51  129 1    
   103   51  130 1    
   104   52   53 am   BACKBONE|DICT|INTERRES
   105   52  131 1    
   106   53   54 2    
   107   53   55 1    
   108   55   56 1    
   109   55   59 1    
   110   55  132 1    
   111   56   57 1    
   112   56  133 1    
   113   56  134 1    
   114   57   58 1    
   115   58  135 1    
   116   58  136 1    
   117   59   60 am   BACKBONE|DICT|INTERRES
   118   59  137 1    
   119   60   61 2    
   120   60   62 1    
   121   62   63 1    
   122   62   64 1    
   123   62  138 1    
   124   63  139 1    
   125   63  140 1    
   126   63  141 1    
   127   64   65 am   BACKBONE|DICT|INTERRES
   128   64  142 1    
   129   65   66 2    
   130   65   67 1    
   131   67   68 1    
   132   67   69 1    
   133   67  143 1    
   134   68  144 1    
   135   68  145 1    
   136   68  146 1    
   137   69   70 am   BACKBONE|DICT|INTERRES
   138   69  147 1    
   139   70   71 2    
   140   70   72 1    
   141   72   73 1    
   142   72   74 1    
   143   72  148 1    
   144   73  149 1    
   145   73  150 1    
   146   73  151 1    
   147   74   75 am   BACKBONE|DICT|INTERRES
   148   74  152 1    
   149   75   76 2    
   150   75   77 1    
   151   77   78 1    
   152   77   79 1    
   153   77  153 1    
   154   78  154 1    
   155   78  155 1    
   156   78  156 1    
   157   79   80 am   BACKBONE|DICT|INTERRES
   158   79  157 1    
   159   80   81 2    
@<TRIPOS>SUBSTRUCTURE
     1 UNK         1 GROUP             0       ****    0 ROOT    
