@<TRIPOS>MOLECULE
3R207
157   159    1
SMALL
USER_CHARGES


@<TRIPOS>ATOM
      1 CA        -52.6183  -29.8365    9.4820 C.3       0 UNK        -0.1975 
      2 C         -51.5079  -30.4338    8.6360 C.2       0 UNK         0.4852 
      3 O         -50.9713  -31.4866    8.9812 O.2       0 UNK        -0.5216 
      4 N         -51.1527  -29.7634    7.5329 N.am      1 UNK        -0.4461 
      5 CA        -50.1275  -30.2029    6.5763 C.3       1 UNK         0.0864 
      6 C6        -50.3668  -29.6411    5.1488 C.3       14 UNK        -0.0898 
      7 S7        -52.0782  -29.8671    4.5442 S.3       14 UNK        -0.2598 
      8 C8        -52.6089  -28.1514    4.2250 C.3       14 UNK         0.0286 
      9 C9        -53.0120  -27.4165    5.4974 C.ar      14 UNK        -0.0844 
     10 C10       -52.0437  -26.7951    6.2877 C.ar      14 UNK        -0.0881 
     11 C11       -52.4029  -26.1130    7.4505 C.ar      14 UNK        -0.0643 
     12 C12       -53.7520  -26.0099    7.8029 C.ar      14 UNK        -0.0930 
     13 C13       -54.7411  -26.5992    7.0036 C.ar      14 UNK        -0.0827 
     14 C14       -54.3584  -27.3160    5.8631 C.ar      14 UNK        -0.1249 
     15 C15       -56.2291  -26.4176    7.3075 C.3       14 UNK         0.0141 
     16 S16       -56.6708  -26.5345    9.0734 S.3       14 UNK        -0.2313 
     17 C17       -56.2623  -28.2777    9.4035 C.3       14 UNK        -0.0915 
     18 CA        -56.6556  -28.7627   10.8317 C.3       13 UNK         0.0968 
     19 C         -56.3109  -30.2703   11.0344 C.2       13 UNK         0.5732 
     20 N         -55.7303  -30.6929   12.1517 N.am      13 UNK        -0.7310 
     21 O         -56.6107  -31.0896   10.1690 O.2       13 UNK        -0.5035 
     22 N         -56.2065  -27.8795   11.9253 N.am      13 UNK        -0.4233 
     23 C         -54.9450  -27.5068   12.1714 C.2       13 UNK         0.4989 
     24 O         -53.9961  -27.7747   11.4385 O.2       13 UNK        -0.4996 
     25 CA        -54.6628  -26.7313   13.4741 C.3       12 UNK         0.0216 
     26 CB        -55.8991  -26.5054   14.3738 C.3       12 UNK        -0.1964 
     27 N         -53.5836  -27.3748   14.2326 N.am      12 UNK        -0.4276 
     28 C         -53.5409  -28.6522   14.6472 C.2       12 UNK         0.5020 
     29 O         -54.4703  -29.4524   14.5248 O.2       12 UNK        -0.5489 
     30 CA        -52.2313  -29.1181   15.2991 C.3       11 UNK         0.0294 
     31 CB        -51.2411  -29.5961   14.2232 C.3       11 UNK        -0.2019 
     32 N         -51.6154  -28.0447   16.0770 N.am      11 UNK        -0.4493 
     33 C         -51.8942  -27.7690   17.3572 C.2       11 UNK         0.4932 
     34 O         -52.6538  -28.4479   18.0501 O.2       11 UNK        -0.5029 
     35 CA        -51.2326  -26.5103   17.9546 C.3       10 UNK         0.0280 
     36 CB        -51.0319  -26.6038   19.4822 C.3       10 UNK        -0.1976 
     37 N         -49.9888  -26.1222   17.2771 N.am      10 UNK        -0.4242 
     38 C         -48.8344  -26.8073   17.2182 C.2       10 UNK         0.5072 
     39 O         -48.6465  -27.8844   17.7852 O.2       10 UNK        -0.5224 
     40 CA        -47.6954  -26.2165   16.3610 C.3       9 UNK         0.0343 
     41 CB        -47.4592  -27.0880   15.1153 C.3       9 UNK        -0.2003 
     42 N         -47.9344  -24.8392   15.9252 N.am      9 UNK        -0.4272 
     43 C         -47.9113  -23.7557   16.7128 C.2       9 UNK         0.4988 
     44 O         -47.5908  -23.7744   17.9012 O.2       9 UNK        -0.5108 
     45 CA        -48.3765  -22.4375   16.0711 C.3       8 UNK         0.0248 
     46 CB        -47.2052  -21.7264   15.3737 C.3       8 UNK        -0.2001 
     47 N         -49.4751  -22.6352   15.1179 N.am      8 UNK        -0.4140 
     48 C         -50.7160  -23.0206   15.4515 C.2       8 UNK         0.5028 
     49 O         -51.0784  -23.2325   16.6081 O.2       8 UNK        -0.5428 
     50 CA        -51.7076  -23.2526   14.2997 C.3       7 UNK         0.0264 
     51 CB        -52.2942  -21.9213   13.8045 C.3       7 UNK        -0.1988 
     52 N         -51.1014  -23.9727   13.1781 N.am      7 UNK        -0.4454 
     53 C         -50.7715  -25.2718   13.2072 C.2       7 UNK         0.5027 
     54 O         -50.9974  -26.0118   14.1667 O.2       7 UNK        -0.5083 
     55 CA        -50.0719  -25.8425   11.9571 C.3       6 UNK         0.0844 
     56 C56       -51.1285  -26.4018   10.9692 C.3       14 UNK        -0.0967 
     57 S57       -50.4687  -26.7405    9.3030 S.3       14 UNK        -0.2604 
     58 C58       -51.3148  -25.4805    8.2993 C.3       14 UNK         0.0134 
     59 N         -49.1240  -24.9170   11.3220 N.am      6 UNK        -0.4116 
     60 C         -48.0822  -24.3172   11.9119 C.2       5 UNK         0.5034 
     61 O         -47.8809  -24.3475   13.1254 O.2       5 UNK        -0.5045 
     62 CA        -47.0831  -23.5696   11.0135 C.3       5 UNK         0.0224 
     63 CB        -45.6511  -24.0720   11.2689 C.3       5 UNK        -0.1978 
     64 N         -47.3755  -23.7046    9.5815 N.am      5 UNK        -0.4737 
     65 C         -48.0444  -22.8006    8.8497 C.2       4 UNK         0.5027 
     66 O         -48.5802  -21.8070    9.3406 O.2       4 UNK        -0.5211 
     67 CA        -48.1165  -23.0145    7.3240 C.3       4 UNK         0.0297 
     68 CB        -47.7859  -21.7196    6.5596 C.3       4 UNK        -0.1993 
     69 N         -47.1975  -24.0665    6.8863 N.am      4 UNK        -0.4486 
     70 C         -47.5375  -25.1774    6.2235 C.2       3 UNK         0.4961 
     71 O         -48.6701  -25.4151    5.8031 O.2       3 UNK        -0.5105 
     72 CA        -46.4323  -26.2323    6.0188 C.3       3 UNK         0.0299 
     73 CB        -44.9958  -25.7046    6.2426 C.3       3 UNK        -0.1972 
     74 N         -46.6844  -27.4144    6.8494 N.am      3 UNK        -0.4305 
     75 C         -46.8401  -27.4482    8.1816 C.2       2 UNK         0.5006 
     76 O         -46.7104  -26.4637    8.9133 O.2       2 UNK        -0.5106 
     77 CA        -47.2472  -28.8076    8.7796 C.3       2 UNK         0.0296 
     78 CB        -47.3619  -28.7679   10.3162 C.3       2 UNK        -0.2002 
     79 N         -48.5237  -29.2556    8.2171 N.am      2 UNK        -0.4032 
     80 C         -48.6860  -29.8936    7.0485 C.2       1 UNK         0.5000 
     81 O         -47.7370  -30.2044    6.3252 O.2       1 UNK        -0.5238 
     82 H82       -52.3149  -29.7896   10.5276 H         1 UNK         0.0889 
     83 H83       -53.5174  -30.4479    9.4149 H         1 UNK         0.0889 
     84 H84       -52.8664  -28.8245    9.1614 H         1 UNK         0.0889 
     85 H85       -51.6421  -28.9121    7.2884 H         1 UNK         0.3028 
     86 H86       -50.1913  -31.2909    6.5031 H         1 UNK         0.0864 
     87 H87       -50.0866  -28.5898    5.0904 H         1 UNK         0.0720 
     88 H88       -49.7108  -30.1498    4.4399 H         1 UNK         0.0720 
     89 H89       -53.4513  -28.1760    3.5319 H         1 UNK         0.0814 
     90 H90       -51.8166  -27.6073    3.7085 H         1 UNK         0.0814 
     91 H91       -51.0011  -26.8327    6.0058 H         1 UNK         0.1469 
     92 H92       -54.0318  -25.4593    8.6904 H         1 UNK         0.1381 
     93 H93       -55.1139  -27.7730    5.2384 H         1 UNK         0.1206 
     94 H94       -56.8245  -27.1470    6.7560 H         1 UNK         0.0813 
     95 H95       -56.5341  -25.4366    6.9415 H         1 UNK         0.0813 
     96 H96       -55.1959  -28.4161    9.2288 H         1 UNK         0.0638 
     97 H97       -56.7694  -28.8828    8.6499 H         1 UNK         0.0638 
     98 H98       -57.7440  -28.7269   10.8844 H         1 UNK         0.0568 
     99 H99       -55.5387  -31.6759   12.2548 H         1 UNK         0.3450 
    100 H100      -55.4453  -30.0523   12.8853 H         1 UNK         0.3450 
    101 H101      -56.9162  -27.6305   12.5978 H         1 UNK         0.2987 
    102 H102      -54.2873  -25.7532   13.1697 H         1 UNK         0.0766 
    103 H103      -55.6315  -25.9354   15.2637 H         1 UNK         0.0798 
    104 H104      -56.3429  -27.4434   14.7097 H         1 UNK         0.0798 
    105 H105      -56.6699  -25.9346   13.8543 H         1 UNK         0.0798 
    106 H106      -52.7331  -26.8294   14.3346 H         1 UNK         0.3198 
    107 H107      -52.4594  -29.9613   15.9550 H         1 UNK         0.0843 
    108 H108      -51.6700  -30.4075   13.6334 H         1 UNK         0.0831 
    109 H109      -50.3209  -29.9714   14.6712 H         1 UNK         0.0831 
    110 H110      -50.9747  -28.7970   13.5304 H         1 UNK         0.0831 
    111 H111      -51.0372  -27.3869   15.5632 H         1 UNK         0.3133 
    112 H112      -51.9328  -25.6948   17.7692 H         1 UNK         0.0566 
    113 H113      -50.5697  -25.6990   19.8771 H         1 UNK         0.0814 
    114 H114      -51.9861  -26.7284   19.9954 H         1 UNK         0.0814 
    115 H115      -50.4034  -27.4508   19.7584 H         1 UNK         0.0814 
    116 H116      -50.0369  -25.2420   16.7792 H         1 UNK         0.3091 
    117 H117      -46.7884  -26.2286   16.9687 H         1 UNK         0.0702 
    118 H118      -46.6334  -26.7071   14.5138 H         1 UNK         0.0785 
    119 H119      -48.3443  -27.1283   14.4799 H         1 UNK         0.0785 
    120 H120      -47.2114  -28.1130   15.3943 H         1 UNK         0.0785 
    121 H121      -48.1205  -24.7031   14.9337 H         1 UNK         0.2998 
    122 H122      -48.7401  -21.7898   16.8718 H         1 UNK         0.0697 
    123 H123      -46.7962  -22.3206   14.5557 H         1 UNK         0.0825 
    124 H124      -46.3918  -21.5385   16.0758 H         1 UNK         0.0825 
    125 H125      -47.5106  -20.7617   14.9684 H         1 UNK         0.0825 
    126 H126      -49.2449  -22.5444   14.1391 H         1 UNK         0.3029 
    127 H127      -52.5292  -23.8582   14.6900 H         1 UNK         0.0897 
    128 H128      -53.0595  -22.0840   13.0452 H         1 UNK         0.0792 
    129 H129      -52.7645  -21.3749   14.6234 H         1 UNK         0.0792 
    130 H130      -51.5293  -21.2720   13.3766 H         1 UNK         0.0792 
    131 H131      -50.8882  -23.4397   12.3471 H         1 UNK         0.3086 
    132 H132      -49.4684  -26.6858   12.2982 H         1 UNK         0.0583 
    133 H133      -51.5126  -27.3441   11.3614 H         1 UNK         0.1020 
    134 H134      -51.9974  -25.7459   10.8879 H         1 UNK         0.1020 
    135 H135      -51.7150  -24.6772    8.9189 H         1 UNK         0.0694 
    136 H136      -50.5810  -25.0133    7.6443 H         1 UNK         0.0694 
    137 H137      -49.1825  -24.8630   10.3156 H         1 UNK         0.2989 
    138 H138      -47.1253  -22.5174   11.3037 H         1 UNK         0.1055 
    139 H139      -45.3640  -23.9325   12.3122 H         1 UNK         0.0806 
    140 H140      -44.9263  -23.5301   10.6614 H         1 UNK         0.0806 
    141 H141      -45.5507  -25.1345   11.0430 H         1 UNK         0.0806 
    142 H142      -47.0497  -24.5649    9.1445 H         1 UNK         0.3061 
    143 H143      -49.1473  -23.2876    7.0944 H         1 UNK         0.0734 
    144 H144      -48.4829  -20.9209    6.8167 H         1 UNK         0.0832 
    145 H145      -46.7809  -21.3624    6.7870 H         1 UNK         0.0832 
    146 H146      -47.8532  -21.8688    5.4819 H         1 UNK         0.0832 
    147 H147      -46.2403  -23.9772    7.1980 H         1 UNK         0.3156 
    148 H148      -46.5069  -26.5581    4.9803 H         1 UNK         0.0589 
    149 H149      -44.8097  -25.4169    7.2779 H         1 UNK         0.0808 
    150 H150      -44.2602  -26.4655    5.9818 H         1 UNK         0.0808 
    151 H151      -44.7913  -24.8381    5.6120 H         1 UNK         0.0808 
    152 H152      -46.8550  -28.2799    6.3485 H         1 UNK         0.3098 
    153 H153      -46.4666  -29.5267    8.5225 H         1 UNK         0.0720 
    154 H154      -46.4141  -28.4754   10.7699 H         1 UNK         0.0791 
    155 H155      -47.6267  -29.7452   10.7199 H         1 UNK         0.0791 
    156 H156      -48.1140  -28.0527   10.6494 H         1 UNK         0.0791 
    157 H157      -49.3555  -28.9707    8.7157 H         1 UNK         0.3028 
@<TRIPOS>BOND
     1    1    2 1    
     2    1   82 1    
     3    1   83 1    
     4    1   84 1    
     5    2    3 2    
     6    2    4 am   BACKBONE|DICT|INTERRES
     7    4    5 1    
     8    4   85 1    
     9    5    6 1    
    10    5   80 1    
    11    5   86 1    
    12    6    7 1    
    13    6   87 1    
    14    6   88 1    
    15    7    8 1    
    16    8    9 1    
    17    8   89 1    
    18    8   90 1    
    19    9   10 ar   
    20    9   14 ar   
    21   10   11 ar   
    22   10   91 1    
    23   11   12 ar   
    24   11   58 1    
    25   12   13 ar   
    26   12   92 1    
    27   13   14 ar   
    28   13   15 1    
    29   14   93 1    
    30   15   16 1    
    31   15   94 1    
    32   15   95 1    
    33   16   17 1    
    34   17   18 1    
    35   17   96 1    
    36   17   97 1    
    37   18   19 1    
    38   18   22 1    
    39   18   98 1    
    40   19   20 am   BACKBONE|DICT|INTERRES
    41   19   21 2    
    42   20   99 1    
    43   20  100 1    
    44   22   23 am   BACKBONE|DICT|INTERRES
    45   22  101 1    
    46   23   24 2    
    47   23   25 1    
    48   25   26 1    
    49   25   27 1    
    50   25  102 1    
    51   26  103 1    
    52   26  104 1    
    53   26  105 1    
    54   27   28 am   BACKBONE|DICT|INTERRES
    55   27  106 1    
    56   28   29 2    
    57   28   30 1    
    58   30   31 1    
    59   30   32 1    
    60   30  107 1    
    61   31  108 1    
    62   31  109 1    
    63   31  110 1    
    64   32   33 am   BACKBONE|DICT|INTERRES
    65   32  111 1    
    66   33   34 2    
    67   33   35 1    
    68   35   36 1    
    69   35   37 1    
    70   35  112 1    
    71   36  113 1    
    72   36  114 1    
    73   36  115 1    
    74   37   38 am   BACKBONE|DICT|INTERRES
    75   37  116 1    
    76   38   39 2    
    77   38   40 1    
    78   40   41 1    
    79   40   42 1    
    80   40  117 1    
    81   41  118 1    
    82   41  119 1    
    83   41  120 1    
    84   42   43 am   BACKBONE|DICT|INTERRES
    85   42  121 1    
    86   43   44 2    
    87   43   45 1    
    88   45   46 1    
    89   45   47 1    
    90   45  122 1    
    91   46  123 1    
    92   46  124 1    
    93   46  125 1    
    94   47   48 am   BACKBONE|DICT|INTERRES
    95   47  126 1    
    96   48   49 2    
    97   48   50 1    
    98   50   51 1    
    99   50   52 1    
   100   50  127 1    
   101   51  128 1    
   102   51  129 1    
   103   51  130 1    
   104   52   53 am   BACKBONE|DICT|INTERRES
   105   52  131 1    
   106   53   54 2    
   107   53   55 1    
   108   55   56 1    
   109   55   59 1    
   110   55  132 1    
   111   56   57 1    
   112   56  133 1    
   113   56  134 1    
   114   57   58 1    
   115   58  135 1    
   116   58  136 1    
   117   59   60 am   BACKBONE|DICT|INTERRES
   118   59  137 1    
   119   60   61 2    
   120   60   62 1    
   121   62   63 1    
   122   62   64 1    
   123   62  138 1    
   124   63  139 1    
   125   63  140 1    
   126   63  141 1    
   127   64   65 am   BACKBONE|DICT|INTERRES
   128   64  142 1    
   129   65   66 2    
   130   65   67 1    
   131   67   68 1    
   132   67   69 1    
   133   67  143 1    
   134   68  144 1    
   135   68  145 1    
   136   68  146 1    
   137   69   70 am   BACKBONE|DICT|INTERRES
   138   69  147 1    
   139   70   71 2    
   140   70   72 1    
   141   72   73 1    
   142   72   74 1    
   143   72  148 1    
   144   73  149 1    
   145   73  150 1    
   146   73  151 1    
   147   74   75 am   BACKBONE|DICT|INTERRES
   148   74  152 1    
   149   75   76 2    
   150   75   77 1    
   151   77   78 1    
   152   77   79 1    
   153   77  153 1    
   154   78  154 1    
   155   78  155 1    
   156   78  156 1    
   157   79   80 am   BACKBONE|DICT|INTERRES
   158   79  157 1    
   159   80   81 2    
@<TRIPOS>SUBSTRUCTURE
     1 UNK         1 GROUP             0       ****    0 ROOT    
