@<TRIPOS>MOLECULE
3R207
157   159    1
SMALL
USER_CHARGES


@<TRIPOS>ATOM
      1 CA        -47.2300  -31.2676    7.0793 C.3       0 UNK        -0.1975 
      2 C         -46.4109  -30.4785    8.0962 C.2       0 UNK         0.4852 
      3 O         -45.2944  -30.8836    8.4140 O.2       0 UNK        -0.5216 
      4 N         -46.9042  -29.3544    8.6320 N.am      1 UNK        -0.4461 
      5 CA        -48.1891  -28.7076    8.3476 C.3       1 UNK         0.0864 
      6 C6        -49.0252  -28.5129    9.6373 C.3       14 UNK        -0.0898 
      7 S7        -49.5613  -30.0768   10.4128 S.3       14 UNK        -0.2598 
      8 C8        -50.8311  -30.7106    9.2632 C.3       14 UNK         0.0286 
      9 C9        -51.8198  -29.6409    8.8239 C.ar      14 UNK        -0.0844 
     10 C10       -51.7684  -29.1271    7.5239 C.ar      14 UNK        -0.0881 
     11 C11       -52.6480  -28.1188    7.1240 C.ar      14 UNK        -0.0643 
     12 C12       -53.5964  -27.6370    8.0320 C.ar      14 UNK        -0.0930 
     13 C13       -53.6578  -28.1423    9.3337 C.ar      14 UNK        -0.0827 
     14 C14       -52.7724  -29.1515    9.7214 C.ar      14 UNK        -0.1249 
     15 C15       -54.6865  -27.6016   10.3142 C.3       14 UNK         0.0141 
     16 S16       -53.9013  -26.6769   11.6719 S.3       14 UNK        -0.2313 
     17 C17       -55.2222  -25.5081   12.1458 C.3       14 UNK        -0.0915 
     18 CA        -56.2515  -26.0529   13.1709 C.3       13 UNK         0.0968 
     19 C         -57.2264  -27.0900   12.5352 C.2       13 UNK         0.5732 
     20 N         -57.2539  -28.3467   12.9653 N.am      13 UNK        -0.7310 
     21 O         -57.9822  -26.7402   11.6319 O.2       13 UNK        -0.5035 
     22 N         -55.6134  -26.4750   14.4267 N.am      13 UNK        -0.4233 
     23 C         -56.2759  -26.6703   15.5757 C.2       13 UNK         0.4989 
     24 O         -57.4590  -26.3637   15.7370 O.2       13 UNK        -0.4996 
     25 CA        -55.4974  -27.3305   16.7320 C.3       12 UNK         0.0216 
     26 CB        -56.4226  -28.0405   17.7424 C.3       12 UNK        -0.1964 
     27 N         -54.4396  -28.2446   16.2857 N.am      12 UNK        -0.4276 
     28 C         -54.5507  -29.3121   15.4789 C.2       12 UNK         0.5020 
     29 O         -55.6166  -29.6934   14.9935 O.2       12 UNK        -0.5489 
     30 CA        -53.2545  -30.0589   15.1113 C.3       11 UNK         0.0294 
     31 CB        -52.9663  -29.9188   13.6076 C.3       11 UNK        -0.2019 
     32 N         -52.0952  -29.5661   15.8602 N.am      11 UNK        -0.4493 
     33 C         -51.6925  -30.0448   17.0456 C.2       11 UNK         0.4932 
     34 O         -52.2015  -31.0173   17.6027 O.2       11 UNK        -0.5029 
     35 CA        -50.5410  -29.2951   17.7414 C.3       10 UNK         0.0280 
     36 CB        -49.1864  -29.8985   17.3368 C.3       10 UNK        -0.1976 
     37 N         -50.5333  -27.8540   17.4665 N.am      10 UNK        -0.4242 
     38 C         -51.4892  -26.9921   17.8466 C.2       10 UNK         0.5072 
     39 O         -52.4779  -27.3127   18.5045 O.2       10 UNK        -0.5224 
     40 CA        -51.3516  -25.5385   17.3619 C.3       9 UNK         0.0343 
     41 CB        -50.5599  -24.7012   18.3786 C.3       9 UNK        -0.2003 
     42 N         -50.7230  -25.4326   16.0420 N.am      9 UNK        -0.4272 
     43 C         -51.2598  -25.8947   14.9048 C.2       9 UNK         0.4988 
     44 O         -52.3617  -26.4447   14.8349 O.2       9 UNK        -0.5108 
     45 CA        -50.3828  -25.7882   13.6502 C.3       8 UNK         0.0248 
     46 CB        -50.0076  -27.1881   13.1377 C.3       8 UNK        -0.2001 
     47 N         -51.0515  -25.0435   12.5865 N.am      8 UNK        -0.4140 
     48 C         -51.2685  -23.7212   12.5955 C.2       8 UNK         0.5028 
     49 O         -50.9010  -22.9765   13.5065 O.2       8 UNK        -0.5428 
     50 CA        -51.9871  -23.1427   11.3650 C.3       7 UNK         0.0264 
     51 CB        -51.9220  -21.6054   11.2918 C.3       7 UNK        -0.1988 
     52 N         -51.4026  -23.7071   10.1502 N.am      7 UNK        -0.4454 
     53 C         -52.0892  -24.1832    9.1019 C.2       7 UNK         0.5027 
     54 O         -53.3193  -24.1583    9.0334 O.2       7 UNK        -0.5083 
     55 CA        -51.2581  -24.8038    7.9505 C.3       6 UNK         0.0844 
     56 C56       -52.0366  -24.9390    6.6108 C.3       14 UNK        -0.0967 
     57 S57       -51.3132  -26.2440    5.5604 S.3       14 UNK        -0.2604 
     58 C58       -52.5719  -27.5555    5.7107 C.3       14 UNK         0.0134 
     59 N         -49.9552  -24.1463    7.7874 N.am      6 UNK        -0.4116 
     60 C         -49.7553  -22.8570    7.4673 C.2       5 UNK         0.5034 
     61 O         -50.6640  -22.0782    7.1731 O.2       5 UNK        -0.5045 
     62 CA        -48.3028  -22.3385    7.4996 C.3       5 UNK         0.0224 
     63 CB        -48.2255  -20.8261    7.7994 C.3       5 UNK        -0.1978 
     64 N         -47.4194  -23.0788    8.4099 N.am      5 UNK        -0.4737 
     65 C         -47.5729  -23.2714    9.7309 C.2       4 UNK         0.5027 
     66 O         -48.5365  -22.8490   10.3702 O.2       4 UNK        -0.5211 
     67 CA        -46.5064  -24.1196   10.4498 C.3       4 UNK         0.0297 
     68 CB        -47.1531  -25.0669   11.4761 C.3       4 UNK        -0.1993 
     69 N         -45.7405  -24.9181    9.4909 N.am      4 UNK        -0.4486 
     70 C         -44.4777  -24.6842    9.1079 C.2       3 UNK         0.4961 
     71 O         -43.7634  -23.8102    9.5990 O.2       3 UNK        -0.5105 
     72 CA        -43.9145  -25.5558    7.9660 C.3       3 UNK         0.0299 
     73 CB        -43.0291  -26.6758    8.5359 C.3       3 UNK        -0.1972 
     74 N         -44.9457  -26.1508    7.1085 N.am      3 UNK        -0.4305 
     75 C         -45.7876  -25.4656    6.3195 C.2       2 UNK         0.5006 
     76 O         -45.7405  -24.2451    6.1691 O.2       2 UNK        -0.5106 
     77 CA        -46.9198  -26.2647    5.6462 C.3       2 UNK         0.0296 
     78 CB        -46.4992  -26.7183    4.2397 C.3       2 UNK        -0.2002 
     79 N         -47.3612  -27.4287    6.4259 N.am      2 UNK        -0.4032 
     80 C         -47.8889  -27.3652    7.6580 C.2       1 UNK         0.5000 
     81 O         -48.0587  -26.3038    8.2641 O.2       1 UNK        -0.5238 
     82 H82       -47.4740  -30.6610    6.2084 H         1 UNK         0.0889 
     83 H83       -48.1519  -31.6324    7.5299 H         1 UNK         0.0889 
     84 H84       -46.6697  -32.1347    6.7298 H         1 UNK         0.0889 
     85 H85       -46.3362  -28.8744    9.3155 H         1 UNK         0.3028 
     86 H86       -48.7867  -29.2874    7.6459 H         1 UNK         0.0864 
     87 H87       -48.4344  -27.9740   10.3780 H         1 UNK         0.0720 
     88 H88       -49.9026  -27.8906    9.4535 H         1 UNK         0.0720 
     89 H89       -51.3722  -31.5222    9.7517 H         1 UNK         0.0814 
     90 H90       -50.3403  -31.1567    8.3981 H         1 UNK         0.0814 
     91 H91       -51.0380  -29.5019    6.8206 H         1 UNK         0.1469 
     92 H92       -54.2858  -26.8614    7.7291 H         1 UNK         0.1381 
     93 H93       -52.8105  -29.5415   10.7289 H         1 UNK         0.1206 
     94 H94       -55.2588  -28.4323   10.7286 H         1 UNK         0.0813 
     95 H95       -55.4013  -26.9603    9.7964 H         1 UNK         0.0813 
     96 H96       -55.7197  -25.1363   11.2483 H         1 UNK         0.0638 
     97 H97       -54.7321  -24.6365   12.5804 H         1 UNK         0.0638 
     98 H98       -56.8889  -25.2053   13.4296 H         1 UNK         0.0568 
     99 H99       -56.6412  -28.6682   13.7094 H         1 UNK         0.3450 
    100 H100      -57.8996  -28.9927   12.5418 H         1 UNK         0.3450 
    101 H101      -54.6337  -26.7253   14.3708 H         1 UNK         0.2987 
    102 H102      -54.9936  -26.5177   17.2569 H         1 UNK         0.0766 
    103 H103      -57.1338  -27.3418   18.1848 H         1 UNK         0.0798 
    104 H104      -55.8511  -28.4785   18.5608 H         1 UNK         0.0798 
    105 H105      -56.9982  -28.8376   17.2703 H         1 UNK         0.0798 
    106 H106      -53.5148  -28.0164   16.6261 H         1 UNK         0.3198 
    107 H107      -53.4129  -31.1169   15.3309 H         1 UNK         0.0843 
    108 H108      -52.8420  -28.8750   13.3220 H         1 UNK         0.0831 
    109 H109      -53.7874  -30.3208   13.0123 H         1 UNK         0.0831 
    110 H110      -52.0631  -30.4569   13.3196 H         1 UNK         0.0831 
    111 H111      -51.6321  -28.7519   15.4817 H         1 UNK         0.3133 
    112 H112      -50.6654  -29.4270   18.8184 H         1 UNK         0.0566 
    113 H113      -48.3652  -29.4359   17.8846 H         1 UNK         0.0814 
    114 H114      -48.9905  -29.7783   16.2704 H         1 UNK         0.0814 
    115 H115      -49.1557  -30.9672   17.5543 H         1 UNK         0.0814 
    116 H116      -49.7504  -27.4944   16.9404 H         1 UNK         0.3091 
    117 H117      -52.3581  -25.1211   17.2855 H         1 UNK         0.0702 
    118 H118      -50.5260  -23.6513   18.0868 H         1 UNK         0.0785 
    119 H119      -49.5333  -25.0545   18.4846 H         1 UNK         0.0785 
    120 H120      -51.0235  -24.7461   19.3653 H         1 UNK         0.0785 
    121 H121      -49.8214  -24.9785   16.0045 H         1 UNK         0.2998 
    122 H122      -49.4598  -25.2632   13.9049 H         1 UNK         0.0697 
    123 H123      -49.2671  -27.1274   12.3437 H         1 UNK         0.0825 
    124 H124      -50.8715  -27.7236   12.7434 H         1 UNK         0.0825 
    125 H125      -49.5747  -27.7999   13.9301 H         1 UNK         0.0825 
    126 H126      -51.4530  -25.5887   11.8368 H         1 UNK         0.3029 
    127 H127      -53.0341  -23.4375   11.4501 H         1 UNK         0.0897 
    128 H128      -50.8913  -21.2524   11.2331 H         1 UNK         0.0792 
    129 H129      -52.3777  -21.1498   12.1717 H         1 UNK         0.0792 
    130 H130      -52.4545  -21.2287   10.4183 H         1 UNK         0.0792 
    131 H131      -50.3864  -23.7028   10.1219 H         1 UNK         0.3086 
    132 H132      -51.0334  -25.8110    8.3055 H         1 UNK         0.0583 
    133 H133      -53.0900  -25.1667    6.7684 H         1 UNK         0.1020 
    134 H134      -52.0363  -24.0000    6.0569 H         1 UNK         0.1020 
    135 H135      -53.5432  -27.1675    5.3996 H         1 UNK         0.0694 
    136 H136      -52.3290  -28.3559    5.0102 H         1 UNK         0.0694 
    137 H137      -49.1492  -24.7279    8.0001 H         1 UNK         0.2989 
    138 H138      -47.9091  -22.4977    6.4944 H         1 UNK         0.1055 
    139 H139      -48.6650  -20.5848    8.7680 H         1 UNK         0.0806 
    140 H140      -48.7604  -20.2467    7.0459 H         1 UNK         0.0806 
    141 H141      -47.1939  -20.4742    7.8017 H         1 UNK         0.0806 
    142 H142      -46.6107  -23.4958    7.9627 H         1 UNK         0.3061 
    143 H143      -45.8509  -23.4293   10.9843 H         1 UNK         0.0734 
    144 H144      -47.8975  -25.7093   11.0066 H         1 UNK         0.0832 
    145 H145      -46.4107  -25.7034   11.9574 H         1 UNK         0.0832 
    146 H146      -47.6578  -24.5057   12.2635 H         1 UNK         0.0832 
    147 H147      -46.2806  -25.6210    8.9983 H         1 UNK         0.3156 
    148 H148      -43.2925  -24.9120    7.3407 H         1 UNK         0.0589 
    149 H149      -43.5998  -27.3673    9.1571 H         1 UNK         0.0808 
    150 H150      -42.2310  -26.2647    9.1559 H         1 UNK         0.0808 
    151 H151      -42.5537  -27.2508    7.7410 H         1 UNK         0.0808 
    152 H152      -45.0467  -27.1540    7.1542 H         1 UNK         0.3098 
    153 H153      -47.7761  -25.5936    5.5467 H         1 UNK         0.0720 
    154 H154      -45.6635  -27.4185    4.2717 H         1 UNK         0.0791 
    155 H155      -46.1880  -25.8668    3.6325 H         1 UNK         0.0791 
    156 H156      -47.3242  -27.2014    3.7156 H         1 UNK         0.0791 
    157 H157      -47.2341  -28.3312    5.9928 H         1 UNK         0.3028 
@<TRIPOS>BOND
     1    1    2 1    
     2    1   82 1    
     3    1   83 1    
     4    1   84 1    
     5    2    3 2    
     6    2    4 am   BACKBONE|DICT|INTERRES
     7    4    5 1    
     8    4   85 1    
     9    5    6 1    
    10    5   80 1    
    11    5   86 1    
    12    6    7 1    
    13    6   87 1    
    14    6   88 1    
    15    7    8 1    
    16    8    9 1    
    17    8   89 1    
    18    8   90 1    
    19    9   10 ar   
    20    9   14 ar   
    21   10   11 ar   
    22   10   91 1    
    23   11   12 ar   
    24   11   58 1    
    25   12   13 ar   
    26   12   92 1    
    27   13   14 ar   
    28   13   15 1    
    29   14   93 1    
    30   15   16 1    
    31   15   94 1    
    32   15   95 1    
    33   16   17 1    
    34   17   18 1    
    35   17   96 1    
    36   17   97 1    
    37   18   19 1    
    38   18   22 1    
    39   18   98 1    
    40   19   20 am   BACKBONE|DICT|INTERRES
    41   19   21 2    
    42   20   99 1    
    43   20  100 1    
    44   22   23 am   BACKBONE|DICT|INTERRES
    45   22  101 1    
    46   23   24 2    
    47   23   25 1    
    48   25   26 1    
    49   25   27 1    
    50   25  102 1    
    51   26  103 1    
    52   26  104 1    
    53   26  105 1    
    54   27   28 am   BACKBONE|DICT|INTERRES
    55   27  106 1    
    56   28   29 2    
    57   28   30 1    
    58   30   31 1    
    59   30   32 1    
    60   30  107 1    
    61   31  108 1    
    62   31  109 1    
    63   31  110 1    
    64   32   33 am   BACKBONE|DICT|INTERRES
    65   32  111 1    
    66   33   34 2    
    67   33   35 1    
    68   35   36 1    
    69   35   37 1    
    70   35  112 1    
    71   36  113 1    
    72   36  114 1    
    73   36  115 1    
    74   37   38 am   BACKBONE|DICT|INTERRES
    75   37  116 1    
    76   38   39 2    
    77   38   40 1    
    78   40   41 1    
    79   40   42 1    
    80   40  117 1    
    81   41  118 1    
    82   41  119 1    
    83   41  120 1    
    84   42   43 am   BACKBONE|DICT|INTERRES
    85   42  121 1    
    86   43   44 2    
    87   43   45 1    
    88   45   46 1    
    89   45   47 1    
    90   45  122 1    
    91   46  123 1    
    92   46  124 1    
    93   46  125 1    
    94   47   48 am   BACKBONE|DICT|INTERRES
    95   47  126 1    
    96   48   49 2    
    97   48   50 1    
    98   50   51 1    
    99   50   52 1    
   100   50  127 1    
   101   51  128 1    
   102   51  129 1    
   103   51  130 1    
   104   52   53 am   BACKBONE|DICT|INTERRES
   105   52  131 1    
   106   53   54 2    
   107   53   55 1    
   108   55   56 1    
   109   55   59 1    
   110   55  132 1    
   111   56   57 1    
   112   56  133 1    
   113   56  134 1    
   114   57   58 1    
   115   58  135 1    
   116   58  136 1    
   117   59   60 am   BACKBONE|DICT|INTERRES
   118   59  137 1    
   119   60   61 2    
   120   60   62 1    
   121   62   63 1    
   122   62   64 1    
   123   62  138 1    
   124   63  139 1    
   125   63  140 1    
   126   63  141 1    
   127   64   65 am   BACKBONE|DICT|INTERRES
   128   64  142 1    
   129   65   66 2    
   130   65   67 1    
   131   67   68 1    
   132   67   69 1    
   133   67  143 1    
   134   68  144 1    
   135   68  145 1    
   136   68  146 1    
   137   69   70 am   BACKBONE|DICT|INTERRES
   138   69  147 1    
   139   70   71 2    
   140   70   72 1    
   141   72   73 1    
   142   72   74 1    
   143   72  148 1    
   144   73  149 1    
   145   73  150 1    
   146   73  151 1    
   147   74   75 am   BACKBONE|DICT|INTERRES
   148   74  152 1    
   149   75   76 2    
   150   75   77 1    
   151   77   78 1    
   152   77   79 1    
   153   77  153 1    
   154   78  154 1    
   155   78  155 1    
   156   78  156 1    
   157   79   80 am   BACKBONE|DICT|INTERRES
   158   79  157 1    
   159   80   81 2    
@<TRIPOS>SUBSTRUCTURE
     1 UNK         1 GROUP             0       ****    0 ROOT    
