@<TRIPOS>MOLECULE
3R207
157   159    1
SMALL
USER_CHARGES


@<TRIPOS>ATOM
      1 CA        -49.0440  -27.7704    2.1896 C.3       0 UNK        -0.1975 
      2 C         -50.0221  -28.1840    3.2791 C.2       0 UNK         0.4852 
      3 O         -51.1539  -28.5614    2.9742 O.2       0 UNK        -0.5216 
      4 N         -49.5964  -28.1118    4.5475 N.am      1 UNK        -0.4461 
      5 CA        -50.3922  -28.4919    5.7234 C.3       1 UNK         0.0864 
      6 C6        -49.5055  -28.7218    6.9692 C.3       14 UNK        -0.0898 
      7 S7        -48.3091  -30.0802    6.7481 S.3       14 UNK        -0.2598 
      8 C8        -49.2257  -31.4965    7.4408 C.3       14 UNK         0.0286 
      9 C9        -49.4344  -31.3730    8.9445 C.ar      14 UNK        -0.0844 
     10 C10       -48.3681  -31.5833    9.8217 C.ar      14 UNK        -0.0881 
     11 C11       -48.5510  -31.4753   11.2034 C.ar      14 UNK        -0.0643 
     12 C12       -49.8113  -31.1357   11.7082 C.ar      14 UNK        -0.0930 
     13 C13       -50.8918  -30.9348   10.8405 C.ar      14 UNK        -0.0827 
     14 C14       -50.6963  -31.0669    9.4614 C.ar      14 UNK        -0.1249 
     15 C15       -52.2784  -30.6167   11.3893 C.3       14 UNK         0.0141 
     16 S16       -52.9698  -29.0917   10.6739 S.3       14 UNK        -0.2313 
     17 C17       -54.5972  -29.0360   11.4870 C.3       14 UNK        -0.0915 
     18 CA        -55.4233  -27.7918   11.0744 C.3       13 UNK         0.0968 
     19 C         -56.8443  -27.8504   11.6979 C.2       13 UNK         0.5732 
     20 N         -57.0492  -27.3397   12.9054 N.am      13 UNK        -0.7310 
     21 O         -57.7710  -28.3650   11.0761 O.2       13 UNK        -0.5035 
     22 N         -54.7088  -26.5349   11.3453 N.am      13 UNK        -0.4233 
     23 C         -55.0565  -25.3415   10.8466 C.2       13 UNK         0.4989 
     24 O         -56.0152  -25.1612   10.0924 O.2       13 UNK        -0.4996 
     25 CA        -54.1723  -24.1591   11.2796 C.3       12 UNK         0.0216 
     26 CB        -54.6291  -22.7950   10.7165 C.3       12 UNK        -0.1964 
     27 N         -54.0174  -24.1196   12.7382 N.am      12 UNK        -0.4276 
     28 C         -54.9714  -23.8823   13.6510 C.2       12 UNK         0.5020 
     29 O         -56.1374  -23.5946   13.3739 O.2       12 UNK        -0.5489 
     30 CA        -54.5404  -23.9725   15.1270 C.3       11 UNK         0.0294 
     31 CB        -55.7346  -23.9754   16.1061 C.3       11 UNK        -0.2019 
     32 N         -53.6374  -25.0938   15.4113 N.am      11 UNK        -0.4493 
     33 C         -53.8940  -26.4054   15.2868 C.2       11 UNK         0.4932 
     34 O         -54.9417  -26.8446   14.8113 O.2       11 UNK        -0.5029 
     35 CA        -52.8183  -27.4038   15.7731 C.3       10 UNK         0.0280 
     36 CB        -52.6925  -28.6071   14.8241 C.3       10 UNK        -0.1976 
     37 N         -51.4943  -26.8023   15.9462 N.am      10 UNK        -0.4242 
     38 C         -51.0740  -26.1127   17.0156 C.2       10 UNK         0.5072 
     39 O         -51.7338  -25.9726   18.0453 O.2       10 UNK        -0.5224 
     40 CA        -49.7148  -25.3974   16.8838 C.3       9 UNK         0.0343 
     41 CB        -48.5677  -26.3210   17.3207 C.3       9 UNK        -0.2003 
     42 N         -49.4638  -24.8928   15.5270 N.am      9 UNK        -0.4272 
     43 C         -50.2296  -23.9800   14.9080 C.2       9 UNK         0.4988 
     44 O         -51.1854  -23.4156   15.4396 O.2       9 UNK        -0.5108 
     45 CA        -49.9188  -23.6865   13.4328 C.3       8 UNK         0.0248 
     46 CB        -48.7783  -22.6626   13.3180 C.3       8 UNK        -0.2001 
     47 N         -49.6171  -24.9091   12.6784 N.am      8 UNK        -0.4140 
     48 C         -50.5215  -25.8672   12.4186 C.2       8 UNK         0.5028 
     49 O         -51.7190  -25.7622   12.6826 O.2       8 UNK        -0.5428 
     50 CA        -50.0032  -27.1885   11.8336 C.3       7 UNK         0.0264 
     51 CB        -49.9715  -27.1656   10.3007 C.3       7 UNK        -0.1988 
     52 N         -48.6875  -27.5471   12.3631 N.am      7 UNK        -0.4454 
     53 C         -48.5046  -28.0219   13.6041 C.2       7 UNK         0.5027 
     54 O         -49.4311  -28.2312   14.3865 O.2       7 UNK        -0.5083 
     55 CA        -47.0605  -28.2658   14.0896 C.3       6 UNK         0.0844 
     56 C56       -46.6664  -29.7599   14.0138 C.3       14 UNK        -0.0967 
     57 S57       -46.2759  -30.3479   12.3262 S.3       14 UNK        -0.2604 
     58 C58       -47.3892  -31.7763   12.1378 C.3       14 UNK         0.0134 
     59 N         -46.0701  -27.3950   13.4548 N.am      6 UNK        -0.4116 
     60 C         -46.0253  -26.0623   13.5710 C.2       5 UNK         0.5034 
     61 O         -46.8212  -25.4144   14.2547 O.2       5 UNK        -0.5045 
     62 CA        -44.9370  -25.3177   12.7671 C.3       5 UNK         0.0224 
     63 CB        -44.0062  -26.2462   11.9524 C.3       5 UNK        -0.1978 
     64 N         -45.4952  -24.2818   11.8858 N.am      5 UNK        -0.4737 
     65 C         -46.4775  -24.4356   10.9864 C.2       4 UNK         0.5027 
     66 O         -47.0809  -25.4943   10.8106 O.2       4 UNK        -0.5211 
     67 CA        -46.8445  -23.1815   10.1750 C.3       4 UNK         0.0297 
     68 CB        -45.8884  -22.9825    8.9815 C.3       4 UNK        -0.1993 
     69 N         -48.2597  -23.1592    9.7737 N.am      4 UNK        -0.4486 
     70 C         -48.8812  -23.8329    8.7953 C.2       3 UNK         0.4961 
     71 O         -48.3220  -24.5573    7.9669 O.2       3 UNK        -0.5105 
     72 CA        -50.4075  -23.6480    8.7266 C.3       3 UNK         0.0299 
     73 CB        -50.8075  -22.1539    8.7216 C.3       3 UNK        -0.1972 
     74 N         -50.8897  -24.3176    7.5213 N.am      3 UNK        -0.4305 
     75 C         -52.1631  -24.5276    7.1669 C.2       2 UNK         0.5006 
     76 O         -53.1318  -24.2176    7.8584 O.2       2 UNK        -0.5106 
     77 CA        -52.3970  -25.1867    5.7976 C.3       2 UNK         0.0296 
     78 CB        -52.3284  -24.1395    4.6735 C.3       2 UNK        -0.2002 
     79 N         -51.4403  -26.2605    5.5242 N.am      2 UNK        -0.4032 
     80 C         -51.5162  -27.4874    6.0600 C.2       1 UNK         0.5000 
     81 O         -52.4308  -27.8456    6.8035 O.2       1 UNK        -0.5238 
     82 H82       -49.4527  -26.9410    1.6130 H         1 UNK         0.0889 
     83 H83       -48.8666  -28.6034    1.5098 H         1 UNK         0.0889 
     84 H84       -48.0839  -27.4580    2.6000 H         1 UNK         0.0889 
     85 H85       -48.6474  -27.8222    4.7392 H         1 UNK         0.3028 
     86 H86       -50.8912  -29.4359    5.4925 H         1 UNK         0.0864 
     87 H87       -48.9514  -27.8151    7.2205 H         1 UNK         0.0720 
     88 H88       -50.1261  -28.9411    7.8369 H         1 UNK         0.0720 
     89 H89       -48.6710  -32.4118    7.2295 H         1 UNK         0.0814 
     90 H90       -50.1812  -31.5952    6.9232 H         1 UNK         0.0814 
     91 H91       -47.3930  -31.8354    9.4273 H         1 UNK         0.1469 
     92 H92       -49.9535  -31.0480   12.7767 H         1 UNK         0.1381 
     93 H93       -51.5300  -30.9162    8.7889 H         1 UNK         0.1206 
     94 H94       -52.2497  -30.5161   12.4751 H         1 UNK         0.0813 
     95 H95       -52.9452  -31.4515   11.1695 H         1 UNK         0.0813 
     96 H96       -54.4545  -29.0564   12.5672 H         1 UNK         0.0638 
     97 H97       -55.1327  -29.9513   11.2277 H         1 UNK         0.0638 
     98 H98       -55.5606  -27.8449    9.9924 H         1 UNK         0.0568 
     99 H99       -57.9733  -27.3733   13.3033 H         1 UNK         0.3450 
    100 H100      -56.2736  -26.9904   13.4616 H         1 UNK         0.3450 
    101 H101      -53.9072  -26.5942   11.9582 H         1 UNK         0.2987 
    102 H102      -53.1812  -24.3573   10.8687 H         1 UNK         0.0766 
    103 H103      -53.9621  -21.9930   11.0318 H         1 UNK         0.0798 
    104 H104      -55.6404  -22.5374   11.0312 H         1 UNK         0.0798 
    105 H105      -54.6268  -22.8074    9.6262 H         1 UNK         0.0798 
    106 H106      -53.1181  -24.4618   13.0683 H         1 UNK         0.3198 
    107 H107      -53.9639  -23.0669   15.3221 H         1 UNK         0.0843 
    108 H108      -56.3947  -24.8267   15.9365 H         1 UNK         0.0831 
    109 H109      -56.3353  -23.0721   15.9929 H         1 UNK         0.0831 
    110 H110      -55.3987  -24.0113   17.1423 H         1 UNK         0.0831 
    111 H111      -52.7209  -24.8190   15.7464 H         1 UNK         0.3133 
    112 H112      -53.1544  -27.7806   16.7409 H         1 UNK         0.0566 
    113 H113      -52.4380  -28.2911   13.8124 H         1 UNK         0.0814 
    114 H114      -51.9230  -29.3021   15.1607 H         1 UNK         0.0814 
    115 H115      -53.6274  -29.1657   14.7740 H         1 UNK         0.0814 
    116 H116      -50.8483  -26.9257   15.1741 H         1 UNK         0.3091 
    117 H117      -49.7281  -24.5342   17.5526 H         1 UNK         0.0702 
    118 H118      -47.5963  -25.8427   17.1931 H         1 UNK         0.0785 
    119 H119      -48.5636  -27.2530   16.7570 H         1 UNK         0.0785 
    120 H120      -48.6652  -26.5842   18.3747 H         1 UNK         0.0785 
    121 H121      -48.6491  -25.2543   15.0400 H         1 UNK         0.2998 
    122 H122      -50.8136  -23.2363   12.9972 H         1 UNK         0.0697 
    123 H123      -47.8127  -23.0861   13.5928 H         1 UNK         0.0825 
    124 H124      -48.9537  -21.8106   13.9768 H         1 UNK         0.0825 
    125 H125      -48.7033  -22.2617   12.3108 H         1 UNK         0.0825 
    126 H126      -48.6494  -25.0914   12.4431 H         1 UNK         0.3029 
    127 H127      -50.7062  -27.9680   12.1312 H         1 UNK         0.0897 
    128 H128      -50.9470  -26.9042    9.8881 H         1 UNK         0.0792 
    129 H129      -49.7077  -28.1504    9.9179 H         1 UNK         0.0792 
    130 H130      -49.2484  -26.4542    9.9098 H         1 UNK         0.0792 
    131 H131      -47.8852  -27.3378   11.7804 H         1 UNK         0.3086 
    132 H132      -47.0555  -28.0004   15.1480 H         1 UNK         0.0583 
    133 H133      -45.7776  -29.9242   14.6251 H         1 UNK         0.1020 
    134 H134      -47.4410  -30.3774   14.4721 H         1 UNK         0.1020 
    135 H135      -46.8102  -32.6071   11.7314 H         1 UNK         0.0694 
    136 H136      -47.7543  -32.1233   13.1049 H         1 UNK         0.0694 
    137 H137      -45.4082  -27.8534   12.8454 H         1 UNK         0.2989 
    138 H138      -44.3248  -24.8015   13.5085 H         1 UNK         0.1055 
    139 H139      -43.4996  -26.9689   12.5937 H         1 UNK         0.0806 
    140 H140      -43.2262  -25.6718   11.4523 H         1 UNK         0.0806 
    141 H141      -44.5471  -26.7981   11.1821 H         1 UNK         0.0806 
    142 H142      -45.0842  -23.3638   11.9881 H         1 UNK         0.3061 
    143 H143      -46.7205  -22.3211   10.8345 H         1 UNK         0.0734 
    144 H144      -44.8672  -22.8146    9.3255 H         1 UNK         0.0832 
    145 H145      -46.1740  -22.1192    8.3806 H         1 UNK         0.0832 
    146 H146      -45.8630  -23.8551    8.3282 H         1 UNK         0.0832 
    147 H147      -48.8496  -22.5987   10.3704 H         1 UNK         0.3156 
    148 H148      -50.8466  -24.1419    9.5957 H         1 UNK         0.0589 
    149 H149      -50.3566  -21.6227    7.8824 H         1 UNK         0.0808 
    150 H150      -51.8873  -22.0234    8.6534 H         1 UNK         0.0808 
    151 H151      -50.4973  -21.6480    9.6360 H         1 UNK         0.0808 
    152 H152      -50.1387  -24.6522    6.9293 H         1 UNK         0.3098 
    153 H153      -53.4042  -25.6097    5.8003 H         1 UNK         0.0720 
    154 H154      -52.5644  -24.5818    3.7054 H         1 UNK         0.0791 
    155 H155      -51.3409  -23.6817    4.6024 H         1 UNK         0.0791 
    156 H156      -53.0475  -23.3373    4.8457 H         1 UNK         0.0791 
    157 H157      -50.6683  -26.0522    4.9084 H         1 UNK         0.3028 
@<TRIPOS>BOND
     1    1    2 1    
     2    1   82 1    
     3    1   83 1    
     4    1   84 1    
     5    2    3 2    
     6    2    4 am   BACKBONE|DICT|INTERRES
     7    4    5 1    
     8    4   85 1    
     9    5    6 1    
    10    5   80 1    
    11    5   86 1    
    12    6    7 1    
    13    6   87 1    
    14    6   88 1    
    15    7    8 1    
    16    8    9 1    
    17    8   89 1    
    18    8   90 1    
    19    9   10 ar   
    20    9   14 ar   
    21   10   11 ar   
    22   10   91 1    
    23   11   12 ar   
    24   11   58 1    
    25   12   13 ar   
    26   12   92 1    
    27   13   14 ar   
    28   13   15 1    
    29   14   93 1    
    30   15   16 1    
    31   15   94 1    
    32   15   95 1    
    33   16   17 1    
    34   17   18 1    
    35   17   96 1    
    36   17   97 1    
    37   18   19 1    
    38   18   22 1    
    39   18   98 1    
    40   19   20 am   BACKBONE|DICT|INTERRES
    41   19   21 2    
    42   20   99 1    
    43   20  100 1    
    44   22   23 am   BACKBONE|DICT|INTERRES
    45   22  101 1    
    46   23   24 2    
    47   23   25 1    
    48   25   26 1    
    49   25   27 1    
    50   25  102 1    
    51   26  103 1    
    52   26  104 1    
    53   26  105 1    
    54   27   28 am   BACKBONE|DICT|INTERRES
    55   27  106 1    
    56   28   29 2    
    57   28   30 1    
    58   30   31 1    
    59   30   32 1    
    60   30  107 1    
    61   31  108 1    
    62   31  109 1    
    63   31  110 1    
    64   32   33 am   BACKBONE|DICT|INTERRES
    65   32  111 1    
    66   33   34 2    
    67   33   35 1    
    68   35   36 1    
    69   35   37 1    
    70   35  112 1    
    71   36  113 1    
    72   36  114 1    
    73   36  115 1    
    74   37   38 am   BACKBONE|DICT|INTERRES
    75   37  116 1    
    76   38   39 2    
    77   38   40 1    
    78   40   41 1    
    79   40   42 1    
    80   40  117 1    
    81   41  118 1    
    82   41  119 1    
    83   41  120 1    
    84   42   43 am   BACKBONE|DICT|INTERRES
    85   42  121 1    
    86   43   44 2    
    87   43   45 1    
    88   45   46 1    
    89   45   47 1    
    90   45  122 1    
    91   46  123 1    
    92   46  124 1    
    93   46  125 1    
    94   47   48 am   BACKBONE|DICT|INTERRES
    95   47  126 1    
    96   48   49 2    
    97   48   50 1    
    98   50   51 1    
    99   50   52 1    
   100   50  127 1    
   101   51  128 1    
   102   51  129 1    
   103   51  130 1    
   104   52   53 am   BACKBONE|DICT|INTERRES
   105   52  131 1    
   106   53   54 2    
   107   53   55 1    
   108   55   56 1    
   109   55   59 1    
   110   55  132 1    
   111   56   57 1    
   112   56  133 1    
   113   56  134 1    
   114   57   58 1    
   115   58  135 1    
   116   58  136 1    
   117   59   60 am   BACKBONE|DICT|INTERRES
   118   59  137 1    
   119   60   61 2    
   120   60   62 1    
   121   62   63 1    
   122   62   64 1    
   123   62  138 1    
   124   63  139 1    
   125   63  140 1    
   126   63  141 1    
   127   64   65 am   BACKBONE|DICT|INTERRES
   128   64  142 1    
   129   65   66 2    
   130   65   67 1    
   131   67   68 1    
   132   67   69 1    
   133   67  143 1    
   134   68  144 1    
   135   68  145 1    
   136   68  146 1    
   137   69   70 am   BACKBONE|DICT|INTERRES
   138   69  147 1    
   139   70   71 2    
   140   70   72 1    
   141   72   73 1    
   142   72   74 1    
   143   72  148 1    
   144   73  149 1    
   145   73  150 1    
   146   73  151 1    
   147   74   75 am   BACKBONE|DICT|INTERRES
   148   74  152 1    
   149   75   76 2    
   150   75   77 1    
   151   77   78 1    
   152   77   79 1    
   153   77  153 1    
   154   78  154 1    
   155   78  155 1    
   156   78  156 1    
   157   79   80 am   BACKBONE|DICT|INTERRES
   158   79  157 1    
   159   80   81 2    
@<TRIPOS>SUBSTRUCTURE
     1 UNK         1 GROUP             0       ****    0 ROOT    
