@<TRIPOS>MOLECULE
3R207
157   159    1
SMALL
USER_CHARGES


@<TRIPOS>ATOM
      1 CA        -47.0267  -30.6935    6.3161 C.3       0 UNK        -0.1975 
      2 C         -48.3224  -30.4675    7.0914 C.2       0 UNK         0.4852 
      3 O         -48.3500  -30.7196    8.2926 O.2       0 UNK        -0.5216 
      4 N         -49.4140  -30.0084    6.4611 N.am      1 UNK        -0.4461 
      5 CA        -49.5510  -29.7242    5.0241 C.3       1 UNK         0.0864 
      6 C6        -51.0298  -29.7418    4.5599 C.3       14 UNK        -0.0898 
      7 S7        -51.8680  -31.3122    4.9761 S.3       14 UNK        -0.2598 
      8 C8        -53.2993  -30.7596    5.9629 C.3       14 UNK         0.0286 
      9 C9        -52.8956  -29.9384    7.1803 C.ar      14 UNK        -0.0844 
     10 C10       -53.1916  -28.5726    7.2317 C.ar      14 UNK        -0.0881 
     11 C11       -52.8143  -27.8064    8.3364 C.ar      14 UNK        -0.0643 
     12 C12       -52.1281  -28.4160    9.3880 C.ar      14 UNK        -0.0930 
     13 C13       -51.8457  -29.7863    9.3664 C.ar      14 UNK        -0.0827 
     14 C14       -52.2348  -30.5412    8.2555 C.ar      14 UNK        -0.1249 
     15 C15       -51.0889  -30.4606   10.5092 C.3       14 UNK         0.0141 
     16 S16       -51.4161  -29.7420   12.1546 S.3       14 UNK        -0.2313 
     17 C17       -53.0455  -30.4420   12.5813 C.3       14 UNK        -0.0915 
     18 CA        -54.2614  -29.6408   12.0396 C.3       13 UNK         0.0968 
     19 C         -55.5960  -30.3000   12.5014 C.2       13 UNK         0.5732 
     20 N         -56.4306  -29.6456   13.3025 N.am      13 UNK        -0.7310 
     21 O         -55.8813  -31.4331   12.1210 O.2       13 UNK        -0.5035 
     22 N         -54.1626  -28.1986   12.3205 N.am      13 UNK        -0.4233 
     23 C         -54.8929  -27.2629   11.6996 C.2       13 UNK         0.4989 
     24 O         -55.6720  -27.5101   10.7777 O.2       13 UNK        -0.4996 
     25 CA        -54.7270  -25.8060   12.1839 C.3       12 UNK         0.0216 
     26 CB        -55.9140  -24.9103   11.7714 C.3       12 UNK        -0.1964 
     27 N         -54.4637  -25.6522   13.6216 N.am      12 UNK        -0.4276 
     28 C         -55.1914  -26.1514   14.6319 C.2       12 UNK         0.5020 
     29 O         -56.1389  -26.9308   14.4945 O.2       12 UNK        -0.5489 
     30 CA        -54.8015  -25.6932   16.0388 C.3       11 UNK         0.0294 
     31 CB        -55.5811  -24.4285   16.4380 C.3       11 UNK        -0.2019 
     32 N         -55.1017  -26.7762   16.9728 N.am      11 UNK        -0.4493 
     33 C         -54.4440  -27.1283   18.0853 C.2       11 UNK         0.4932 
     34 O         -54.7806  -28.1134   18.7409 O.2       11 UNK        -0.5029 
     35 CA        -53.2014  -26.3304   18.5243 C.3       10 UNK         0.0280 
     36 CB        -52.9297  -26.4509   20.0361 C.3       10 UNK        -0.1976 
     37 N         -52.0539  -26.8606   17.7908 N.am      10 UNK        -0.4242 
     38 C         -51.2592  -26.1513   16.9822 C.2       10 UNK         0.5072 
     39 O         -51.3429  -24.9301   16.8351 O.2       10 UNK        -0.5224 
     40 CA        -50.2596  -26.9718   16.1483 C.3       9 UNK         0.0343 
     41 CB        -50.9964  -27.7406   15.0406 C.3       9 UNK        -0.2003 
     42 N         -49.2265  -26.1448   15.5243 N.am      9 UNK        -0.4272 
     43 C         -48.2431  -25.5213   16.1856 C.2       9 UNK         0.4988 
     44 O         -48.0466  -25.6388   17.3966 O.2       9 UNK        -0.5108 
     45 CA        -47.3035  -24.6296   15.3578 C.3       8 UNK         0.0248 
     46 CB        -46.1345  -25.4606   14.8053 C.3       8 UNK        -0.2001 
     47 N         -47.9794  -23.9237   14.2625 N.am      8 UNK        -0.4140 
     48 C         -48.8462  -22.9142   14.4403 C.2       8 UNK         0.5028 
     49 O         -49.1475  -22.4604   15.5448 O.2       8 UNK        -0.5428 
     50 CA        -49.4588  -22.2676   13.1857 C.3       7 UNK         0.0264 
     51 CB        -48.5151  -21.1926   12.6223 C.3       7 UNK        -0.1988 
     52 N         -49.7786  -23.2255   12.1283 N.am      7 UNK        -0.4454 
     53 C         -50.8108  -24.0825   12.1478 C.2       7 UNK         0.5027 
     54 O         -51.6441  -24.1502   13.0536 O.2       7 UNK        -0.5083 
     55 CA        -50.9202  -25.0431   10.9444 C.3       6 UNK         0.0844 
     56 C56       -51.6324  -24.3381    9.7579 C.3       14 UNK        -0.0967 
     57 S57       -51.6694  -25.3022    8.2070 S.3       14 UNK        -0.2604 
     58 C58       -53.1556  -26.3256    8.4021 C.3       14 UNK         0.0134 
     59 N         -49.6214  -25.6227   10.5839 N.am      6 UNK        -0.4116 
     60 C         -48.8365  -26.3319   11.4107 C.2       5 UNK         0.5034 
     61 O         -49.1254  -26.6098   12.5743 O.2       5 UNK        -0.5045 
     62 CA        -47.4634  -26.7446   10.8661 C.3       5 UNK         0.0224 
     63 CB        -47.5735  -28.0182   10.0145 C.3       5 UNK        -0.1978 
     64 N         -46.8474  -25.6660   10.0900 N.am      5 UNK        -0.4737 
     65 C         -46.3607  -24.5404   10.6332 C.2       4 UNK         0.5027 
     66 O         -46.3488  -24.3178   11.8420 O.2       4 UNK        -0.5211 
     67 CA        -45.8460  -23.4591    9.6687 C.3       4 UNK         0.0297 
     68 CB        -44.4026  -23.7617    9.2369 C.3       4 UNK        -0.1993 
     69 N         -46.6924  -23.3051    8.4848 N.am      4 UNK        -0.4486 
     70 C         -47.9780  -22.9278    8.5134 C.2       3 UNK         0.4961 
     71 O         -48.5759  -22.6062    9.5405 O.2       3 UNK        -0.5105 
     72 CA        -48.7387  -22.9534    7.1765 C.3       3 UNK         0.0299 
     73 CB        -48.6414  -21.5858    6.4826 C.3       3 UNK        -0.1972 
     74 N         -48.3161  -24.0073    6.2431 N.am      3 UNK        -0.4305 
     75 C         -48.2728  -25.3204    6.5110 C.2       2 UNK         0.5006 
     76 O         -48.4736  -25.8113    7.6245 O.2       2 UNK        -0.5106 
     77 CA        -47.8959  -26.2419    5.3502 C.3       2 UNK         0.0296 
     78 CB        -46.3701  -26.4368    5.2826 C.3       2 UNK        -0.2002 
     79 N         -48.5549  -27.5274    5.5563 N.am      2 UNK        -0.4032 
     80 C         -48.8648  -28.4080    4.5966 C.2       1 UNK         0.5000 
     81 O         -48.6133  -28.2272    3.4038 O.2       1 UNK        -0.5238 
     82 H82       -46.6445  -29.7602    5.9048 H         1 UNK         0.0889 
     83 H83       -47.1718  -31.4071    5.5059 H         1 UNK         0.0889 
     84 H84       -46.2585  -31.0989    6.9744 H         1 UNK         0.0889 
     85 H85       -50.2644  -29.8971    6.9984 H         1 UNK         0.3028 
     86 H86       -49.0462  -30.5223    4.4773 H         1 UNK         0.0864 
     87 H87       -51.0871  -29.6212    3.4764 H         1 UNK         0.0720 
     88 H88       -51.5761  -28.8974    4.9810 H         1 UNK         0.0720 
     89 H89       -53.9741  -30.1937    5.3187 H         1 UNK         0.0814 
     90 H90       -53.8592  -31.6358    6.2927 H         1 UNK         0.0814 
     91 H91       -53.7140  -28.1033    6.4093 H         1 UNK         0.1469 
     92 H92       -51.8189  -27.8176   10.2300 H         1 UNK         0.1381 
     93 H93       -52.0087  -31.5983    8.2162 H         1 UNK         0.1206 
     94 H94       -51.3039  -31.5297   10.5368 H         1 UNK         0.0813 
     95 H95       -50.0219  -30.3671   10.3086 H         1 UNK         0.0813 
     96 H96       -53.0928  -30.4960   13.6705 H         1 UNK         0.0638 
     97 H97       -53.0806  -31.4743   12.2284 H         1 UNK         0.0638 
     98 H98       -54.2513  -29.7480   10.9536 H         1 UNK         0.0568 
     99 H99       -56.2282  -28.7028   13.6204 H         1 UNK         0.3450 
    100 H100      -57.2880  -30.0921   13.5844 H         1 UNK         0.3450 
    101 H101      -53.5459  -27.9308   13.0711 H         1 UNK         0.2987 
    102 H102      -53.8428  -25.4234   11.6775 H         1 UNK         0.0766 
    103 H103      -55.7592  -23.8772   12.0828 H         1 UNK         0.0798 
    104 H104      -56.8495  -25.2569   12.2125 H         1 UNK         0.0798 
    105 H105      -56.0462  -24.9019   10.6887 H         1 UNK         0.0798 
    106 H106      -53.6800  -25.0479   13.8441 H         1 UNK         0.3198 
    107 H107      -53.7390  -25.4684   16.0241 H         1 UNK         0.0843 
    108 H108      -56.6579  -24.6025   16.4328 H         1 UNK         0.0831 
    109 H109      -55.3799  -23.6103   15.7452 H         1 UNK         0.0831 
    110 H110      -55.3047  -24.0824   17.4337 H         1 UNK         0.0831 
    111 H111      -55.8675  -27.3592   16.6576 H         1 UNK         0.3133 
    112 H112      -53.3648  -25.2736   18.3087 H         1 UNK         0.0566 
    113 H113      -52.0744  -25.8427   20.3310 H         1 UNK         0.0814 
    114 H114      -53.7878  -26.1060   20.6145 H         1 UNK         0.0814 
    115 H115      -52.7245  -27.4795   20.3356 H         1 UNK         0.0814 
    116 H116      -51.9445  -27.8654   17.8220 H         1 UNK         0.3091 
    117 H117      -49.7695  -27.6890   16.8100 H         1 UNK         0.0702 
    118 H118      -51.7695  -28.3959   15.4433 H         1 UNK         0.0785 
    119 H119      -51.4726  -27.0638   14.3296 H         1 UNK         0.0785 
    120 H120      -50.3011  -28.3695   14.4850 H         1 UNK         0.0785 
    121 H121      -49.2892  -26.0255   14.5184 H         1 UNK         0.2998 
    122 H122      -46.8890  -23.8781   16.0331 H         1 UNK         0.0697 
    123 H123      -46.4745  -26.1992   14.0788 H         1 UNK         0.0825 
    124 H124      -45.6235  -25.9989   15.6047 H         1 UNK         0.0825 
    125 H125      -45.3928  -24.8269   14.3193 H         1 UNK         0.0825 
    126 H126      -47.7108  -24.1853   13.3188 H         1 UNK         0.3029 
    127 H127      -50.3874  -21.7790   13.4890 H         1 UNK         0.0897 
    128 H128      -48.9711  -20.6652   11.7841 H         1 UNK         0.0792 
    129 H129      -47.5761  -21.6243   12.2726 H         1 UNK         0.0792 
    130 H130      -48.2716  -20.4480   13.3813 H         1 UNK         0.0792 
    131 H131      -49.1892  -23.1981   11.2997 H         1 UNK         0.3086 
    132 H132      -51.5467  -25.8744   11.2677 H         1 UNK         0.0583 
    133 H133      -52.6521  -24.0605   10.0302 H         1 UNK         0.1020 
    134 H134      -51.1332  -23.3959    9.5256 H         1 UNK         0.1020 
    135 H135      -53.6483  -26.1077    9.3473 H         1 UNK         0.0694 
    136 H136      -53.8690  -26.0582    7.6212 H         1 UNK         0.0694 
    137 H137      -49.3092  -25.4735    9.6309 H         1 UNK         0.2989 
    138 H138      -46.8172  -26.9631   11.7190 H         1 UNK         0.1055 
    139 H139      -47.9468  -28.8507   10.6123 H         1 UNK         0.0806 
    140 H140      -46.6055  -28.3177    9.6131 H         1 UNK         0.0806 
    141 H141      -48.2609  -27.8953    9.1774 H         1 UNK         0.0806 
    142 H142      -46.9292  -25.7294    9.0823 H         1 UNK         0.3061 
    143 H143      -45.8508  -22.5084   10.2063 H         1 UNK         0.0734 
    144 H144      -43.9950  -22.9592    8.6220 H         1 UNK         0.0832 
    145 H145      -43.7509  -23.8642   10.1059 H         1 UNK         0.0832 
    146 H146      -44.3349  -24.6901    8.6684 H         1 UNK         0.0832 
    147 H147      -46.2882  -23.5515    7.5935 H         1 UNK         0.3156 
    148 H148      -49.7888  -23.1355    7.4085 H         1 UNK         0.0589 
    149 H149      -47.6188  -21.3572    6.1798 H         1 UNK         0.0808 
    150 H150      -49.2735  -21.5436    5.5954 H         1 UNK         0.0808 
    151 H151      -48.9703  -20.7864    7.1486 H         1 UNK         0.0808 
    152 H152      -48.1079  -23.7065    5.3015 H         1 UNK         0.3098 
    153 H153      -48.2542  -25.7973    4.4191 H         1 UNK         0.0720 
    154 H154      -45.9815  -26.8858    6.1978 H         1 UNK         0.0791 
    155 H155      -45.8573  -25.4848    5.1405 H         1 UNK         0.0791 
    156 H156      -46.0886  -27.0812    4.4496 H         1 UNK         0.0791 
    157 H157      -48.8347  -27.7061    6.5134 H         1 UNK         0.3028 
@<TRIPOS>BOND
     1    1    2 1    
     2    1   82 1    
     3    1   83 1    
     4    1   84 1    
     5    2    3 2    
     6    2    4 am   BACKBONE|DICT|INTERRES
     7    4    5 1    
     8    4   85 1    
     9    5    6 1    
    10    5   80 1    
    11    5   86 1    
    12    6    7 1    
    13    6   87 1    
    14    6   88 1    
    15    7    8 1    
    16    8    9 1    
    17    8   89 1    
    18    8   90 1    
    19    9   10 ar   
    20    9   14 ar   
    21   10   11 ar   
    22   10   91 1    
    23   11   12 ar   
    24   11   58 1    
    25   12   13 ar   
    26   12   92 1    
    27   13   14 ar   
    28   13   15 1    
    29   14   93 1    
    30   15   16 1    
    31   15   94 1    
    32   15   95 1    
    33   16   17 1    
    34   17   18 1    
    35   17   96 1    
    36   17   97 1    
    37   18   19 1    
    38   18   22 1    
    39   18   98 1    
    40   19   20 am   BACKBONE|DICT|INTERRES
    41   19   21 2    
    42   20   99 1    
    43   20  100 1    
    44   22   23 am   BACKBONE|DICT|INTERRES
    45   22  101 1    
    46   23   24 2    
    47   23   25 1    
    48   25   26 1    
    49   25   27 1    
    50   25  102 1    
    51   26  103 1    
    52   26  104 1    
    53   26  105 1    
    54   27   28 am   BACKBONE|DICT|INTERRES
    55   27  106 1    
    56   28   29 2    
    57   28   30 1    
    58   30   31 1    
    59   30   32 1    
    60   30  107 1    
    61   31  108 1    
    62   31  109 1    
    63   31  110 1    
    64   32   33 am   BACKBONE|DICT|INTERRES
    65   32  111 1    
    66   33   34 2    
    67   33   35 1    
    68   35   36 1    
    69   35   37 1    
    70   35  112 1    
    71   36  113 1    
    72   36  114 1    
    73   36  115 1    
    74   37   38 am   BACKBONE|DICT|INTERRES
    75   37  116 1    
    76   38   39 2    
    77   38   40 1    
    78   40   41 1    
    79   40   42 1    
    80   40  117 1    
    81   41  118 1    
    82   41  119 1    
    83   41  120 1    
    84   42   43 am   BACKBONE|DICT|INTERRES
    85   42  121 1    
    86   43   44 2    
    87   43   45 1    
    88   45   46 1    
    89   45   47 1    
    90   45  122 1    
    91   46  123 1    
    92   46  124 1    
    93   46  125 1    
    94   47   48 am   BACKBONE|DICT|INTERRES
    95   47  126 1    
    96   48   49 2    
    97   48   50 1    
    98   50   51 1    
    99   50   52 1    
   100   50  127 1    
   101   51  128 1    
   102   51  129 1    
   103   51  130 1    
   104   52   53 am   BACKBONE|DICT|INTERRES
   105   52  131 1    
   106   53   54 2    
   107   53   55 1    
   108   55   56 1    
   109   55   59 1    
   110   55  132 1    
   111   56   57 1    
   112   56  133 1    
   113   56  134 1    
   114   57   58 1    
   115   58  135 1    
   116   58  136 1    
   117   59   60 am   BACKBONE|DICT|INTERRES
   118   59  137 1    
   119   60   61 2    
   120   60   62 1    
   121   62   63 1    
   122   62   64 1    
   123   62  138 1    
   124   63  139 1    
   125   63  140 1    
   126   63  141 1    
   127   64   65 am   BACKBONE|DICT|INTERRES
   128   64  142 1    
   129   65   66 2    
   130   65   67 1    
   131   67   68 1    
   132   67   69 1    
   133   67  143 1    
   134   68  144 1    
   135   68  145 1    
   136   68  146 1    
   137   69   70 am   BACKBONE|DICT|INTERRES
   138   69  147 1    
   139   70   71 2    
   140   70   72 1    
   141   72   73 1    
   142   72   74 1    
   143   72  148 1    
   144   73  149 1    
   145   73  150 1    
   146   73  151 1    
   147   74   75 am   BACKBONE|DICT|INTERRES
   148   74  152 1    
   149   75   76 2    
   150   75   77 1    
   151   77   78 1    
   152   77   79 1    
   153   77  153 1    
   154   78  154 1    
   155   78  155 1    
   156   78  156 1    
   157   79   80 am   BACKBONE|DICT|INTERRES
   158   79  157 1    
   159   80   81 2    
@<TRIPOS>SUBSTRUCTURE
     1 UNK         1 GROUP             0       ****    0 ROOT    
