@<TRIPOS>MOLECULE
3R207
157   159    1
SMALL
USER_CHARGES


@<TRIPOS>ATOM
      1 CA        -45.1177  -28.6295    1.0536 C.3       0 UNK        -0.1975 
      2 C         -46.3358  -28.1166    1.8069 C.2       0 UNK         0.4852 
      3 O         -47.0034  -27.1924    1.3383 O.2       0 UNK        -0.5216 
      4 N         -46.6319  -28.7014    2.9757 N.am      1 UNK        -0.4461 
      5 CA        -47.7444  -28.3246    3.8537 C.3       1 UNK         0.0864 
      6 C6        -48.1927  -29.5278    4.7248 C.3       14 UNK        -0.0898 
      7 S7        -49.9295  -29.3806    5.2584 S.3       14 UNK        -0.2598 
      8 C8        -49.7275  -29.2780    7.0605 C.3       14 UNK         0.0286 
      9 C9        -51.0454  -28.9426    7.7388 C.ar      14 UNK        -0.0844 
     10 C10       -51.4867  -27.6182    7.7753 C.ar      14 UNK        -0.0881 
     11 C11       -52.6793  -27.2800    8.4195 C.ar      14 UNK        -0.0643 
     12 C12       -53.4342  -28.2839    9.0303 C.ar      14 UNK        -0.0930 
     13 C13       -53.0016  -29.6123    9.0061 C.ar      14 UNK        -0.0827 
     14 C14       -51.8145  -29.9414    8.3443 C.ar      14 UNK        -0.1249 
     15 C15       -53.8159  -30.6802    9.7142 C.3       14 UNK         0.0141 
     16 S16       -53.2732  -30.8568   11.4426 S.3       14 UNK        -0.2313 
     17 C17       -54.7691  -31.5716   12.2116 C.3       14 UNK        -0.0915 
     18 CA        -55.4298  -30.6425   13.2683 C.3       13 UNK         0.0968 
     19 C         -54.6743  -30.6647   14.6317 C.2       13 UNK         0.5732 
     20 N         -54.1977  -29.5440   15.1619 N.am      13 UNK        -0.7310 
     21 O         -54.5354  -31.7265   15.2345 O.2       13 UNK        -0.5035 
     22 N         -55.6831  -29.2976   12.7296 N.am      13 UNK        -0.4233 
     23 C         -56.6004  -28.4485   13.2028 C.2       13 UNK         0.4989 
     24 O         -57.4461  -28.7404   14.0513 O.2       13 UNK        -0.4996 
     25 CA        -56.5489  -27.0144   12.6498 C.3       12 UNK         0.0216 
     26 CB        -57.8043  -26.6941   11.8224 C.3       12 UNK        -0.1964 
     27 N         -56.4112  -26.0418   13.7369 N.am      12 UNK        -0.4276 
     28 C         -55.3450  -25.9629   14.5431 C.2       12 UNK         0.5020 
     29 O         -54.3364  -26.6623   14.4145 O.2       12 UNK        -0.5489 
     30 CA        -55.4295  -24.9710   15.7072 C.3       11 UNK         0.0294 
     31 CB        -56.1059  -25.6372   16.9215 C.3       11 UNK        -0.2019 
     32 N         -54.0724  -24.5508   16.0419 N.am      11 UNK        -0.4493 
     33 C         -53.7200  -23.5463   16.8535 C.2       11 UNK         0.4932 
     34 O         -54.5327  -22.8150   17.4222 O.2       11 UNK        -0.5029 
     35 CA        -52.2073  -23.3079   17.0489 C.3       10 UNK         0.0280 
     36 CB        -51.8703  -22.5907   18.3736 C.3       10 UNK        -0.1976 
     37 N         -51.4078  -24.5273   16.8784 N.am      10 UNK        -0.4242 
     38 C         -51.4177  -25.6310   17.6410 C.2       10 UNK         0.5072 
     39 O         -52.0564  -25.7432   18.6881 O.2       10 UNK        -0.5224 
     40 CA        -50.6009  -26.8353   17.1387 C.3       9 UNK         0.0343 
     41 CB        -51.5262  -27.8438   16.4414 C.3       9 UNK        -0.2003 
     42 N         -49.5147  -26.4727   16.2241 N.am      9 UNK        -0.4272 
     43 C         -48.3614  -25.9075   16.6077 C.2       9 UNK         0.4988 
     44 O         -48.0799  -25.6510   17.7790 O.2       9 UNK        -0.5108 
     45 CA        -47.3530  -25.5627   15.4984 C.3       8 UNK         0.0248 
     46 CB        -46.6036  -26.8208   15.0303 C.3       8 UNK        -0.2001 
     47 N         -47.9714  -24.8946   14.3499 N.am      8 UNK        -0.4140 
     48 C         -48.5308  -23.6756   14.3940 C.2       8 UNK         0.5028 
     49 O         -48.5560  -22.9672   15.4009 O.2       8 UNK        -0.5428 
     50 CA        -49.1977  -23.1639   13.1067 C.3       7 UNK         0.0264 
     51 CB        -48.1480  -22.5776   12.1500 C.3       7 UNK        -0.1988 
     52 N         -49.9850  -24.2000   12.4309 N.am      7 UNK        -0.4454 
     53 C         -51.1008  -24.7383   12.9502 C.2       7 UNK         0.5027 
     54 O         -51.6097  -24.3508   14.0014 O.2       7 UNK        -0.5083 
     55 CA        -51.7360  -25.9437   12.2303 C.3       6 UNK         0.0844 
     56 C56       -52.8655  -25.5326   11.2549 C.3       14 UNK        -0.0967 
     57 S57       -52.2838  -24.8275    9.6750 S.3       14 UNK        -0.2604 
     58 C58       -53.1621  -25.8367    8.4398 C.3       14 UNK         0.0134 
     59 N         -50.7377  -26.8431   11.6490 N.am      6 UNK        -0.4116 
     60 C         -49.8992  -27.5859   12.3867 C.2       5 UNK         0.5034 
     61 O         -49.8895  -27.5937   13.6174 O.2       5 UNK        -0.5045 
     62 CA        -48.8638  -28.4309   11.6342 C.3       5 UNK         0.0224 
     63 CB        -49.4866  -29.7408   11.1351 C.3       5 UNK        -0.1978 
     64 N         -48.2384  -27.7057   10.5255 N.am      5 UNK        -0.4737 
     65 C         -47.4087  -26.6688   10.7033 C.2       4 UNK         0.5027 
     66 O         -47.1486  -26.1804   11.8036 O.2       4 UNK        -0.5211 
     67 CA        -46.7634  -26.0769    9.4423 C.3       4 UNK         0.0297 
     68 CB        -45.7209  -27.0412    8.8533 C.3       4 UNK        -0.1993 
     69 N         -47.7173  -25.6845    8.4015 N.am      4 UNK        -0.4486 
     70 C         -48.6696  -24.7499    8.5558 C.2       3 UNK         0.4961 
     71 O         -48.9759  -24.2796    9.6502 O.2       3 UNK        -0.5105 
     72 CA        -49.3925  -24.2338    7.2890 C.3       3 UNK         0.0299 
     73 CB        -49.7769  -22.7430    7.4051 C.3       3 UNK        -0.1972 
     74 N         -48.6632  -24.4944    6.0390 N.am      3 UNK        -0.4305 
     75 C         -47.4462  -24.0392    5.6993 C.2       2 UNK         0.5006 
     76 O         -46.8101  -23.2244    6.3699 O.2       2 UNK        -0.5106 
     77 CA        -46.8186  -24.6045    4.4060 C.3       2 UNK         0.0296 
     78 CB        -45.2781  -24.6587    4.4929 C.3       2 UNK        -0.2002 
     79 N         -47.3286  -25.9143    3.9687 N.am      2 UNK        -0.4032 
     80 C         -47.3714  -27.0619    4.6646 C.2       1 UNK         0.5000 
     81 O         -47.1041  -27.1448    5.8658 O.2       1 UNK        -0.5238 
     82 H82       -45.4162  -29.0211    0.0816 H         1 UNK         0.0889 
     83 H83       -44.6061  -29.4235    1.5973 H         1 UNK         0.0889 
     84 H84       -44.4085  -27.8183    0.8917 H         1 UNK         0.0889 
     85 H85       -46.0305  -29.4341    3.3257 H         1 UNK         0.3028 
     86 H86       -48.5884  -28.0564    3.2133 H         1 UNK         0.0864 
     87 H87       -48.1366  -30.4475    4.1399 H         1 UNK         0.0720 
     88 H88       -47.5293  -29.6859    5.5774 H         1 UNK         0.0720 
     89 H89       -48.9875  -28.5137    7.3019 H         1 UNK         0.0814 
     90 H90       -49.3315  -30.2230    7.4359 H         1 UNK         0.0814 
     91 H91       -50.9000  -26.8559    7.2894 H         1 UNK         0.1469 
     92 H92       -54.3591  -28.0318    9.5297 H         1 UNK         0.1381 
     93 H93       -51.4764  -30.9685    8.3263 H         1 UNK         0.1206 
     94 H94       -53.7191  -31.6393    9.2031 H         1 UNK         0.0813 
     95 H95       -54.8736  -30.4148    9.6766 H         1 UNK         0.0813 
     96 H96       -55.4989  -31.8041   11.4352 H         1 UNK         0.0638 
     97 H97       -54.5050  -32.5367   12.6478 H         1 UNK         0.0638 
     98 H98       -56.4039  -31.0821   13.4911 H         1 UNK         0.0568 
     99 H99       -53.7228  -29.5972   16.0468 H         1 UNK         0.3450 
    100 H100      -54.3013  -28.6458   14.7022 H         1 UNK         0.3450 
    101 H101      -55.0002  -28.9717   12.0628 H         1 UNK         0.2987 
    102 H102      -55.6791  -26.9131   11.9981 H         1 UNK         0.0766 
    103 H103      -57.7519  -25.6943   11.3909 H         1 UNK         0.0798 
    104 H104      -58.7122  -26.7538   12.4243 H         1 UNK         0.0798 
    105 H105      -57.9155  -27.3971   10.9956 H         1 UNK         0.0798 
    106 H106      -57.2176  -25.4669   13.9348 H         1 UNK         0.3198 
    107 H107      -56.0020  -24.0963   15.3921 H         1 UNK         0.0843 
    108 H108      -55.5279  -26.4895   17.2817 H         1 UNK         0.0831 
    109 H109      -57.1013  -26.0029   16.6662 H         1 UNK         0.0831 
    110 H110      -56.2240  -24.9398   17.7506 H         1 UNK         0.0831 
    111 H111      -53.3494  -25.0743   15.5592 H         1 UNK         0.3133 
    112 H112      -51.9045  -22.6452   16.2370 H         1 UNK         0.0566 
    113 H113      -50.7958  -22.4414   18.4805 H         1 UNK         0.0814 
    114 H114      -52.2208  -23.1511   19.2406 H         1 UNK         0.0814 
    115 H115      -52.3387  -21.6066   18.4145 H         1 UNK         0.0814 
    116 H116      -50.8989  -24.5707   16.0030 H         1 UNK         0.3091 
    117 H117      -50.1656  -27.3234   18.0132 H         1 UNK         0.0702 
    118 H118      -52.3403  -28.1466   17.1009 H         1 UNK         0.0785 
    119 H119      -51.9736  -27.4216   15.5406 H         1 UNK         0.0785 
    120 H120      -50.9863  -28.7458   16.1528 H         1 UNK         0.0785 
    121 H121      -49.6439  -26.7160   15.2436 H         1 UNK         0.2998 
    122 H122      -46.6191  -24.8743   15.9229 H         1 UNK         0.0697 
    123 H123      -47.2742  -27.5404   14.5598 H         1 UNK         0.0825 
    124 H124      -46.1209  -27.3234   15.8694 H         1 UNK         0.0825 
    125 H125      -45.8245  -26.5719   14.3096 H         1 UNK         0.0825 
    126 H126      -47.9389  -25.3877   13.4615 H         1 UNK         0.3029 
    127 H127      -49.8803  -22.3591   13.3885 H         1 UNK         0.0897 
    128 H128      -48.6190  -22.1183   11.2807 H         1 UNK         0.0792 
    129 H129      -47.4566  -23.3413   11.7915 H         1 UNK         0.0792 
    130 H130      -47.5564  -21.8053   12.6431 H         1 UNK         0.0792 
    131 H131      -49.6467  -24.5131   11.5244 H         1 UNK         0.3086 
    132 H132      -52.2218  -26.5217   13.0177 H         1 UNK         0.0583 
    133 H133      -53.4846  -26.4049   11.0556 H         1 UNK         0.1020 
    134 H134      -53.5385  -24.8157   11.7296 H         1 UNK         0.1020 
    135 H135      -54.2351  -25.7889    8.6320 H         1 UNK         0.0694 
    136 H136      -53.0111  -25.3924    7.4550 H         1 UNK         0.0694 
    137 H137      -50.6715  -26.8603   10.6419 H         1 UNK         0.2989 
    138 H138      -48.0750  -28.6883   12.3451 H         1 UNK         0.1055 
    139 H139      -49.8437  -30.3428   11.9719 H         1 UNK         0.0806 
    140 H140      -48.7695  -30.3461   10.5807 H         1 UNK         0.0806 
    141 H141      -50.3435  -29.5518   10.4934 H         1 UNK         0.0806 
    142 H142      -48.4122  -28.0371    9.5889 H         1 UNK         0.3061 
    143 H143      -46.2384  -25.1696    9.7489 H         1 UNK         0.0734 
    144 H144      -45.1680  -26.5742    8.0379 H         1 UNK         0.0832 
    145 H145      -44.9929  -27.3406    9.6085 H         1 UNK         0.0832 
    146 H146      -46.1813  -27.9496    8.4629 H         1 UNK         0.0832 
    147 H147      -47.5390  -26.0513    7.4703 H         1 UNK         0.3156 
    148 H148      -50.3259  -24.7871    7.2173 H         1 UNK         0.0589 
    149 H149      -48.9055  -22.1100    7.5734 H         1 UNK         0.0808 
    150 H150      -50.2820  -22.3905    6.5061 H         1 UNK         0.0808 
    151 H151      -50.4582  -22.5808    8.2414 H         1 UNK         0.0808 
    152 H152      -49.0958  -25.1569    5.4112 H         1 UNK         0.3098 
    153 H153      -47.0808  -23.8993    3.6161 H         1 UNK         0.0720 
    154 H154      -44.8413  -25.0295    3.5655 H         1 UNK         0.0791 
    155 H155      -44.9452  -25.3085    5.3033 H         1 UNK         0.0791 
    156 H156      -44.8553  -23.6694    4.6725 H         1 UNK         0.0791 
    157 H157      -47.5305  -25.9885    2.9764 H         1 UNK         0.3028 
@<TRIPOS>BOND
     1    1    2 1    
     2    1   82 1    
     3    1   83 1    
     4    1   84 1    
     5    2    3 2    
     6    2    4 am   BACKBONE|DICT|INTERRES
     7    4    5 1    
     8    4   85 1    
     9    5    6 1    
    10    5   80 1    
    11    5   86 1    
    12    6    7 1    
    13    6   87 1    
    14    6   88 1    
    15    7    8 1    
    16    8    9 1    
    17    8   89 1    
    18    8   90 1    
    19    9   10 ar   
    20    9   14 ar   
    21   10   11 ar   
    22   10   91 1    
    23   11   12 ar   
    24   11   58 1    
    25   12   13 ar   
    26   12   92 1    
    27   13   14 ar   
    28   13   15 1    
    29   14   93 1    
    30   15   16 1    
    31   15   94 1    
    32   15   95 1    
    33   16   17 1    
    34   17   18 1    
    35   17   96 1    
    36   17   97 1    
    37   18   19 1    
    38   18   22 1    
    39   18   98 1    
    40   19   20 am   BACKBONE|DICT|INTERRES
    41   19   21 2    
    42   20   99 1    
    43   20  100 1    
    44   22   23 am   BACKBONE|DICT|INTERRES
    45   22  101 1    
    46   23   24 2    
    47   23   25 1    
    48   25   26 1    
    49   25   27 1    
    50   25  102 1    
    51   26  103 1    
    52   26  104 1    
    53   26  105 1    
    54   27   28 am   BACKBONE|DICT|INTERRES
    55   27  106 1    
    56   28   29 2    
    57   28   30 1    
    58   30   31 1    
    59   30   32 1    
    60   30  107 1    
    61   31  108 1    
    62   31  109 1    
    63   31  110 1    
    64   32   33 am   BACKBONE|DICT|INTERRES
    65   32  111 1    
    66   33   34 2    
    67   33   35 1    
    68   35   36 1    
    69   35   37 1    
    70   35  112 1    
    71   36  113 1    
    72   36  114 1    
    73   36  115 1    
    74   37   38 am   BACKBONE|DICT|INTERRES
    75   37  116 1    
    76   38   39 2    
    77   38   40 1    
    78   40   41 1    
    79   40   42 1    
    80   40  117 1    
    81   41  118 1    
    82   41  119 1    
    83   41  120 1    
    84   42   43 am   BACKBONE|DICT|INTERRES
    85   42  121 1    
    86   43   44 2    
    87   43   45 1    
    88   45   46 1    
    89   45   47 1    
    90   45  122 1    
    91   46  123 1    
    92   46  124 1    
    93   46  125 1    
    94   47   48 am   BACKBONE|DICT|INTERRES
    95   47  126 1    
    96   48   49 2    
    97   48   50 1    
    98   50   51 1    
    99   50   52 1    
   100   50  127 1    
   101   51  128 1    
   102   51  129 1    
   103   51  130 1    
   104   52   53 am   BACKBONE|DICT|INTERRES
   105   52  131 1    
   106   53   54 2    
   107   53   55 1    
   108   55   56 1    
   109   55   59 1    
   110   55  132 1    
   111   56   57 1    
   112   56  133 1    
   113   56  134 1    
   114   57   58 1    
   115   58  135 1    
   116   58  136 1    
   117   59   60 am   BACKBONE|DICT|INTERRES
   118   59  137 1    
   119   60   61 2    
   120   60   62 1    
   121   62   63 1    
   122   62   64 1    
   123   62  138 1    
   124   63  139 1    
   125   63  140 1    
   126   63  141 1    
   127   64   65 am   BACKBONE|DICT|INTERRES
   128   64  142 1    
   129   65   66 2    
   130   65   67 1    
   131   67   68 1    
   132   67   69 1    
   133   67  143 1    
   134   68  144 1    
   135   68  145 1    
   136   68  146 1    
   137   69   70 am   BACKBONE|DICT|INTERRES
   138   69  147 1    
   139   70   71 2    
   140   70   72 1    
   141   72   73 1    
   142   72   74 1    
   143   72  148 1    
   144   73  149 1    
   145   73  150 1    
   146   73  151 1    
   147   74   75 am   BACKBONE|DICT|INTERRES
   148   74  152 1    
   149   75   76 2    
   150   75   77 1    
   151   77   78 1    
   152   77   79 1    
   153   77  153 1    
   154   78  154 1    
   155   78  155 1    
   156   78  156 1    
   157   79   80 am   BACKBONE|DICT|INTERRES
   158   79  157 1    
   159   80   81 2    
@<TRIPOS>SUBSTRUCTURE
     1 UNK         1 GROUP             0       ****    0 ROOT    
