@<TRIPOS>MOLECULE
3R207
157   159    1
SMALL
USER_CHARGES


@<TRIPOS>ATOM
      1 CA        -45.3920  -32.0540    7.0003 C.3       0 UNK        -0.1975 
      2 C         -46.1975  -31.1809    6.0497 C.2       0 UNK         0.4852 
      3 O         -45.7640  -30.9410    4.9224 O.2       0 UNK        -0.5216 
      4 N         -47.3649  -30.7002    6.4979 N.am      1 UNK        -0.4461 
      5 CA        -48.2761  -29.8343    5.7363 C.3       1 UNK         0.0864 
      6 C6        -49.7348  -29.9300    6.2538 C.3       14 UNK        -0.0898 
      7 S7        -49.9193  -29.7621    8.0646 S.3       14 UNK        -0.2598 
      8 C8        -51.7270  -29.9468    8.2456 C.3       14 UNK         0.0286 
      9 C9        -52.4209  -28.6157    8.5082 C.ar      14 UNK        -0.0844 
     10 C10       -52.2645  -27.5464    7.6226 C.ar      14 UNK        -0.0881 
     11 C11       -52.8554  -26.3088    7.8844 C.ar      14 UNK        -0.0643 
     12 C12       -53.6431  -26.1500    9.0275 C.ar      14 UNK        -0.0930 
     13 C13       -53.8127  -27.2123    9.9205 C.ar      14 UNK        -0.0827 
     14 C14       -53.2104  -28.4449    9.6499 C.ar      14 UNK        -0.1249 
     15 C15       -54.5794  -27.0007   11.2145 C.3       14 UNK         0.0141 
     16 S16       -56.3585  -27.3166   11.0414 S.3       14 UNK        -0.2313 
     17 C17       -56.9854  -26.5420   12.5776 C.3       14 UNK        -0.0915 
     18 CA        -57.5506  -27.5246   13.6390 C.3       13 UNK         0.0968 
     19 C         -58.8672  -28.2122   13.1742 C.2       13 UNK         0.5732 
     20 N         -59.9694  -27.4751   13.1396 N.am      13 UNK        -0.7310 
     21 O         -58.8991  -29.3921   12.8266 O.2       13 UNK        -0.5035 
     22 N         -56.5302  -28.4711   14.1114 N.am      13 UNK        -0.4233 
     23 C         -56.6390  -29.2117   15.2222 C.2       13 UNK         0.4989 
     24 O         -57.5424  -29.0810   16.0496 O.2       13 UNK        -0.4996 
     25 CA        -55.5627  -30.2775   15.4583 C.3       12 UNK         0.0216 
     26 CB        -55.1731  -31.0337   14.1719 C.3       12 UNK        -0.1964 
     27 N         -54.3746  -29.6606   16.0407 N.am      12 UNK        -0.4276 
     28 C         -53.6703  -30.1513   17.0710 C.2       12 UNK         0.5020 
     29 O         -54.0109  -31.1452   17.7166 O.2       12 UNK        -0.5489 
     30 CA        -52.3515  -29.4233   17.4275 C.3       11 UNK         0.0294 
     31 CB        -51.3769  -30.3042   18.2382 C.3       11 UNK        -0.2019 
     32 N         -51.6814  -28.8492   16.2526 N.am      11 UNK        -0.4493 
     33 C         -51.3011  -29.4968   15.1391 C.2       11 UNK         0.4932 
     34 O         -51.2563  -30.7243   15.0463 O.2       11 UNK        -0.5029 
     35 CA        -50.9477  -28.6378   13.9039 C.3       10 UNK         0.0280 
     36 CB        -51.4356  -29.2919   12.5976 C.3       10 UNK        -0.1976 
     37 N         -51.3949  -27.2371   13.9423 N.am      10 UNK        -0.4242 
     38 C         -52.6080  -26.7287   14.2117 C.2       10 UNK         0.5072 
     39 O         -53.5868  -27.4178   14.5048 O.2       10 UNK        -0.5224 
     40 CA        -52.7506  -25.1924   14.1606 C.3       9 UNK         0.0343 
     41 CB        -53.7983  -24.6655   15.1632 C.3       9 UNK        -0.2003 
     42 N         -51.4765  -24.4741   14.2979 N.am      9 UNK        -0.4272 
     43 C         -50.6284  -24.4894   15.3390 C.2       9 UNK         0.4988 
     44 O         -50.8640  -25.0703   16.3994 O.2       9 UNK        -0.5108 
     45 CA        -49.2599  -23.7987   15.1605 C.3       8 UNK         0.0248 
     46 CB        -48.1278  -24.8378   15.2340 C.3       8 UNK        -0.2001 
     47 N         -49.1280  -23.0544   13.9037 N.am      8 UNK        -0.4140 
     48 C         -49.6599  -21.8470   13.6702 C.2       8 UNK         0.5028 
     49 O         -50.2683  -21.1914   14.5167 O.2       8 UNK        -0.5428 
     50 CA        -49.5243  -21.2920   12.2406 C.3       7 UNK         0.0264 
     51 CB        -48.1748  -20.5791   12.0601 C.3       7 UNK        -0.1988 
     52 N         -49.6830  -22.3126   11.1986 N.am      7 UNK        -0.4454 
     53 C         -50.7943  -23.0375   10.9944 C.2       7 UNK         0.5027 
     54 O         -51.8218  -22.9168   11.6616 O.2       7 UNK        -0.5083 
     55 CA        -50.7353  -24.1091    9.8865 C.3       6 UNK         0.0844 
     56 C56       -50.9432  -23.4407    8.5019 C.3       14 UNK        -0.0967 
     57 S57       -50.8722  -24.5730    7.0756 S.3       14 UNK        -0.2604 
     58 C58       -52.5973  -25.1441    6.9430 C.3       14 UNK         0.0134 
     59 N         -49.5264  -24.9376    9.9925 N.am      6 UNK        -0.4116 
     60 C         -49.2040  -25.6649   11.0760 C.2       5 UNK         0.5034 
     61 O         -49.9154  -25.7677   12.0730 O.2       5 UNK        -0.5045 
     62 CA        -47.8187  -26.3222   11.1070 C.3       5 UNK         0.0224 
     63 CB        -47.8230  -27.6824   10.3912 C.3       5 UNK        -0.1978 
     64 N         -46.7996  -25.4348   10.5459 N.am      5 UNK        -0.4737 
     65 C         -46.3662  -24.3221   11.1586 C.2       4 UNK         0.5027 
     66 O         -46.7264  -23.9811   12.2851 O.2       4 UNK        -0.5211 
     67 CA        -45.4082  -23.4142   10.3678 C.3       4 UNK         0.0297 
     68 CB        -43.9541  -23.8749   10.5529 C.3       4 UNK        -0.1993 
     69 N         -45.7284  -23.3624    8.9396 N.am      4 UNK        -0.4486 
     70 C         -46.8586  -22.8496    8.4317 C.2       3 UNK         0.4961 
     71 O         -47.7128  -22.2784    9.1088 O.2       3 UNK        -0.5105 
     72 CA        -47.1020  -23.0576    6.9247 C.3       3 UNK         0.0299 
     73 CB        -46.5536  -21.8674    6.1229 C.3       3 UNK        -0.1972 
     74 N         -46.5345  -24.3084    6.4024 N.am      3 UNK        -0.4305 
     75 C         -46.8669  -25.5346    6.8318 C.2       2 UNK         0.5006 
     76 O         -47.6950  -25.7439    7.7182 O.2       2 UNK        -0.5106 
     77 CA        -46.0559  -26.7017    6.2499 C.3       2 UNK         0.0296 
     78 CB        -44.7079  -26.8215    6.9824 C.3       2 UNK        -0.2002 
     79 N         -46.7526  -27.9854    6.3533 N.am      2 UNK        -0.4032 
     80 C         -47.7794  -28.3751    5.5843 C.2       1 UNK         0.5000 
     81 O         -48.2983  -27.6532    4.7298 O.2       1 UNK        -0.5238 
     82 H82       -44.4145  -31.6081    7.1822 H         1 UNK         0.0889 
     83 H83       -45.2407  -33.0413    6.5649 H         1 UNK         0.0889 
     84 H84       -45.8915  -32.1802    7.9608 H         1 UNK         0.0889 
     85 H85       -47.6804  -30.9305    7.4307 H         1 UNK         0.3028 
     86 H86       -48.2933  -30.2228    4.7153 H         1 UNK         0.0864 
     87 H87       -50.1351  -30.9078    5.9807 H         1 UNK         0.0720 
     88 H88       -50.3739  -29.2065    5.7465 H         1 UNK         0.0720 
     89 H89       -52.1568  -30.4089    7.3561 H         1 UNK         0.0814 
     90 H90       -51.9134  -30.6400    9.0673 H         1 UNK         0.0814 
     91 H91       -51.6460  -27.6571    6.7443 H         1 UNK         0.1469 
     92 H92       -54.0933  -25.1904    9.2421 H         1 UNK         0.1381 
     93 H93       -53.3378  -29.2647   10.3426 H         1 UNK         0.1206 
     94 H94       -54.1845  -27.6575   11.9874 H         1 UNK         0.0813 
     95 H95       -54.4229  -25.9777   11.5563 H         1 UNK         0.0813 
     96 H96       -56.1925  -25.9493   13.0351 H         1 UNK         0.0638 
     97 H97       -57.7492  -25.8162   12.2934 H         1 UNK         0.0638 
     98 H98       -57.8218  -26.9195   14.5065 H         1 UNK         0.0568 
     99 H99       -60.8309  -27.8991   12.8329 H         1 UNK         0.3450 
    100 H100      -59.9592  -26.5053   13.4147 H         1 UNK         0.3450 
    101 H101      -55.7536  -28.6306   13.4888 H         1 UNK         0.2987 
    102 H102      -55.9910  -31.0014   16.1549 H         1 UNK         0.0766 
    103 H103      -56.0547  -31.4323   13.6676 H         1 UNK         0.0798 
    104 H104      -54.5218  -31.8777   14.4002 H         1 UNK         0.0798 
    105 H105      -54.6437  -30.3974   13.4623 H         1 UNK         0.0798 
    106 H106      -54.0445  -28.8141   15.5748 H         1 UNK         0.3198 
    107 H107      -52.6364  -28.5798   18.0581 H         1 UNK         0.0843 
    108 H108      -51.0993  -31.2074   17.6941 H         1 UNK         0.0831 
    109 H109      -51.8263  -30.6192   19.1807 H         1 UNK         0.0831 
    110 H110      -50.4622  -29.7641   18.4818 H         1 UNK         0.0831 
    111 H111      -51.6663  -27.8385   16.2149 H         1 UNK         0.3133 
    112 H112      -49.8583  -28.5994   13.8671 H         1 UNK         0.0566 
    113 H113      -52.5185  -29.4123   12.5961 H         1 UNK         0.0814 
    114 H114      -50.9965  -30.2805   12.4588 H         1 UNK         0.0814 
    115 H115      -51.1585  -28.6938   11.7290 H         1 UNK         0.0814 
    116 H116      -50.7076  -26.5700   13.5996 H         1 UNK         0.3091 
    117 H117      -53.1075  -24.9570   13.1586 H         1 UNK         0.0702 
    118 H118      -53.8987  -23.5822   15.0972 H         1 UNK         0.0785 
    119 H119      -53.5384  -24.9173   16.1917 H         1 UNK         0.0785 
    120 H120      -54.7816  -25.0934   14.9651 H         1 UNK         0.0785 
    121 H121      -51.1830  -23.9801   13.4632 H         1 UNK         0.2998 
    122 H122      -49.1377  -23.1019   15.9922 H         1 UNK         0.0697 
    123 H123      -47.1489  -24.3640   15.1577 H         1 UNK         0.0825 
    124 H124      -48.2053  -25.5736   14.4329 H         1 UNK         0.0825 
    125 H125      -48.1509  -25.3805   16.1799 H         1 UNK         0.0825 
    126 H126      -48.5842  -23.4959   13.1691 H         1 UNK         0.3029 
    127 H127      -50.3192  -20.5565   12.0996 H         1 UNK         0.0897 
    128 H128      -48.0489  -19.7877   12.8002 H         1 UNK         0.0792 
    129 H129      -48.0983  -20.1178   11.0753 H         1 UNK         0.0792 
    130 H130      -47.3366  -21.2674   12.1721 H         1 UNK         0.0792 
    131 H131      -48.8986  -22.4383   10.5611 H         1 UNK         0.3086 
    132 H132      -51.5742  -24.7818   10.0618 H         1 UNK         0.0583 
    133 H133      -51.8996  -22.9147    8.4785 H         1 UNK         0.1020 
    134 H134      -50.1877  -22.6721    8.3333 H         1 UNK         0.1020 
    135 H135      -53.2862  -24.3194    7.1307 H         1 UNK         0.0694 
    136 H136      -52.7808  -25.4688    5.9178 H         1 UNK         0.0694 
    137 H137      -48.9096  -24.9609    9.1869 H         1 UNK         0.2989 
    138 H138      -47.5643  -26.5031   12.1538 H         1 UNK         0.1055 
    139 H139      -48.5107  -28.3723   10.8824 H         1 UNK         0.0806 
    140 H140      -46.8359  -28.1441   10.4041 H         1 UNK         0.0806 
    141 H141      -48.1446  -27.6029    9.3537 H         1 UNK         0.0806 
    142 H142      -46.5418  -25.5984    9.5819 H         1 UNK         0.3061 
    143 H143      -45.5015  -22.4031   10.7700 H         1 UNK         0.0734 
    144 H144      -43.7903  -24.8755   10.1504 H         1 UNK         0.0832 
    145 H145      -43.2563  -23.1958   10.0627 H         1 UNK         0.0832 
    146 H146      -43.6873  -23.9023   11.6105 H         1 UNK         0.0832 
    147 H147      -45.0749  -23.7981    8.3061 H         1 UNK         0.3156 
    148 H148      -48.1819  -23.1005    6.7721 H         1 UNK         0.0589 
    149 H149      -46.8035  -21.9517    5.0651 H         1 UNK         0.0808 
    150 H150      -45.4692  -21.7856    6.2080 H         1 UNK         0.0808 
    151 H151      -46.9799  -20.9285    6.4797 H         1 UNK         0.0808 
    152 H152      -45.8337  -24.2199    5.6801 H         1 UNK         0.3098 
    153 H153      -45.8668  -26.4998    5.1934 H         1 UNK         0.0720 
    154 H154      -44.1234  -25.9051    6.8913 H         1 UNK         0.0791 
    155 H155      -44.1024  -27.6275    6.5668 H         1 UNK         0.0791 
    156 H156      -44.8419  -27.0193    8.0470 H         1 UNK         0.0791 
    157 H157      -46.4137  -28.6329    7.0480 H         1 UNK         0.3028 
@<TRIPOS>BOND
     1    1    2 1    
     2    1   82 1    
     3    1   83 1    
     4    1   84 1    
     5    2    3 2    
     6    2    4 am   BACKBONE|DICT|INTERRES
     7    4    5 1    
     8    4   85 1    
     9    5    6 1    
    10    5   80 1    
    11    5   86 1    
    12    6    7 1    
    13    6   87 1    
    14    6   88 1    
    15    7    8 1    
    16    8    9 1    
    17    8   89 1    
    18    8   90 1    
    19    9   10 ar   
    20    9   14 ar   
    21   10   11 ar   
    22   10   91 1    
    23   11   12 ar   
    24   11   58 1    
    25   12   13 ar   
    26   12   92 1    
    27   13   14 ar   
    28   13   15 1    
    29   14   93 1    
    30   15   16 1    
    31   15   94 1    
    32   15   95 1    
    33   16   17 1    
    34   17   18 1    
    35   17   96 1    
    36   17   97 1    
    37   18   19 1    
    38   18   22 1    
    39   18   98 1    
    40   19   20 am   BACKBONE|DICT|INTERRES
    41   19   21 2    
    42   20   99 1    
    43   20  100 1    
    44   22   23 am   BACKBONE|DICT|INTERRES
    45   22  101 1    
    46   23   24 2    
    47   23   25 1    
    48   25   26 1    
    49   25   27 1    
    50   25  102 1    
    51   26  103 1    
    52   26  104 1    
    53   26  105 1    
    54   27   28 am   BACKBONE|DICT|INTERRES
    55   27  106 1    
    56   28   29 2    
    57   28   30 1    
    58   30   31 1    
    59   30   32 1    
    60   30  107 1    
    61   31  108 1    
    62   31  109 1    
    63   31  110 1    
    64   32   33 am   BACKBONE|DICT|INTERRES
    65   32  111 1    
    66   33   34 2    
    67   33   35 1    
    68   35   36 1    
    69   35   37 1    
    70   35  112 1    
    71   36  113 1    
    72   36  114 1    
    73   36  115 1    
    74   37   38 am   BACKBONE|DICT|INTERRES
    75   37  116 1    
    76   38   39 2    
    77   38   40 1    
    78   40   41 1    
    79   40   42 1    
    80   40  117 1    
    81   41  118 1    
    82   41  119 1    
    83   41  120 1    
    84   42   43 am   BACKBONE|DICT|INTERRES
    85   42  121 1    
    86   43   44 2    
    87   43   45 1    
    88   45   46 1    
    89   45   47 1    
    90   45  122 1    
    91   46  123 1    
    92   46  124 1    
    93   46  125 1    
    94   47   48 am   BACKBONE|DICT|INTERRES
    95   47  126 1    
    96   48   49 2    
    97   48   50 1    
    98   50   51 1    
    99   50   52 1    
   100   50  127 1    
   101   51  128 1    
   102   51  129 1    
   103   51  130 1    
   104   52   53 am   BACKBONE|DICT|INTERRES
   105   52  131 1    
   106   53   54 2    
   107   53   55 1    
   108   55   56 1    
   109   55   59 1    
   110   55  132 1    
   111   56   57 1    
   112   56  133 1    
   113   56  134 1    
   114   57   58 1    
   115   58  135 1    
   116   58  136 1    
   117   59   60 am   BACKBONE|DICT|INTERRES
   118   59  137 1    
   119   60   61 2    
   120   60   62 1    
   121   62   63 1    
   122   62   64 1    
   123   62  138 1    
   124   63  139 1    
   125   63  140 1    
   126   63  141 1    
   127   64   65 am   BACKBONE|DICT|INTERRES
   128   64  142 1    
   129   65   66 2    
   130   65   67 1    
   131   67   68 1    
   132   67   69 1    
   133   67  143 1    
   134   68  144 1    
   135   68  145 1    
   136   68  146 1    
   137   69   70 am   BACKBONE|DICT|INTERRES
   138   69  147 1    
   139   70   71 2    
   140   70   72 1    
   141   72   73 1    
   142   72   74 1    
   143   72  148 1    
   144   73  149 1    
   145   73  150 1    
   146   73  151 1    
   147   74   75 am   BACKBONE|DICT|INTERRES
   148   74  152 1    
   149   75   76 2    
   150   75   77 1    
   151   77   78 1    
   152   77   79 1    
   153   77  153 1    
   154   78  154 1    
   155   78  155 1    
   156   78  156 1    
   157   79   80 am   BACKBONE|DICT|INTERRES
   158   79  157 1    
   159   80   81 2    
@<TRIPOS>SUBSTRUCTURE
     1 UNK         1 GROUP             0       ****    0 ROOT    
