@<TRIPOS>MOLECULE
3R207
157   159    1
SMALL
USER_CHARGES


@<TRIPOS>ATOM
      1 CA        -51.5033  -28.8080    3.8865 C.3       0 UNK        -0.1975 
      2 C         -50.3686  -29.7686    4.2366 C.2       0 UNK         0.4852 
      3 O         -49.9393  -30.5306    3.3721 O.2       0 UNK        -0.5216 
      4 N         -49.8593  -29.7900    5.4769 N.am      1 UNK        -0.4461 
      5 CA        -50.2105  -28.9059    6.5935 C.3       1 UNK         0.0864 
      6 C6        -49.7153  -29.4621    7.9531 C.3       14 UNK        -0.0898 
      7 S7        -50.6040  -30.9763    8.4447 S.3       14 UNK        -0.2598 
      8 C8        -51.7924  -30.3266    9.6648 C.3       14 UNK         0.0286 
      9 C9        -52.8055  -29.3947    9.0165 C.ar      14 UNK        -0.0844 
     10 C10       -52.6226  -28.0107    9.0687 C.ar      14 UNK        -0.0881 
     11 C11       -53.5183  -27.1450    8.4313 C.ar      14 UNK        -0.0643 
     12 C12       -54.6306  -27.6842    7.7759 C.ar      14 UNK        -0.0930 
     13 C13       -54.8317  -29.0667    7.7237 C.ar      14 UNK        -0.0827 
     14 C14       -53.9069  -29.9176    8.3359 C.ar      14 UNK        -0.1249 
     15 C15       -56.0238  -29.6356    6.9659 C.3       14 UNK         0.0141 
     16 S16       -57.4846  -29.8466    8.0351 S.3       14 UNK        -0.2313 
     17 C17       -57.0261  -31.3353    8.9889 C.3       14 UNK        -0.0915 
     18 CA        -56.8346  -31.0864   10.5103 C.3       13 UNK         0.0968 
     19 C         -56.3485  -32.3915   11.2077 C.2       13 UNK         0.5732 
     20 N         -55.1262  -32.4562   11.7224 N.am      13 UNK        -0.7310 
     21 O         -57.0978  -33.3627   11.2812 O.2       13 UNK        -0.5035 
     22 N         -56.0352  -29.8795   10.7912 N.am      13 UNK        -0.4233 
     23 C         -55.9397  -29.2951   11.9902 C.2       13 UNK         0.4989 
     24 O         -56.4602  -29.7371   13.0183 O.2       13 UNK        -0.4996 
     25 CA        -55.1574  -27.9801   12.0580 C.3       12 UNK         0.0216 
     26 CB        -56.0839  -26.7884   11.7424 C.3       12 UNK        -0.1964 
     27 N         -54.5837  -27.8836   13.3990 N.am      12 UNK        -0.4276 
     28 C         -53.7165  -26.9674   13.8379 C.2       12 UNK         0.5020 
     29 O         -53.3721  -25.9779   13.1929 O.2       12 UNK        -0.5489 
     30 CA        -53.1108  -27.2246   15.2237 C.3       11 UNK         0.0294 
     31 CB        -52.0920  -28.3773   15.1613 C.3       11 UNK        -0.2019 
     32 N         -52.4156  -26.0288   15.6948 N.am      11 UNK        -0.4493 
     33 C         -52.5749  -25.4587   16.8950 C.2       11 UNK         0.4932 
     34 O         -53.3662  -25.8660   17.7480 O.2       11 UNK        -0.5029 
     35 CA        -51.6793  -24.2385   17.1917 C.3       10 UNK         0.0280 
     36 CB        -51.7081  -23.8041   18.6724 C.3       10 UNK        -0.1976 
     37 N         -50.3018  -24.4389   16.7291 N.am      10 UNK        -0.4242 
     38 C         -49.4389  -25.4006   17.0986 C.2       10 UNK         0.5072 
     39 O         -49.6521  -26.2072   18.0049 O.2       10 UNK        -0.5224 
     40 CA        -48.1196  -25.5063   16.3095 C.3       9 UNK         0.0343 
     41 CB        -48.0710  -26.8253   15.5182 C.3       9 UNK        -0.2003 
     42 N         -47.9430  -24.3954   15.3727 N.am      9 UNK        -0.4272 
     43 C         -47.3043  -23.2508   15.6504 C.2       9 UNK         0.4988 
     44 O         -46.7194  -23.0314   16.7115 O.2       9 UNK        -0.5108 
     45 CA        -47.3333  -22.1539   14.5698 C.3       8 UNK         0.0248 
     46 CB        -46.0635  -22.2248   13.7133 C.3       8 UNK        -0.2001 
     47 N         -48.5168  -22.2240   13.7037 N.am      8 UNK        -0.4140 
     48 C         -49.7562  -21.9270   14.1240 C.2       8 UNK         0.5028 
     49 O         -50.0142  -21.5583   15.2698 O.2       8 UNK        -0.5428 
     50 CA        -50.9170  -22.1076   13.1317 C.3       7 UNK         0.0264 
     51 CB        -51.1260  -20.8226   12.3149 C.3       7 UNK        -0.1988 
     52 N         -50.7854  -23.2425   12.2153 N.am      7 UNK        -0.4454 
     53 C         -50.5739  -24.5223   12.5554 C.2       7 UNK         0.5027 
     54 O         -50.3738  -24.8913   13.7152 O.2       7 UNK        -0.5083 
     55 CA        -50.5614  -25.5678   11.4226 C.3       6 UNK         0.0844 
     56 C56       -51.0314  -25.0461   10.0350 C.3       14 UNK        -0.0967 
     57 S57       -52.8488  -24.8640    9.9585 S.3       14 UNK        -0.2604 
     58 C58       -53.2679  -25.6390    8.3641 C.3       14 UNK         0.0134 
     59 N         -49.2096  -26.1088   11.3597 N.am      6 UNK        -0.4116 
     60 C         -48.8444  -27.3517   11.6964 C.2       5 UNK         0.5034 
     61 O         -49.6314  -28.2183   12.0776 O.2       5 UNK        -0.5045 
     62 CA        -47.3487  -27.7021   11.5843 C.3       5 UNK         0.0224 
     63 CB        -47.1357  -28.9437   10.7013 C.3       5 UNK        -0.1978 
     64 N         -46.5666  -26.6002   11.0192 N.am      5 UNK        -0.4737 
     65 C         -45.6568  -25.8712   11.6766 C.2       4 UNK         0.5027 
     66 O         -45.3462  -26.0586   12.8521 O.2       4 UNK        -0.5211 
     67 CA        -44.9723  -24.7352   10.8907 C.3       4 UNK         0.0297 
     68 CB        -43.6626  -25.2448   10.2679 C.3       4 UNK        -0.1993 
     69 N         -45.7997  -24.1410    9.8361 N.am      4 UNK        -0.4486 
     70 C         -47.0003  -23.5640    9.9921 C.2       3 UNK         0.4961 
     71 O         -47.5830  -23.4390   11.0714 O.2       3 UNK        -0.5105 
     72 CA        -47.7066  -23.1146    8.7004 C.3       3 UNK         0.0299 
     73 CB        -47.2428  -21.7037    8.3069 C.3       3 UNK        -0.1972 
     74 N         -47.5563  -24.0226    7.5504 N.am      3 UNK        -0.4305 
     75 C         -47.7457  -25.3516    7.5531 C.2       2 UNK         0.5006 
     76 O         -47.9555  -26.0160    8.5701 O.2       2 UNK        -0.5106 
     77 CA        -47.6401  -26.0692    6.1945 C.3       2 UNK         0.0296 
     78 CB        -46.1657  -26.3232    5.8399 C.3       2 UNK        -0.2002 
     79 N         -48.3521  -27.3514    6.2075 N.am      2 UNK        -0.4032 
     80 C         -49.6779  -27.4796    6.3656 C.2       1 UNK         0.5000 
     81 O         -50.4665  -26.5348    6.3286 O.2       1 UNK        -0.5238 
     82 H82       -51.1423  -27.7814    3.8368 H         1 UNK         0.0889 
     83 H83       -52.3133  -28.8632    4.6131 H         1 UNK         0.0889 
     84 H84       -51.9240  -29.0574    2.9126 H         1 UNK         0.0889 
     85 H85       -49.1405  -30.4695    5.6801 H         1 UNK         0.3028 
     86 H86       -51.2978  -28.8342    6.6461 H         1 UNK         0.0864 
     87 H87       -48.6524  -29.7023    7.9030 H         1 UNK         0.0720 
     88 H88       -49.8146  -28.7196    8.7474 H         1 UNK         0.0720 
     89 H89       -51.2546  -29.8185   10.4671 H         1 UNK         0.0814 
     90 H90       -52.3124  -31.1645   10.1312 H         1 UNK         0.0814 
     91 H91       -51.7615  -27.6194    9.5857 H         1 UNK         0.1469 
     92 H92       -55.3303  -27.0274    7.2769 H         1 UNK         0.1381 
     93 H93       -54.0307  -30.9896    8.2742 H         1 UNK         0.1206 
     94 H94       -56.2894  -28.9684    6.1445 H         1 UNK         0.0813 
     95 H95       -55.7625  -30.5879    6.5017 H         1 UNK         0.0813 
     96 H96       -57.8174  -32.0711    8.8346 H         1 UNK         0.0638 
     97 H97       -56.1306  -31.7820    8.5567 H         1 UNK         0.0638 
     98 H98       -57.8257  -30.8883   10.9229 H         1 UNK         0.0568 
     99 H99       -54.8261  -33.3058   12.1731 H         1 UNK         0.3450 
    100 H100      -54.5100  -31.6623   11.6760 H         1 UNK         0.3450 
    101 H101      -55.5825  -29.4589    9.9904 H         1 UNK         0.2987 
    102 H102      -54.3408  -28.0109   11.3349 H         1 UNK         0.0766 
    103 H103      -55.5331  -25.8487   11.7056 H         1 UNK         0.0798 
    104 H104      -56.8756  -26.6862   12.4853 H         1 UNK         0.0798 
    105 H105      -56.5598  -26.9119   10.7685 H         1 UNK         0.0798 
    106 H106      -54.8501  -28.6532   14.0023 H         1 UNK         0.3198 
    107 H107      -53.9226  -27.4925   15.9034 H         1 UNK         0.0843 
    108 H108      -51.2911  -28.1655   14.4506 H         1 UNK         0.0831 
    109 H109      -52.5639  -29.3107   14.8528 H         1 UNK         0.0831 
    110 H110      -51.6340  -28.5531   16.1350 H         1 UNK         0.0831 
    111 H111      -51.7951  -25.5971   15.0143 H         1 UNK         0.3133 
    112 H112      -52.0800  -23.4150   16.5988 H         1 UNK         0.0566 
    113 H113      -51.0771  -22.9315   18.8411 H         1 UNK         0.0814 
    114 H114      -52.7194  -23.5364   18.9807 H         1 UNK         0.0814 
    115 H115      -51.3666  -24.5992   19.3359 H         1 UNK         0.0814 
    116 H116      -50.0159  -23.8348   15.9702 H         1 UNK         0.3091 
    117 H117      -47.3019  -25.5132   17.0331 H         1 UNK         0.0702 
    118 H118      -48.1410  -27.6849   16.1858 H         1 UNK         0.0785 
    119 H119      -48.8938  -26.9004   14.8062 H         1 UNK         0.0785 
    120 H120      -47.1366  -26.9201   14.9649 H         1 UNK         0.0785 
    121 H121      -48.4394  -24.4778   14.4931 H         1 UNK         0.2998 
    122 H122      -47.3454  -21.1870   15.0775 H         1 UNK         0.0697 
    123 H123      -45.9600  -23.2107   13.2652 H         1 UNK         0.0825 
    124 H124      -45.1732  -22.0473   14.3180 H         1 UNK         0.0825 
    125 H125      -46.0713  -21.4845   12.9132 H         1 UNK         0.0825 
    126 H126      -48.3733  -22.5489   12.7518 H         1 UNK         0.3029 
    127 H127      -51.8176  -22.2851   13.7235 H         1 UNK         0.0897 
    128 H128      -52.0211  -20.8858   11.6956 H         1 UNK         0.0792 
    129 H129      -50.2772  -20.6177   11.6610 H         1 UNK         0.0792 
    130 H130      -51.2493  -19.9587   12.9698 H         1 UNK         0.0792 
    131 H131      -50.9621  -23.0430   11.2423 H         1 UNK         0.3086 
    132 H132      -51.2472  -26.3595   11.7283 H         1 UNK         0.0583 
    133 H133      -50.5620  -24.1025    9.7633 H         1 UNK         0.1020 
    134 H134      -50.7099  -25.7355    9.2533 H         1 UNK         0.1020 
    135 H135      -54.1587  -25.1337    7.9881 H         1 UNK         0.0694 
    136 H136      -52.4819  -25.4343    7.6373 H         1 UNK         0.0694 
    137 H137      -48.4839  -25.4519   11.1030 H         1 UNK         0.2989 
    138 H138      -47.0081  -27.9372   12.5948 H         1 UNK         0.1055 
    139 H139      -47.7352  -29.7882   11.0443 H         1 UNK         0.0806 
    140 H140      -46.0931  -29.2613   10.7154 H         1 UNK         0.0806 
    141 H141      -47.4076  -28.7440    9.6654 H         1 UNK         0.0806 
    142 H142      -46.7999  -26.3491   10.0608 H         1 UNK         0.3061 
    143 H143      -44.7164  -23.9430   11.5938 H         1 UNK         0.0734 
    144 H144      -43.1100  -24.4386    9.7852 H         1 UNK         0.0832 
    145 H145      -43.0083  -25.6704   11.0303 H         1 UNK         0.0832 
    146 H146      -43.8440  -26.0224    9.5247 H         1 UNK         0.0832 
    147 H147      -45.4360  -24.2028    8.8965 H         1 UNK         0.3156 
    148 H148      -48.7722  -23.0578    8.9192 H         1 UNK         0.0589 
    149 H149      -46.1919  -21.6889    8.0150 H         1 UNK         0.0808 
    150 H150      -47.8280  -21.3094    7.4759 H         1 UNK         0.0808 
    151 H151      -47.3594  -21.0073    9.1390 H         1 UNK         0.0808 
    152 H152      -47.3640  -23.5778    6.6639 H         1 UNK         0.3098 
    153 H153      -48.0905  -25.4355    5.4277 H         1 UNK         0.0720 
    154 H154      -46.0698  -26.8178    4.8730 H         1 UNK         0.0791 
    155 H155      -45.6725  -26.9475    6.5866 H         1 UNK         0.0791 
    156 H156      -45.6076  -25.3880    5.7778 H         1 UNK         0.0791 
    157 H157      -47.7805  -28.1818    6.2444 H         1 UNK         0.3028 
@<TRIPOS>BOND
     1    1    2 1    
     2    1   82 1    
     3    1   83 1    
     4    1   84 1    
     5    2    3 2    
     6    2    4 am   BACKBONE|DICT|INTERRES
     7    4    5 1    
     8    4   85 1    
     9    5    6 1    
    10    5   80 1    
    11    5   86 1    
    12    6    7 1    
    13    6   87 1    
    14    6   88 1    
    15    7    8 1    
    16    8    9 1    
    17    8   89 1    
    18    8   90 1    
    19    9   10 ar   
    20    9   14 ar   
    21   10   11 ar   
    22   10   91 1    
    23   11   12 ar   
    24   11   58 1    
    25   12   13 ar   
    26   12   92 1    
    27   13   14 ar   
    28   13   15 1    
    29   14   93 1    
    30   15   16 1    
    31   15   94 1    
    32   15   95 1    
    33   16   17 1    
    34   17   18 1    
    35   17   96 1    
    36   17   97 1    
    37   18   19 1    
    38   18   22 1    
    39   18   98 1    
    40   19   20 am   BACKBONE|DICT|INTERRES
    41   19   21 2    
    42   20   99 1    
    43   20  100 1    
    44   22   23 am   BACKBONE|DICT|INTERRES
    45   22  101 1    
    46   23   24 2    
    47   23   25 1    
    48   25   26 1    
    49   25   27 1    
    50   25  102 1    
    51   26  103 1    
    52   26  104 1    
    53   26  105 1    
    54   27   28 am   BACKBONE|DICT|INTERRES
    55   27  106 1    
    56   28   29 2    
    57   28   30 1    
    58   30   31 1    
    59   30   32 1    
    60   30  107 1    
    61   31  108 1    
    62   31  109 1    
    63   31  110 1    
    64   32   33 am   BACKBONE|DICT|INTERRES
    65   32  111 1    
    66   33   34 2    
    67   33   35 1    
    68   35   36 1    
    69   35   37 1    
    70   35  112 1    
    71   36  113 1    
    72   36  114 1    
    73   36  115 1    
    74   37   38 am   BACKBONE|DICT|INTERRES
    75   37  116 1    
    76   38   39 2    
    77   38   40 1    
    78   40   41 1    
    79   40   42 1    
    80   40  117 1    
    81   41  118 1    
    82   41  119 1    
    83   41  120 1    
    84   42   43 am   BACKBONE|DICT|INTERRES
    85   42  121 1    
    86   43   44 2    
    87   43   45 1    
    88   45   46 1    
    89   45   47 1    
    90   45  122 1    
    91   46  123 1    
    92   46  124 1    
    93   46  125 1    
    94   47   48 am   BACKBONE|DICT|INTERRES
    95   47  126 1    
    96   48   49 2    
    97   48   50 1    
    98   50   51 1    
    99   50   52 1    
   100   50  127 1    
   101   51  128 1    
   102   51  129 1    
   103   51  130 1    
   104   52   53 am   BACKBONE|DICT|INTERRES
   105   52  131 1    
   106   53   54 2    
   107   53   55 1    
   108   55   56 1    
   109   55   59 1    
   110   55  132 1    
   111   56   57 1    
   112   56  133 1    
   113   56  134 1    
   114   57   58 1    
   115   58  135 1    
   116   58  136 1    
   117   59   60 am   BACKBONE|DICT|INTERRES
   118   59  137 1    
   119   60   61 2    
   120   60   62 1    
   121   62   63 1    
   122   62   64 1    
   123   62  138 1    
   124   63  139 1    
   125   63  140 1    
   126   63  141 1    
   127   64   65 am   BACKBONE|DICT|INTERRES
   128   64  142 1    
   129   65   66 2    
   130   65   67 1    
   131   67   68 1    
   132   67   69 1    
   133   67  143 1    
   134   68  144 1    
   135   68  145 1    
   136   68  146 1    
   137   69   70 am   BACKBONE|DICT|INTERRES
   138   69  147 1    
   139   70   71 2    
   140   70   72 1    
   141   72   73 1    
   142   72   74 1    
   143   72  148 1    
   144   73  149 1    
   145   73  150 1    
   146   73  151 1    
   147   74   75 am   BACKBONE|DICT|INTERRES
   148   74  152 1    
   149   75   76 2    
   150   75   77 1    
   151   77   78 1    
   152   77   79 1    
   153   77  153 1    
   154   78  154 1    
   155   78  155 1    
   156   78  156 1    
   157   79   80 am   BACKBONE|DICT|INTERRES
   158   79  157 1    
   159   80   81 2    
@<TRIPOS>SUBSTRUCTURE
     1 UNK         1 GROUP             0       ****    0 ROOT    
