@<TRIPOS>MOLECULE
3R207
157   159    1
SMALL
USER_CHARGES


@<TRIPOS>ATOM
      1 CA        -47.0447  -25.5807    3.6160 C.3       0 UNK        -0.1975 
      2 C         -47.9257  -25.4654    4.8496 C.2       0 UNK         0.4852 
      3 O         -47.4128  -25.4887    5.9685 O.2       0 UNK        -0.5216 
      4 N         -49.2436  -25.3064    4.6592 N.am      1 UNK        -0.4461 
      5 CA        -50.2848  -25.2781    5.7041 C.3       1 UNK         0.0864 
      6 C6        -50.4642  -26.6462    6.4200 C.3       14 UNK        -0.0898 
      7 S7        -50.7083  -28.0479    5.2755 S.3       14 UNK        -0.2598 
      8 C8        -52.3436  -28.6786    5.7811 C.3       14 UNK         0.0286 
      9 C9        -52.3638  -29.2151    7.2093 C.ar      14 UNK        -0.0844 
     10 C10       -51.4521  -30.1940    7.6181 C.ar      14 UNK        -0.0881 
     11 C11       -51.4774  -30.6937    8.9241 C.ar      14 UNK        -0.0643 
     12 C12       -52.4340  -30.2148    9.8251 C.ar      14 UNK        -0.0930 
     13 C13       -53.3527  -29.2371    9.4284 C.ar      14 UNK        -0.0827 
     14 C14       -53.3133  -28.7436    8.1206 C.ar      14 UNK        -0.1249 
     15 C15       -54.3747  -28.6891   10.4114 C.3       14 UNK         0.0141 
     16 S16       -55.9765  -29.5372   10.2364 S.3       14 UNK        -0.2313 
     17 C17       -57.0509  -28.4958   11.2885 C.3       14 UNK        -0.0915 
     18 CA        -57.4393  -29.1464   12.6434 C.3       13 UNK         0.0968 
     19 C         -58.4982  -30.2769   12.4882 C.2       13 UNK         0.5732 
     20 N         -58.2342  -31.5040   12.9222 N.am      13 UNK        -0.7310 
     21 O         -59.5902  -30.0302   11.9813 O.2       13 UNK        -0.5035 
     22 N         -56.2415  -29.5218   13.4035 N.am      13 UNK        -0.4233 
     23 C         -56.1325  -29.5589   14.7347 C.2       13 UNK         0.4989 
     24 O         -57.0459  -29.2783   15.5120 O.2       13 UNK        -0.4996 
     25 CA        -54.7639  -29.9820   15.3020 C.3       12 UNK         0.0216 
     26 CB        -53.9418  -30.8692   14.3392 C.3       12 UNK        -0.1964 
     27 N         -53.9643  -28.8365   15.7553 N.am      12 UNK        -0.4276 
     28 C         -53.6117  -27.7482   15.0527 C.2       12 UNK         0.5020 
     29 O         -53.9355  -27.5333   13.8819 O.2       12 UNK        -0.5489 
     30 CA        -52.7178  -26.7407   15.7946 C.3       11 UNK         0.0294 
     31 CB        -51.2405  -27.1593   15.7246 C.3       11 UNK        -0.2019 
     32 N         -52.8562  -25.3985   15.2329 N.am      11 UNK        -0.4493 
     33 C         -53.8560  -24.5575   15.5193 C.2       11 UNK         0.4932 
     34 O         -54.7408  -24.7992   16.3434 O.2       11 UNK        -0.5029 
     35 CA        -53.8426  -23.2157   14.7617 C.3       10 UNK         0.0280 
     36 CB        -54.9254  -22.2288   15.2494 C.3       10 UNK        -0.1976 
     37 N         -52.5156  -22.5862   14.7634 N.am      10 UNK        -0.4242 
     38 C         -51.7993  -22.1847   15.8272 C.2       10 UNK         0.5072 
     39 O         -52.1983  -22.2488   16.9916 O.2       10 UNK        -0.5224 
     40 CA        -50.4049  -21.5892   15.5308 C.3       9 UNK         0.0343 
     41 CB        -49.4567  -21.6335   16.7492 C.3       9 UNK        -0.2003 
     42 N         -49.7676  -22.1676   14.3390 N.am      9 UNK        -0.4272 
     43 C         -49.3946  -23.4439   14.1616 C.2       9 UNK         0.4988 
     44 O         -49.4427  -24.3150   15.0316 O.2       9 UNK        -0.5108 
     45 CA        -48.8802  -23.7955   12.7555 C.3       8 UNK         0.0248 
     46 CB        -47.3431  -23.8068   12.7313 C.3       8 UNK        -0.2001 
     47 N         -49.3774  -25.0786   12.2506 N.am      8 UNK        -0.4140 
     48 C         -50.6607  -25.4646   12.1754 C.2       8 UNK         0.5028 
     49 O         -51.6075  -24.7945   12.5931 O.2       8 UNK        -0.5428 
     50 CA        -50.9438  -26.8151   11.5020 C.3       7 UNK         0.0264 
     51 CB        -50.9517  -26.6397    9.9775 C.3       7 UNK        -0.1988 
     52 N         -49.9397  -27.8244   11.8401 N.am      7 UNK        -0.4454 
     53 C         -50.1922  -28.9675   12.4937 C.2       7 UNK         0.5027 
     54 O         -51.2989  -29.2714   12.9338 O.2       7 UNK        -0.5083 
     55 CA        -49.0349  -29.9698   12.6940 C.3       6 UNK         0.0844 
     56 C56       -49.2423  -31.2574   11.8569 C.3       14 UNK        -0.0967 
     57 S57       -48.9661  -31.0468   10.0590 S.3       14 UNK        -0.2604 
     58 C58       -50.4808  -31.7648    9.3425 C.3       14 UNK         0.0134 
     59 N         -47.7129  -29.3833   12.4734 N.am      6 UNK        -0.4116 
     60 C         -47.0920  -28.5437   13.3110 C.2       5 UNK         0.5034 
     61 O         -47.5230  -28.2395   14.4228 O.2       5 UNK        -0.5045 
     62 CA        -45.7747  -27.9177   12.8168 C.3       5 UNK         0.0224 
     63 CB        -44.5701  -28.6737   13.4004 C.3       5 UNK        -0.1978 
     64 N         -45.6359  -27.8446   11.3548 N.am      5 UNK        -0.4737 
     65 C         -46.4553  -27.1702   10.5375 C.2       4 UNK         0.5027 
     66 O         -47.4907  -26.6191   10.9124 O.2       4 UNK        -0.5211 
     67 CA        -46.0843  -27.1455    9.0475 C.3       4 UNK         0.0297 
     68 CB        -47.0126  -28.0845    8.2606 C.3       4 UNK        -0.1993 
     69 N         -46.1565  -25.7950    8.4801 N.am      4 UNK        -0.4486 
     70 C         -45.4129  -24.7534    8.8833 C.2       3 UNK         0.4961 
     71 O         -44.5887  -24.8155    9.7967 O.2       3 UNK        -0.5105 
     72 CA        -45.5696  -23.4223    8.1330 C.3       3 UNK         0.0299 
     73 CB        -44.5817  -23.3663    6.9552 C.3       3 UNK        -0.1972 
     74 N         -46.9242  -23.1962    7.6207 N.am      3 UNK        -0.4305 
     75 C         -47.7326  -22.2013    8.0177 C.2       2 UNK         0.5006 
     76 O         -47.4751  -21.4493    8.9589 O.2       2 UNK        -0.5106 
     77 CA        -49.0254  -21.9483    7.2154 C.3       2 UNK         0.0296 
     78 CB        -48.8790  -20.6768    6.3615 C.3       2 UNK        -0.2002 
     79 N         -49.3933  -23.0608    6.3378 N.am      2 UNK        -0.4032 
     80 C         -50.1131  -24.1227    6.7245 C.2       1 UNK         0.5000 
     81 O         -50.6276  -24.2072    7.8398 O.2       1 UNK        -0.5238 
     82 H82       -47.6228  -25.5207    2.6942 H         1 UNK         0.0889 
     83 H83       -46.5167  -26.5337    3.6245 H         1 UNK         0.0889 
     84 H84       -46.3046  -24.7810    3.6076 H         1 UNK         0.0889 
     85 H85       -49.5959  -25.2784    3.7121 H         1 UNK         0.3028 
     86 H86       -51.2193  -25.0614    5.1843 H         1 UNK         0.0864 
     87 H87       -51.3146  -26.6028    7.1017 H         1 UNK         0.0720 
     88 H88       -49.5947  -26.8673    7.0382 H         1 UNK         0.0720 
     89 H89       -52.6350  -29.4813    5.1026 H         1 UNK         0.0814 
     90 H90       -53.0810  -27.8848    5.6514 H         1 UNK         0.0814 
     91 H91       -50.7160  -30.5634    6.9171 H         1 UNK         0.1469 
     92 H92       -52.4568  -30.5949   10.8372 H         1 UNK         0.1381 
     93 H93       -54.0248  -27.9883    7.8158 H         1 UNK         0.1206 
     94 H94       -54.5034  -27.6192   10.2399 H         1 UNK         0.0813 
     95 H95       -54.0100  -28.7919   11.4344 H         1 UNK         0.0813 
     96 H96       -57.9426  -28.2352   10.7157 H         1 UNK         0.0638 
     97 H97       -56.5481  -27.5467   11.4804 H         1 UNK         0.0638 
     98 H98       -57.9499  -28.3713   13.2177 H         1 UNK         0.0568 
     99 H99       -57.3443  -31.7179   13.3410 H         1 UNK         0.3450 
    100 H100      -58.9326  -32.2235   12.8214 H         1 UNK         0.3450 
    101 H101      -55.4288  -29.7442   12.8493 H         1 UNK         0.2987 
    102 H102      -54.9759  -30.5793   16.1902 H         1 UNK         0.0766 
    103 H103      -53.0333  -31.2304   14.8212 H         1 UNK         0.0798 
    104 H104      -53.6378  -30.3341   13.4398 H         1 UNK         0.0798 
    105 H105      -54.5096  -31.7468   14.0274 H         1 UNK         0.0798 
    106 H106      -53.6631  -28.8860   16.7188 H         1 UNK         0.3198 
    107 H107      -53.0190  -26.7157   16.8443 H         1 UNK         0.0843 
    108 H108      -50.8598  -27.1178   14.7049 H         1 UNK         0.0831 
    109 H109      -51.0964  -28.1786   16.0847 H         1 UNK         0.0831 
    110 H110      -50.6160  -26.5070   16.3353 H         1 UNK         0.0831 
    111 H111      -52.2320  -25.1559   14.4685 H         1 UNK         0.3133 
    112 H112      -54.0633  -23.4553   13.7203 H         1 UNK         0.0566 
    113 H113      -55.9218  -22.6584   15.1383 H         1 UNK         0.0814 
    114 H114      -54.7988  -21.9734   16.3019 H         1 UNK         0.0814 
    115 H115      -54.9068  -21.3030   14.6746 H         1 UNK         0.0814 
    116 H116      -52.0677  -22.5363   13.8584 H         1 UNK         0.3091 
    117 H117      -50.5787  -20.5381   15.2959 H         1 UNK         0.0702 
    118 H118      -48.4829  -21.2059   16.5108 H         1 UNK         0.0785 
    119 H119      -49.2988  -22.6522   17.1043 H         1 UNK         0.0785 
    120 H120      -49.8650  -21.0609   17.5829 H         1 UNK         0.0785 
    121 H121      -49.6635  -21.5330   13.5586 H         1 UNK         0.2998 
    122 H122      -49.2271  -23.0321   12.0564 H         1 UNK         0.0697 
    123 H123      -46.9398  -24.5964   13.3666 H         1 UNK         0.0825 
    124 H124      -46.9362  -22.8595   13.0874 H         1 UNK         0.0825 
    125 H125      -46.9621  -23.9621   11.7213 H         1 UNK         0.0825 
    126 H126      -48.6730  -25.6840   11.8326 H         1 UNK         0.3029 
    127 H127      -51.9375  -27.1419   11.8170 H         1 UNK         0.0897 
    128 H128      -50.0241  -26.1934    9.6164 H         1 UNK         0.0792 
    129 H129      -51.7723  -25.9940    9.6629 H         1 UNK         0.0792 
    130 H130      -51.0692  -27.5943    9.4678 H         1 UNK         0.0792 
    131 H131      -48.9934  -27.6334   11.5247 H         1 UNK         0.3086 
    132 H132      -49.0829  -30.2675   13.7439 H         1 UNK         0.0583 
    133 H133      -48.5483  -32.0240   12.2047 H         1 UNK         0.1020 
    134 H134      -50.2356  -31.6693   12.0446 H         1 UNK         0.1020 
    135 H135      -50.1969  -32.3579    8.4718 H         1 UNK         0.0694 
    136 H136      -50.9454  -32.4674   10.0353 H         1 UNK         0.0694 
    137 H137      -47.2865  -29.5779   11.5791 H         1 UNK         0.2989 
    138 H138      -45.7522  -26.8936   13.1958 H         1 UNK         0.1055 
    139 H139      -44.6291  -28.7225   14.4889 H         1 UNK         0.0806 
    140 H140      -43.6312  -28.1781   13.1527 H         1 UNK         0.0806 
    141 H141      -44.5185  -29.6987   13.0310 H         1 UNK         0.0806 
    142 H142      -44.8139  -28.2805   10.9606 H         1 UNK         0.3061 
    143 H143      -45.0565  -27.4937    8.9270 H         1 UNK         0.0734 
    144 H144      -46.8175  -28.0405    7.1889 H         1 UNK         0.0832 
    145 H145      -46.8743  -29.1202    8.5731 H         1 UNK         0.0832 
    146 H146      -48.0623  -27.8392    8.4227 H         1 UNK         0.0832 
    147 H147      -46.7649  -25.6764    7.6733 H         1 UNK         0.3156 
    148 H148      -45.2919  -22.6311    8.8325 H         1 UNK         0.0589 
    149 H149      -44.7975  -24.1334    6.2101 H         1 UNK         0.0808 
    150 H150      -44.6143  -22.3971    6.4574 H         1 UNK         0.0808 
    151 H151      -43.5568  -23.5204    7.2959 H         1 UNK         0.0808 
    152 H152      -47.2347  -23.8294    6.8898 H         1 UNK         0.3098 
    153 H153      -49.8271  -21.7764    7.9370 H         1 UNK         0.0720 
    154 H154      -49.8033  -20.4461    5.8316 H         1 UNK         0.0791 
    155 H155      -48.0824  -20.7747    5.6228 H         1 UNK         0.0791 
    156 H156      -48.6412  -19.8128    6.9838 H         1 UNK         0.0791 
    157 H157      -49.0169  -23.0529    5.4008 H         1 UNK         0.3028 
@<TRIPOS>BOND
     1    1    2 1    
     2    1   82 1    
     3    1   83 1    
     4    1   84 1    
     5    2    3 2    
     6    2    4 am   BACKBONE|DICT|INTERRES
     7    4    5 1    
     8    4   85 1    
     9    5    6 1    
    10    5   80 1    
    11    5   86 1    
    12    6    7 1    
    13    6   87 1    
    14    6   88 1    
    15    7    8 1    
    16    8    9 1    
    17    8   89 1    
    18    8   90 1    
    19    9   10 ar   
    20    9   14 ar   
    21   10   11 ar   
    22   10   91 1    
    23   11   12 ar   
    24   11   58 1    
    25   12   13 ar   
    26   12   92 1    
    27   13   14 ar   
    28   13   15 1    
    29   14   93 1    
    30   15   16 1    
    31   15   94 1    
    32   15   95 1    
    33   16   17 1    
    34   17   18 1    
    35   17   96 1    
    36   17   97 1    
    37   18   19 1    
    38   18   22 1    
    39   18   98 1    
    40   19   20 am   BACKBONE|DICT|INTERRES
    41   19   21 2    
    42   20   99 1    
    43   20  100 1    
    44   22   23 am   BACKBONE|DICT|INTERRES
    45   22  101 1    
    46   23   24 2    
    47   23   25 1    
    48   25   26 1    
    49   25   27 1    
    50   25  102 1    
    51   26  103 1    
    52   26  104 1    
    53   26  105 1    
    54   27   28 am   BACKBONE|DICT|INTERRES
    55   27  106 1    
    56   28   29 2    
    57   28   30 1    
    58   30   31 1    
    59   30   32 1    
    60   30  107 1    
    61   31  108 1    
    62   31  109 1    
    63   31  110 1    
    64   32   33 am   BACKBONE|DICT|INTERRES
    65   32  111 1    
    66   33   34 2    
    67   33   35 1    
    68   35   36 1    
    69   35   37 1    
    70   35  112 1    
    71   36  113 1    
    72   36  114 1    
    73   36  115 1    
    74   37   38 am   BACKBONE|DICT|INTERRES
    75   37  116 1    
    76   38   39 2    
    77   38   40 1    
    78   40   41 1    
    79   40   42 1    
    80   40  117 1    
    81   41  118 1    
    82   41  119 1    
    83   41  120 1    
    84   42   43 am   BACKBONE|DICT|INTERRES
    85   42  121 1    
    86   43   44 2    
    87   43   45 1    
    88   45   46 1    
    89   45   47 1    
    90   45  122 1    
    91   46  123 1    
    92   46  124 1    
    93   46  125 1    
    94   47   48 am   BACKBONE|DICT|INTERRES
    95   47  126 1    
    96   48   49 2    
    97   48   50 1    
    98   50   51 1    
    99   50   52 1    
   100   50  127 1    
   101   51  128 1    
   102   51  129 1    
   103   51  130 1    
   104   52   53 am   BACKBONE|DICT|INTERRES
   105   52  131 1    
   106   53   54 2    
   107   53   55 1    
   108   55   56 1    
   109   55   59 1    
   110   55  132 1    
   111   56   57 1    
   112   56  133 1    
   113   56  134 1    
   114   57   58 1    
   115   58  135 1    
   116   58  136 1    
   117   59   60 am   BACKBONE|DICT|INTERRES
   118   59  137 1    
   119   60   61 2    
   120   60   62 1    
   121   62   63 1    
   122   62   64 1    
   123   62  138 1    
   124   63  139 1    
   125   63  140 1    
   126   63  141 1    
   127   64   65 am   BACKBONE|DICT|INTERRES
   128   64  142 1    
   129   65   66 2    
   130   65   67 1    
   131   67   68 1    
   132   67   69 1    
   133   67  143 1    
   134   68  144 1    
   135   68  145 1    
   136   68  146 1    
   137   69   70 am   BACKBONE|DICT|INTERRES
   138   69  147 1    
   139   70   71 2    
   140   70   72 1    
   141   72   73 1    
   142   72   74 1    
   143   72  148 1    
   144   73  149 1    
   145   73  150 1    
   146   73  151 1    
   147   74   75 am   BACKBONE|DICT|INTERRES
   148   74  152 1    
   149   75   76 2    
   150   75   77 1    
   151   77   78 1    
   152   77   79 1    
   153   77  153 1    
   154   78  154 1    
   155   78  155 1    
   156   78  156 1    
   157   79   80 am   BACKBONE|DICT|INTERRES
   158   79  157 1    
   159   80   81 2    
@<TRIPOS>SUBSTRUCTURE
     1 UNK         1 GROUP             0       ****    0 ROOT    
