@<TRIPOS>MOLECULE
3R207
157   159    1
SMALL
USER_CHARGES


@<TRIPOS>ATOM
      1 CA        -45.6817  -28.6638    5.8530 C.3       0 UNK        -0.1975 
      2 C         -46.9184  -27.8060    5.6302 C.2       0 UNK         0.4852 
      3 O         -46.8670  -26.8428    4.8645 O.2       0 UNK        -0.5216 
      4 N         -48.0304  -28.1539    6.2870 N.am      1 UNK        -0.4461 
      5 CA        -49.2818  -27.3947    6.2723 C.3       1 UNK         0.0864 
      6 C6        -50.4912  -28.2982    6.6339 C.3       14 UNK        -0.0898 
      7 S7        -50.3986  -29.0594    8.2934 S.3       14 UNK        -0.2598 
      8 C8        -51.2254  -30.6559    8.0257 C.3       14 UNK         0.0286 
      9 C9        -51.6843  -31.2383    9.3533 C.ar      14 UNK        -0.0844 
     10 C10       -50.7435  -31.7067   10.2763 C.ar      14 UNK        -0.0881 
     11 C11       -51.1502  -32.1655   11.5329 C.ar      14 UNK        -0.0643 
     12 C12       -52.5137  -32.1999   11.8417 C.ar      14 UNK        -0.0930 
     13 C13       -53.4660  -31.7640   10.9158 C.ar      14 UNK        -0.0827 
     14 C14       -53.0452  -31.2766    9.6752 C.ar      14 UNK        -0.1249 
     15 C15       -54.9460  -31.8324   11.2631 C.3       14 UNK         0.0141 
     16 S16       -55.5459  -30.2799   12.0018 S.3       14 UNK        -0.2313 
     17 C17       -56.2228  -29.4012   10.5514 C.3       14 UNK        -0.0915 
     18 CA        -55.8580  -27.8939   10.5160 C.3       13 UNK         0.0968 
     19 C         -56.3869  -27.2451    9.2029 C.2       13 UNK         0.5732 
     20 N         -57.4112  -26.4016    9.2430 N.am      13 UNK        -0.7310 
     21 O         -55.8554  -27.5159    8.1293 O.2       13 UNK        -0.5035 
     22 N         -56.2373  -27.2124   11.7655 N.am      13 UNK        -0.4233 
     23 C         -55.9100  -25.9580   12.1038 C.2       13 UNK         0.4989 
     24 O         -55.2775  -25.1849   11.3855 O.2       13 UNK        -0.4996 
     25 CA        -56.2932  -25.5209   13.5257 C.3       12 UNK         0.0216 
     26 CB        -57.8142  -25.5725   13.7550 C.3       12 UNK        -0.1964 
     27 N         -55.6022  -26.3507   14.5146 N.am      12 UNK        -0.4276 
     28 C         -54.2843  -26.2901   14.7436 C.2       12 UNK         0.5020 
     29 O         -53.5425  -25.4330   14.2526 O.2       12 UNK        -0.5489 
     30 CA        -53.7033  -27.3890   15.6434 C.3       11 UNK         0.0294 
     31 CB        -53.6601  -28.7347   14.8977 C.3       11 UNK        -0.2019 
     32 N         -52.3423  -27.0160   16.0018 N.am      11 UNK        -0.4493 
     33 C         -51.8405  -26.9404   17.2370 C.2       11 UNK         0.4932 
     34 O         -52.4390  -27.3015   18.2510 O.2       11 UNK        -0.5029 
     35 CA        -50.4272  -26.3453   17.3634 C.3       10 UNK         0.0280 
     36 CB        -49.3689  -27.4566   17.2704 C.3       10 UNK        -0.1976 
     37 N         -50.1431  -25.3230   16.3514 N.am      10 UNK        -0.4242 
     38 C         -50.7377  -24.1246   16.2708 C.2       10 UNK         0.5072 
     39 O         -51.5771  -23.7177   17.0756 O.2       10 UNK        -0.5224 
     40 CA        -50.3241  -23.2182   15.1050 C.3       9 UNK         0.0343 
     41 CB        -48.9571  -23.5760   14.4753 C.3       9 UNK        -0.2003 
     42 N         -51.3694  -23.2489   14.0867 N.am      9 UNK        -0.4272 
     43 C         -51.5637  -22.2971   13.1645 C.2       9 UNK         0.4988 
     44 O         -50.9589  -21.2225   13.1595 O.2       9 UNK        -0.5108 
     45 CA        -52.5879  -22.6008   12.0481 C.3       8 UNK         0.0248 
     46 CB        -52.3528  -21.7531   10.7786 C.3       8 UNK        -0.2001 
     47 N         -52.6616  -24.0250   11.7015 N.am      8 UNK        -0.4140 
     48 C         -51.6533  -24.8155   11.3118 C.2       8 UNK         0.5028 
     49 O         -50.5094  -24.4195   11.0805 O.2       8 UNK        -0.5428 
     50 CA        -51.9985  -26.2982   11.1205 C.3       7 UNK         0.0264 
     51 CB        -52.4171  -26.5626    9.6666 C.3       7 UNK        -0.1988 
     52 N         -50.8888  -27.1851   11.4750 N.am      7 UNK        -0.4454 
     53 C         -50.3757  -27.3164   12.7082 C.2       7 UNK         0.5027 
     54 O         -50.7413  -26.6668   13.6876 O.2       7 UNK        -0.5083 
     55 CA        -49.3119  -28.4128   12.9010 C.3       6 UNK         0.0844 
     56 C56       -50.0164  -29.7655   13.1991 C.3       14 UNK        -0.0967 
     57 S57       -48.9414  -31.2359   13.0037 S.3       14 UNK        -0.2604 
     58 C58       -50.1220  -32.5700   12.5839 C.3       14 UNK         0.0134 
     59 N         -48.3549  -28.4772   11.7913 N.am      6 UNK        -0.4116 
     60 C         -47.4301  -27.5433   11.5293 C.2       5 UNK         0.5034 
     61 O         -47.3616  -26.4676   12.1270 O.2       5 UNK        -0.5045 
     62 CA        -46.3555  -27.8856   10.4821 C.3       5 UNK         0.0224 
     63 CB        -46.7102  -29.0692    9.5614 C.3       5 UNK        -0.1978 
     64 N         -46.0816  -26.7004    9.6732 N.am      5 UNK        -0.4737 
     65 C         -44.8789  -26.1391    9.5039 C.2       4 UNK         0.5027 
     66 O         -43.8290  -26.6243    9.9276 O.2       4 UNK        -0.5211 
     67 CA        -44.8287  -24.8025    8.7437 C.3       4 UNK         0.0297 
     68 CB        -44.6664  -25.0334    7.2347 C.3       4 UNK        -0.1993 
     69 N         -46.0087  -23.9704    8.9795 N.am      4 UNK        -0.4486 
     70 C         -46.2735  -23.3109   10.1134 C.2       3 UNK         0.4961 
     71 O         -45.5046  -23.2824   11.0751 O.2       3 UNK        -0.5105 
     72 CA        -47.6069  -22.5438   10.2086 C.3       3 UNK         0.0299 
     73 CB        -47.4163  -21.0504    9.8807 C.3       3 UNK        -0.1972 
     74 N         -48.7205  -23.1214    9.4439 N.am      3 UNK        -0.4305 
     75 C         -48.8859  -23.2218    8.1182 C.2       2 UNK         0.5006 
     76 O         -48.0660  -22.8376    7.2819 O.2       2 UNK        -0.5106 
     77 CA        -50.1855  -23.8971    7.6476 C.3       2 UNK         0.0296 
     78 CB        -51.0519  -22.9108    6.8475 C.3       2 UNK        -0.2002 
     79 N         -49.9698  -25.1126    6.8535 N.am      2 UNK        -0.4032 
     80 C         -49.1930  -26.1545    7.1906 C.2       1 UNK         0.5000 
     81 O         -48.4770  -26.1875    8.1959 O.2       1 UNK        -0.5238 
     82 H82       -45.9285  -29.6155    6.3230 H         1 UNK         0.0889 
     83 H83       -44.9722  -28.1395    6.4926 H         1 UNK         0.0889 
     84 H84       -45.1933  -28.8760    4.9023 H         1 UNK         0.0889 
     85 H85       -48.0158  -28.9353    6.9253 H         1 UNK         0.3028 
     86 H86       -49.4379  -27.0353    5.2526 H         1 UNK         0.0864 
     87 H87       -50.5768  -29.0911    5.8890 H         1 UNK         0.0720 
     88 H88       -51.4237  -27.7344    6.5695 H         1 UNK         0.0720 
     89 H89       -50.5415  -31.3457    7.5293 H         1 UNK         0.0814 
     90 H90       -52.0757  -30.5184    7.3557 H         1 UNK         0.0814 
     91 H91       -49.6899  -31.6658   10.0358 H         1 UNK         0.1469 
     92 H92       -52.8366  -32.5536   12.8114 H         1 UNK         0.1381 
     93 H93       -53.7769  -30.9191    8.9640 H         1 UNK         0.1206 
     94 H94       -55.5345  -32.0897   10.3813 H         1 UNK         0.0813 
     95 H95       -55.1178  -32.6397   11.9766 H         1 UNK         0.0813 
     96 H96       -55.8658  -29.8902    9.6436 H         1 UNK         0.0638 
     97 H97       -57.3067  -29.5298   10.5583 H         1 UNK         0.0638 
     98 H98       -54.7724  -27.8331   10.4631 H         1 UNK         0.0568 
     99 H99       -57.7413  -25.9868    8.3862 H         1 UNK         0.3450 
    100 H100      -57.8505  -26.1704   10.1187 H         1 UNK         0.3450 
    101 H101      -56.7388  -27.7811   12.4302 H         1 UNK         0.2987 
    102 H102      -55.9698  -24.4854   13.6553 H         1 UNK         0.0766 
    103 H103      -58.3408  -24.9762   13.0085 H         1 UNK         0.0798 
    104 H104      -58.0769  -25.1665   14.7321 H         1 UNK         0.0798 
    105 H105      -58.2095  -26.5874   13.7012 H         1 UNK         0.0798 
    106 H106      -56.1425  -27.0753   14.9653 H         1 UNK         0.3198 
    107 H107      -54.3275  -27.4772   16.5352 H         1 UNK         0.0843 
    108 H108      -53.1255  -28.6554   13.9497 H         1 UNK         0.0831 
    109 H109      -54.6650  -29.0945   14.6765 H         1 UNK         0.0831 
    110 H110      -53.1687  -29.5034   15.4942 H         1 UNK         0.0831 
    111 H111      -51.7872  -26.6627   15.2225 H         1 UNK         0.3133 
    112 H112      -50.3491  -25.8762   18.3464 H         1 UNK         0.0566 
    113 H113      -49.3915  -27.9555   16.3007 H         1 UNK         0.0814 
    114 H114      -48.3638  -27.0633   17.4240 H         1 UNK         0.0814 
    115 H115      -49.5371  -28.2190   18.0324 H         1 UNK         0.0814 
    116 H116      -49.5136  -25.5846   15.6057 H         1 UNK         0.3091 
    117 H117      -50.2563  -22.2074   15.5128 H         1 UNK         0.0702 
    118 H118      -48.9911  -24.5173   13.9246 H         1 UNK         0.0785 
    119 H119      -48.1764  -23.6540   15.2331 H         1 UNK         0.0785 
    120 H120      -48.6386  -22.8062   13.7723 H         1 UNK         0.0785 
    121 H121      -51.9506  -24.0842   14.0613 H         1 UNK         0.2998 
    122 H122      -53.5664  -22.3370   12.4515 H         1 UNK         0.0697 
    123 H123      -51.3570  -21.9136   10.3646 H         1 UNK         0.0825 
    124 H124      -52.4454  -20.6885   10.9960 H         1 UNK         0.0825 
    125 H125      -53.0810  -21.9889   10.0026 H         1 UNK         0.0825 
    126 H126      -53.5757  -24.4549   11.8256 H         1 UNK         0.3029 
    127 H127      -52.8340  -26.5483   11.7774 H         1 UNK         0.0897 
    128 H128      -51.6093  -26.3385    8.9722 H         1 UNK         0.0792 
    129 H129      -53.2721  -25.9465    9.3846 H         1 UNK         0.0792 
    130 H130      -52.7011  -27.6036    9.5153 H         1 UNK         0.0792 
    131 H131      -50.4911  -27.7319   10.7244 H         1 UNK         0.3086 
    132 H132      -48.7352  -28.1474   13.7898 H         1 UNK         0.0583 
    133 H133      -50.4084  -29.7619   14.2181 H         1 UNK         0.1020 
    134 H134      -50.8911  -29.8723   12.5579 H         1 UNK         0.1020 
    135 H135      -49.5638  -33.4344   12.2219 H         1 UNK         0.0694 
    136 H136      -50.6172  -32.8887   13.5025 H         1 UNK         0.0694 
    137 H137      -48.3356  -29.3450   11.2766 H         1 UNK         0.2989 
    138 H138      -45.4668  -28.1613   11.0539 H         1 UNK         0.1055 
    139 H139      -45.9148  -29.2494    8.8389 H         1 UNK         0.0806 
    140 H140      -47.6269  -28.8792    9.0074 H         1 UNK         0.0806 
    141 H141      -46.8386  -29.9951   10.1233 H         1 UNK         0.0806 
    142 H142      -46.9029  -26.2459    9.2774 H         1 UNK         0.3061 
    143 H143      -43.9510  -24.2575    9.0979 H         1 UNK         0.0734 
    144 H144      -44.4860  -24.0962    6.7082 H         1 UNK         0.0832 
    145 H145      -43.8227  -25.6921    7.0244 H         1 UNK         0.0832 
    146 H146      -45.5573  -25.4894    6.8052 H         1 UNK         0.0832 
    147 H147      -46.6861  -23.8927    8.2275 H         1 UNK         0.3156 
    148 H148      -47.9210  -22.6109   11.2516 H         1 UNK         0.0589 
    149 H149      -48.3414  -20.4924   10.0255 H         1 UNK         0.0808 
    150 H150      -46.6633  -20.6039   10.5313 H         1 UNK         0.0808 
    151 H151      -47.0867  -20.8967    8.8528 H         1 UNK         0.0808 
    152 H152      -49.4239  -23.5756   10.0341 H         1 UNK         0.3098 
    153 H153      -50.7597  -24.1921    8.5242 H         1 UNK         0.0720 
    154 H154      -52.0214  -23.3425    6.5983 H         1 UNK         0.0791 
    155 H155      -50.5663  -22.6104    5.9180 H         1 UNK         0.0791 
    156 H156      -51.2422  -22.0040    7.4236 H         1 UNK         0.0791 
    157 H157      -50.5004  -25.1730    5.9970 H         1 UNK         0.3028 
@<TRIPOS>BOND
     1    1    2 1    
     2    1   82 1    
     3    1   83 1    
     4    1   84 1    
     5    2    3 2    
     6    2    4 am   BACKBONE|DICT|INTERRES
     7    4    5 1    
     8    4   85 1    
     9    5    6 1    
    10    5   80 1    
    11    5   86 1    
    12    6    7 1    
    13    6   87 1    
    14    6   88 1    
    15    7    8 1    
    16    8    9 1    
    17    8   89 1    
    18    8   90 1    
    19    9   10 ar   
    20    9   14 ar   
    21   10   11 ar   
    22   10   91 1    
    23   11   12 ar   
    24   11   58 1    
    25   12   13 ar   
    26   12   92 1    
    27   13   14 ar   
    28   13   15 1    
    29   14   93 1    
    30   15   16 1    
    31   15   94 1    
    32   15   95 1    
    33   16   17 1    
    34   17   18 1    
    35   17   96 1    
    36   17   97 1    
    37   18   19 1    
    38   18   22 1    
    39   18   98 1    
    40   19   20 am   BACKBONE|DICT|INTERRES
    41   19   21 2    
    42   20   99 1    
    43   20  100 1    
    44   22   23 am   BACKBONE|DICT|INTERRES
    45   22  101 1    
    46   23   24 2    
    47   23   25 1    
    48   25   26 1    
    49   25   27 1    
    50   25  102 1    
    51   26  103 1    
    52   26  104 1    
    53   26  105 1    
    54   27   28 am   BACKBONE|DICT|INTERRES
    55   27  106 1    
    56   28   29 2    
    57   28   30 1    
    58   30   31 1    
    59   30   32 1    
    60   30  107 1    
    61   31  108 1    
    62   31  109 1    
    63   31  110 1    
    64   32   33 am   BACKBONE|DICT|INTERRES
    65   32  111 1    
    66   33   34 2    
    67   33   35 1    
    68   35   36 1    
    69   35   37 1    
    70   35  112 1    
    71   36  113 1    
    72   36  114 1    
    73   36  115 1    
    74   37   38 am   BACKBONE|DICT|INTERRES
    75   37  116 1    
    76   38   39 2    
    77   38   40 1    
    78   40   41 1    
    79   40   42 1    
    80   40  117 1    
    81   41  118 1    
    82   41  119 1    
    83   41  120 1    
    84   42   43 am   BACKBONE|DICT|INTERRES
    85   42  121 1    
    86   43   44 2    
    87   43   45 1    
    88   45   46 1    
    89   45   47 1    
    90   45  122 1    
    91   46  123 1    
    92   46  124 1    
    93   46  125 1    
    94   47   48 am   BACKBONE|DICT|INTERRES
    95   47  126 1    
    96   48   49 2    
    97   48   50 1    
    98   50   51 1    
    99   50   52 1    
   100   50  127 1    
   101   51  128 1    
   102   51  129 1    
   103   51  130 1    
   104   52   53 am   BACKBONE|DICT|INTERRES
   105   52  131 1    
   106   53   54 2    
   107   53   55 1    
   108   55   56 1    
   109   55   59 1    
   110   55  132 1    
   111   56   57 1    
   112   56  133 1    
   113   56  134 1    
   114   57   58 1    
   115   58  135 1    
   116   58  136 1    
   117   59   60 am   BACKBONE|DICT|INTERRES
   118   59  137 1    
   119   60   61 2    
   120   60   62 1    
   121   62   63 1    
   122   62   64 1    
   123   62  138 1    
   124   63  139 1    
   125   63  140 1    
   126   63  141 1    
   127   64   65 am   BACKBONE|DICT|INTERRES
   128   64  142 1    
   129   65   66 2    
   130   65   67 1    
   131   67   68 1    
   132   67   69 1    
   133   67  143 1    
   134   68  144 1    
   135   68  145 1    
   136   68  146 1    
   137   69   70 am   BACKBONE|DICT|INTERRES
   138   69  147 1    
   139   70   71 2    
   140   70   72 1    
   141   72   73 1    
   142   72   74 1    
   143   72  148 1    
   144   73  149 1    
   145   73  150 1    
   146   73  151 1    
   147   74   75 am   BACKBONE|DICT|INTERRES
   148   74  152 1    
   149   75   76 2    
   150   75   77 1    
   151   77   78 1    
   152   77   79 1    
   153   77  153 1    
   154   78  154 1    
   155   78  155 1    
   156   78  156 1    
   157   79   80 am   BACKBONE|DICT|INTERRES
   158   79  157 1    
   159   80   81 2    
@<TRIPOS>SUBSTRUCTURE
     1 UNK         1 GROUP             0       ****    0 ROOT    
