@<TRIPOS>MOLECULE
3R207
157   159    1
SMALL
USER_CHARGES


@<TRIPOS>ATOM
      1 CA        -52.5415  -24.7828    4.5399 C.3       0 UNK        -0.1975 
      2 C         -51.6502  -25.7395    5.3177 C.2       0 UNK         0.4852 
      3 O         -51.0159  -25.3275    6.2891 O.2       0 UNK        -0.5216 
      4 N         -51.6069  -27.0133    4.9034 N.am      1 UNK        -0.4461 
      5 CA        -50.8010  -28.0731    5.5225 C.3       1 UNK         0.0864 
      6 C6        -51.1621  -29.4844    4.9882 C.3       14 UNK        -0.0898 
      7 S7        -52.9515  -29.8498    5.0335 S.3       14 UNK        -0.2598 
      8 C8        -53.1511  -30.6281    6.6733 C.3       14 UNK         0.0286 
      9 C9        -52.8569  -29.6773    7.8300 C.ar      14 UNK        -0.0844 
     10 C10       -53.4111  -28.3926    7.8597 C.ar      14 UNK        -0.0881 
     11 C11       -53.1214  -27.5039    8.8996 C.ar      14 UNK        -0.0643 
     12 C12       -52.3167  -27.9485    9.9573 C.ar      14 UNK        -0.0930 
     13 C13       -51.7500  -29.2248    9.9439 C.ar      14 UNK        -0.0827 
     14 C14       -52.0194  -30.0826    8.8731 C.ar      14 UNK        -0.1249 
     15 C15       -50.7964  -29.6567   11.0512 C.3       14 UNK         0.0141 
     16 S16       -51.4609  -31.0262   12.0500 S.3       14 UNK        -0.2313 
     17 C17       -52.2042  -30.1825   13.4861 C.3       14 UNK        -0.0915 
     18 CA        -53.7525  -30.2733   13.4796 C.3       13 UNK         0.0968 
     19 C         -54.3493  -30.2526   14.9157 C.2       13 UNK         0.5732 
     20 N         -54.2002  -31.3453   15.6544 N.am      13 UNK        -0.7310 
     21 O         -54.9409  -29.2767   15.3729 O.2       13 UNK        -0.5035 
     22 N         -54.3304  -29.2350   12.6204 N.am      13 UNK        -0.4233 
     23 C         -55.5253  -29.3214   12.0246 C.2       13 UNK         0.4989 
     24 O         -56.2385  -30.3265   12.0654 O.2       13 UNK        -0.4996 
     25 CA        -55.9904  -28.0823   11.2325 C.3       12 UNK         0.0216 
     26 CB        -57.5037  -28.0877   10.9264 C.3       12 UNK        -0.1964 
     27 N         -55.5804  -26.8138   11.8494 N.am      12 UNK        -0.4276 
     28 C         -55.9369  -26.3435   13.0530 C.2       12 UNK         0.5020 
     29 O         -56.7301  -26.8964   13.8175 O.2       12 UNK        -0.5489 
     30 CA        -55.3070  -25.0033   13.4643 C.3       11 UNK         0.0294 
     31 CB        -56.3886  -23.9386   13.7127 C.3       11 UNK        -0.2019 
     32 N         -54.4631  -25.1239   14.6518 N.am      11 UNK        -0.4493 
     33 C         -53.3520  -25.8669   14.7547 C.2       11 UNK         0.4932 
     34 O         -52.9218  -26.5981   13.8579 O.2       11 UNK        -0.5029 
     35 CA        -52.5890  -25.6900   16.0819 C.3       10 UNK         0.0280 
     36 CB        -53.4189  -26.1626   17.2965 C.3       10 UNK        -0.1976 
     37 N         -51.2444  -26.2786   16.0758 N.am      10 UNK        -0.4242 
     38 C         -50.8918  -27.5720   16.1497 C.2       10 UNK         0.5072 
     39 O         -51.6854  -28.5009   16.3005 O.2       10 UNK        -0.5224 
     40 CA        -49.3863  -27.8938   16.0838 C.3       9 UNK         0.0343 
     41 CB        -49.0963  -29.0700   15.1319 C.3       9 UNK        -0.2003 
     42 N         -48.5886  -26.7340   15.6717 N.am      9 UNK        -0.4272 
     43 C         -47.8278  -25.9978   16.4923 C.2       9 UNK         0.4988 
     44 O         -47.7064  -26.2203   17.6976 O.2       9 UNK        -0.5108 
     45 CA        -47.0679  -24.8093   15.8785 C.3       8 UNK         0.0248 
     46 CB        -45.7415  -25.2794   15.2601 C.3       8 UNK        -0.2001 
     47 N         -47.8208  -24.0375   14.8853 N.am      8 UNK        -0.4140 
     48 C         -48.9381  -23.3371   15.1325 C.2       8 UNK         0.5028 
     49 O         -49.5505  -23.3750   16.1994 O.2       8 UNK        -0.5428 
     50 CA        -49.4682  -22.4566   13.9910 C.3       7 UNK         0.0264 
     51 CB        -48.5212  -21.2788   13.7017 C.3       7 UNK        -0.1988 
     52 N         -49.6399  -23.2679   12.7883 N.am      7 UNK        -0.4454 
     53 C         -50.8135  -23.7811   12.3930 C.2       7 UNK         0.5027 
     54 O         -51.8920  -23.4294   12.8716 O.2       7 UNK        -0.5083 
     55 CA        -50.7916  -24.9046   11.3296 C.3       6 UNK         0.0844 
     56 C56       -51.5850  -24.5616   10.0383 C.3       14 UNK        -0.0967 
     57 S57       -53.3634  -24.9544   10.1999 S.3       14 UNK        -0.2604 
     58 C58       -53.6893  -26.0841    8.8006 C.3       14 UNK         0.0134 
     59 N         -49.4439  -25.3972   11.0251 N.am      6 UNK        -0.4116 
     60 C         -48.7366  -26.1961   11.8385 C.2       5 UNK         0.5034 
     61 O         -49.1531  -26.6054   12.9185 O.2       5 UNK        -0.5045 
     62 CA        -47.2987  -26.5494   11.4228 C.3       5 UNK         0.0224 
     63 CB        -47.2927  -27.8442   10.6004 C.3       5 UNK        -0.1978 
     64 N         -46.6279  -25.4806   10.6764 N.am      5 UNK        -0.4737 
     65 C         -46.4588  -24.2299   11.1325 C.2       4 UNK         0.5027 
     66 O         -46.7656  -23.8825   12.2732 O.2       4 UNK        -0.5211 
     67 CA        -45.9288  -23.1681   10.1541 C.3       4 UNK         0.0297 
     68 CB        -44.4452  -22.8831   10.4334 C.3       4 UNK        -0.1993 
     69 N         -46.0996  -23.5008    8.7363 N.am      4 UNK        -0.4486 
     70 C         -47.2538  -23.7821    8.1125 C.2       3 UNK         0.4961 
     71 O         -48.3518  -23.8053    8.6729 O.2       3 UNK        -0.5105 
     72 CA        -47.1583  -24.1356    6.6151 C.3       3 UNK         0.0299 
     73 CB        -45.8643  -23.6313    5.9371 C.3       3 UNK        -0.1972 
     74 N         -47.3249  -25.5698    6.3543 N.am      3 UNK        -0.4305 
     75 C         -46.7018  -26.6046    6.9400 C.2       2 UNK         0.5006 
     76 O         -45.9017  -26.4898    7.8710 O.2       2 UNK        -0.5106 
     77 CA        -47.0423  -28.0054    6.3862 C.3       2 UNK         0.0296 
     78 CB        -46.3721  -29.1526    7.1666 C.3       2 UNK        -0.2002 
     79 N         -48.4892  -28.2387    6.3326 N.am      2 UNK        -0.4032 
     80 C         -49.2934  -27.7999    5.3553 C.2       1 UNK         0.5000 
     81 O         -48.8810  -27.1926    4.3614 O.2       1 UNK        -0.5238 
     82 H82       -53.2933  -24.3513    5.2005 H         1 UNK         0.0889 
     83 H83       -53.0566  -25.2814    3.7190 H         1 UNK         0.0889 
     84 H84       -51.9455  -23.9707    4.1241 H         1 UNK         0.0889 
     85 H85       -52.1418  -27.2956    4.0951 H         1 UNK         0.3028 
     86 H86       -51.0092  -28.0437    6.5928 H         1 UNK         0.0864 
     87 H87       -50.8370  -29.5904    3.9510 H         1 UNK         0.0720 
     88 H88       -50.6315  -30.2556    5.5505 H         1 UNK         0.0720 
     89 H89       -52.5142  -31.5135    6.7231 H         1 UNK         0.0814 
     90 H90       -54.1786  -30.9831    6.7697 H         1 UNK         0.0814 
     91 H91       -54.0452  -28.0692    7.0451 H         1 UNK         0.1469 
     92 H92       -52.1073  -27.3073   10.7932 H         1 UNK         0.1381 
     93 H93       -51.5755  -31.0689    8.8579 H         1 UNK         0.1206 
     94 H94       -49.8651  -29.9910   10.5916 H         1 UNK         0.0813 
     95 H95       -50.5264  -28.8176   11.6941 H         1 UNK         0.0813 
     96 H96       -51.7855  -30.6690   14.3689 H         1 UNK         0.0638 
     97 H97       -51.8741  -29.1441   13.5408 H         1 UNK         0.0638 
     98 H98       -54.0317  -31.2427   13.0610 H         1 UNK         0.0568 
     99 H99       -53.7154  -32.1543   15.2987 H         1 UNK         0.3450 
    100 H100      -54.5723  -31.3541   16.5909 H         1 UNK         0.3450 
    101 H101      -53.8477  -28.3465   12.6265 H         1 UNK         0.2987 
    102 H102      -55.4723  -28.1375   10.2754 H         1 UNK         0.0766 
    103 H103      -57.7951  -27.2098   10.3496 H         1 UNK         0.0798 
    104 H104      -58.1018  -28.1052   11.8381 H         1 UNK         0.0798 
    105 H105      -57.7806  -28.9648   10.3404 H         1 UNK         0.0798 
    106 H106      -54.9071  -26.2727   11.3192 H         1 UNK         0.3198 
    107 H107      -54.6685  -24.6403   12.6597 H         1 UNK         0.0843 
    108 H108      -57.0370  -24.2072   14.5477 H         1 UNK         0.0831 
    109 H109      -57.0234  -23.8185   12.8338 H         1 UNK         0.0831 
    110 H110      -55.9475  -22.9650   13.9270 H         1 UNK         0.0831 
    111 H111      -54.7433  -24.5728   15.4493 H         1 UNK         0.3133 
    112 H112      -52.4185  -24.6183   16.1979 H         1 UNK         0.0566 
    113 H113      -52.8456  -26.0973   18.2211 H         1 UNK         0.0814 
    114 H114      -54.3115  -25.5509   17.4294 H         1 UNK         0.0814 
    115 H115      -53.7548  -27.1940   17.1804 H         1 UNK         0.0814 
    116 H116      -50.4936  -25.6112   15.9588 H         1 UNK         0.3091 
    117 H117      -49.0956  -28.2098   17.0874 H         1 UNK         0.0702 
    118 H118      -49.5819  -29.9825   15.4795 H         1 UNK         0.0785 
    119 H119      -48.0280  -29.2771   15.0701 H         1 UNK         0.0785 
    120 H120      -49.4593  -28.8761   14.1230 H         1 UNK         0.0785 
    121 H121      -48.6580  -26.4912   14.6848 H         1 UNK         0.2998 
    122 H122      -46.8293  -24.1252   16.6956 H         1 UNK         0.0697 
    123 H123      -45.9042  -25.9535   14.4196 H         1 UNK         0.0825 
    124 H124      -45.1355  -25.8130   15.9937 H         1 UNK         0.0825 
    125 H125      -45.1490  -24.4370   14.9022 H         1 UNK         0.0825 
    126 H126      -47.3910  -23.9537   13.9653 H         1 UNK         0.3029 
    127 H127      -50.4246  -22.0375   14.3119 H         1 UNK         0.0897 
    128 H128      -48.9243  -20.6341   12.9206 H         1 UNK         0.0792 
    129 H129      -47.5324  -21.6081   13.3822 H         1 UNK         0.0792 
    130 H130      -48.3861  -20.6627   14.5916 H         1 UNK         0.0792 
    131 H131      -48.7883  -23.6080   12.3568 H         1 UNK         0.3086 
    132 H132      -51.3015  -25.7214   11.8374 H         1 UNK         0.0583 
    133 H133      -51.4663  -23.5116    9.7642 H         1 UNK         0.1020 
    134 H134      -51.1929  -25.1263    9.1896 H         1 UNK         0.1020 
    135 H135      -54.7717  -26.1560    8.6817 H         1 UNK         0.0694 
    136 H136      -53.3157  -25.6159    7.8891 H         1 UNK         0.0694 
    137 H137      -49.0125  -25.0423   10.1766 H         1 UNK         0.2989 
    138 H138      -46.7255  -26.7224   12.3351 H         1 UNK         0.1055 
    139 H139      -47.7126  -28.6720   11.1737 H         1 UNK         0.0806 
    140 H140      -46.2787  -28.1281   10.3177 H         1 UNK         0.0806 
    141 H141      -47.8841  -27.7418    9.6899 H         1 UNK         0.0806 
    142 H142      -46.3430  -25.6932    9.7243 H         1 UNK         0.3061 
    143 H143      -46.4952  -22.2536   10.3417 H         1 UNK         0.0734 
    144 H144      -44.0761  -22.0572    9.8249 H         1 UNK         0.0832 
    145 H145      -44.2910  -22.6062   11.4777 H         1 UNK         0.0832 
    146 H146      -43.8222  -23.7558   10.2329 H         1 UNK         0.0832 
    147 H147      -45.2541  -23.5572    8.1874 H         1 UNK         0.3156 
    148 H148      -47.9999  -23.6358    6.1330 H         1 UNK         0.0589 
    149 H149      -44.9774  -24.1584    6.2910 H         1 UNK         0.0808 
    150 H150      -45.9138  -23.7706    4.8569 H         1 UNK         0.0808 
    151 H151      -45.7143  -22.5646    6.1112 H         1 UNK         0.0808 
    152 H152      -47.9864  -25.8015    5.6205 H         1 UNK         0.3098 
    153 H153      -46.6408  -28.0376    5.3706 H         1 UNK         0.0720 
    154 H154      -46.5325  -30.1102    6.6707 H         1 UNK         0.0791 
    155 H155      -46.7567  -29.2382    8.1817 H         1 UNK         0.0791 
    156 H156      -45.2932  -29.0056    7.2351 H         1 UNK         0.0791 
    157 H157      -48.8980  -28.7106    7.1270 H         1 UNK         0.3028 
@<TRIPOS>BOND
     1    1    2 1    
     2    1   82 1    
     3    1   83 1    
     4    1   84 1    
     5    2    3 2    
     6    2    4 am   BACKBONE|DICT|INTERRES
     7    4    5 1    
     8    4   85 1    
     9    5    6 1    
    10    5   80 1    
    11    5   86 1    
    12    6    7 1    
    13    6   87 1    
    14    6   88 1    
    15    7    8 1    
    16    8    9 1    
    17    8   89 1    
    18    8   90 1    
    19    9   10 ar   
    20    9   14 ar   
    21   10   11 ar   
    22   10   91 1    
    23   11   12 ar   
    24   11   58 1    
    25   12   13 ar   
    26   12   92 1    
    27   13   14 ar   
    28   13   15 1    
    29   14   93 1    
    30   15   16 1    
    31   15   94 1    
    32   15   95 1    
    33   16   17 1    
    34   17   18 1    
    35   17   96 1    
    36   17   97 1    
    37   18   19 1    
    38   18   22 1    
    39   18   98 1    
    40   19   20 am   BACKBONE|DICT|INTERRES
    41   19   21 2    
    42   20   99 1    
    43   20  100 1    
    44   22   23 am   BACKBONE|DICT|INTERRES
    45   22  101 1    
    46   23   24 2    
    47   23   25 1    
    48   25   26 1    
    49   25   27 1    
    50   25  102 1    
    51   26  103 1    
    52   26  104 1    
    53   26  105 1    
    54   27   28 am   BACKBONE|DICT|INTERRES
    55   27  106 1    
    56   28   29 2    
    57   28   30 1    
    58   30   31 1    
    59   30   32 1    
    60   30  107 1    
    61   31  108 1    
    62   31  109 1    
    63   31  110 1    
    64   32   33 am   BACKBONE|DICT|INTERRES
    65   32  111 1    
    66   33   34 2    
    67   33   35 1    
    68   35   36 1    
    69   35   37 1    
    70   35  112 1    
    71   36  113 1    
    72   36  114 1    
    73   36  115 1    
    74   37   38 am   BACKBONE|DICT|INTERRES
    75   37  116 1    
    76   38   39 2    
    77   38   40 1    
    78   40   41 1    
    79   40   42 1    
    80   40  117 1    
    81   41  118 1    
    82   41  119 1    
    83   41  120 1    
    84   42   43 am   BACKBONE|DICT|INTERRES
    85   42  121 1    
    86   43   44 2    
    87   43   45 1    
    88   45   46 1    
    89   45   47 1    
    90   45  122 1    
    91   46  123 1    
    92   46  124 1    
    93   46  125 1    
    94   47   48 am   BACKBONE|DICT|INTERRES
    95   47  126 1    
    96   48   49 2    
    97   48   50 1    
    98   50   51 1    
    99   50   52 1    
   100   50  127 1    
   101   51  128 1    
   102   51  129 1    
   103   51  130 1    
   104   52   53 am   BACKBONE|DICT|INTERRES
   105   52  131 1    
   106   53   54 2    
   107   53   55 1    
   108   55   56 1    
   109   55   59 1    
   110   55  132 1    
   111   56   57 1    
   112   56  133 1    
   113   56  134 1    
   114   57   58 1    
   115   58  135 1    
   116   58  136 1    
   117   59   60 am   BACKBONE|DICT|INTERRES
   118   59  137 1    
   119   60   61 2    
   120   60   62 1    
   121   62   63 1    
   122   62   64 1    
   123   62  138 1    
   124   63  139 1    
   125   63  140 1    
   126   63  141 1    
   127   64   65 am   BACKBONE|DICT|INTERRES
   128   64  142 1    
   129   65   66 2    
   130   65   67 1    
   131   67   68 1    
   132   67   69 1    
   133   67  143 1    
   134   68  144 1    
   135   68  145 1    
   136   68  146 1    
   137   69   70 am   BACKBONE|DICT|INTERRES
   138   69  147 1    
   139   70   71 2    
   140   70   72 1    
   141   72   73 1    
   142   72   74 1    
   143   72  148 1    
   144   73  149 1    
   145   73  150 1    
   146   73  151 1    
   147   74   75 am   BACKBONE|DICT|INTERRES
   148   74  152 1    
   149   75   76 2    
   150   75   77 1    
   151   77   78 1    
   152   77   79 1    
   153   77  153 1    
   154   78  154 1    
   155   78  155 1    
   156   78  156 1    
   157   79   80 am   BACKBONE|DICT|INTERRES
   158   79  157 1    
   159   80   81 2    
@<TRIPOS>SUBSTRUCTURE
     1 UNK         1 GROUP             0       ****    0 ROOT    
