@<TRIPOS>MOLECULE
3R207
157   159    1
SMALL
USER_CHARGES


@<TRIPOS>ATOM
      1 CA        -45.2814  -29.0714    4.1651 C.3       0 UNK        -0.1975 
      2 C         -46.7345  -28.6384    4.2887 C.2       0 UNK         0.4852 
      3 O         -47.0347  -27.4520    4.1503 O.2       0 UNK        -0.5216 
      4 N         -47.6424  -29.5887    4.5427 N.am      1 UNK        -0.4461 
      5 CA        -49.0677  -29.3380    4.7743 C.3       1 UNK         0.0864 
      6 C6        -49.9135  -30.6280    4.6156 C.3       14 UNK        -0.0898 
      7 S7        -49.3812  -32.0116    5.6854 S.3       14 UNK        -0.2598 
      8 C8        -50.9735  -32.6486    6.3031 C.3       14 UNK         0.0286 
      9 C9        -51.7232  -31.6530    7.1816 C.ar      14 UNK        -0.0844 
     10 C10       -51.1287  -31.1351    8.3356 C.ar      14 UNK        -0.0881 
     11 C11       -51.8279  -30.2559    9.1672 C.ar      14 UNK        -0.0643 
     12 C12       -53.1452  -29.9163    8.8408 C.ar      14 UNK        -0.0930 
     13 C13       -53.7543  -30.4088    7.6799 C.ar      14 UNK        -0.0827 
     14 C14       -53.0311  -31.2795    6.8587 C.ar      14 UNK        -0.1249 
     15 C15       -55.1932  -30.0593    7.2893 C.3       14 UNK         0.0141 
     16 S16       -55.8096  -28.4425    7.8827 S.3       14 UNK        -0.2313 
     17 C17       -56.3481  -28.8411    9.5810 C.3       14 UNK        -0.0915 
     18 CA        -55.8288  -27.8078   10.6205 C.3       13 UNK         0.0968 
     19 C         -56.8160  -26.6176   10.7808 C.2       13 UNK         0.5732 
     20 N         -56.6499  -25.5604    9.9977 N.am      13 UNK        -0.7310 
     21 O         -57.7543  -26.6663   11.5747 O.2       13 UNK        -0.5035 
     22 N         -55.5025  -28.4679   11.8928 N.am      13 UNK        -0.4233 
     23 C         -54.8828  -27.8827   12.9247 C.2       13 UNK         0.4989 
     24 O         -54.4846  -26.7155   12.9217 O.2       13 UNK        -0.4996 
     25 CA        -54.6259  -28.7809   14.1446 C.3       12 UNK         0.0216 
     26 CB        -53.3255  -29.5813   13.9583 C.3       12 UNK        -0.1964 
     27 N         -54.5150  -27.9704   15.3560 N.am      12 UNK        -0.4276 
     28 C         -55.5421  -27.6551   16.1581 C.2       12 UNK         0.5020 
     29 O         -56.6791  -28.1101   16.0219 O.2       12 UNK        -0.5489 
     30 CA        -55.2699  -26.6690   17.3126 C.3       11 UNK         0.0294 
     31 CB        -54.9951  -27.4319   18.6187 C.3       11 UNK        -0.2019 
     32 N         -54.1504  -25.7669   17.0387 N.am      11 UNK        -0.4493 
     33 C         -54.1639  -24.7951   16.1168 C.2       11 UNK         0.4932 
     34 O         -55.1865  -24.4271   15.5376 O.2       11 UNK        -0.5029 
     35 CA        -52.8227  -24.1200   15.7657 C.3       10 UNK         0.0280 
     36 CB        -52.8331  -22.6371   16.1730 C.3       10 UNK        -0.1976 
     37 N         -51.6129  -24.7479   16.3134 N.am      10 UNK        -0.4242 
     38 C         -51.1705  -25.9916   16.0794 C.2       10 UNK         0.5072 
     39 O         -51.8316  -26.8567   15.5028 O.2       10 UNK        -0.5224 
     40 CA        -49.7490  -26.3074   16.5851 C.3       9 UNK         0.0343 
     41 CB        -49.3554  -27.7792   16.3626 C.3       9 UNK        -0.2003 
     42 N         -48.7636  -25.4276   15.9438 N.am      9 UNK        -0.4272 
     43 C         -48.5089  -24.1684   16.3330 C.2       9 UNK         0.4988 
     44 O         -49.0427  -23.6651   17.3241 O.2       9 UNK        -0.5108 
     45 CA        -47.5777  -23.2808   15.4828 C.3       8 UNK         0.0248 
     46 CB        -46.4647  -22.6320   16.3325 C.3       8 UNK        -0.2001 
     47 N         -47.0378  -23.9037   14.2702 N.am      8 UNK        -0.4140 
     48 C         -46.1216  -24.8747   14.1616 C.2       8 UNK         0.5028 
     49 O         -45.5550  -25.4029   15.1202 O.2       8 UNK        -0.5428 
     50 CA        -45.8349  -25.3567   12.7228 C.3       7 UNK         0.0264 
     51 CB        -44.8314  -26.5278   12.6674 C.3       7 UNK        -0.1988 
     52 N         -47.0627  -25.7000   11.9894 N.am      7 UNK        -0.4454 
     53 C         -48.0174  -26.5552   12.3901 C.2       7 UNK         0.5027 
     54 O         -47.9454  -27.2126   13.4285 O.2       7 UNK        -0.5083 
     55 CA        -49.2737  -26.6622   11.4976 C.3       6 UNK         0.0844 
     56 C56       -50.3494  -27.6127   12.0931 C.3       14 UNK        -0.0967 
     57 S57       -51.6374  -28.0157   10.8715 S.3       14 UNK        -0.2604 
     58 C58       -51.1467  -29.7162   10.4231 C.3       14 UNK         0.0134 
     59 N         -49.8047  -25.3341   11.1636 N.am      6 UNK        -0.4116 
     60 C         -50.2274  -24.4011   12.0288 C.2       5 UNK         0.5034 
     61 O         -50.2569  -24.5490   13.2496 O.2       5 UNK        -0.5045 
     62 CA        -50.6194  -23.0463   11.4108 C.3       5 UNK         0.0224 
     63 CB        -51.0558  -22.0067   12.4665 C.3       5 UNK        -0.1978 
     64 N         -49.5465  -22.5093   10.5619 N.am      5 UNK        -0.4737 
     65 C         -48.2790  -22.2537   10.9249 C.2       4 UNK         0.5027 
     66 O         -47.8548  -22.3734   12.0742 O.2       4 UNK        -0.5211 
     67 CA        -47.3173  -21.8340    9.7948 C.3       4 UNK         0.0297 
     68 CB        -45.8322  -21.9022   10.2104 C.3       4 UNK        -0.1993 
     69 N         -47.5386  -22.5841    8.5513 N.am      4 UNK        -0.4486 
     70 C         -47.5074  -23.9159    8.3947 C.2       3 UNK         0.4961 
     71 O         -47.2324  -24.7210    9.2885 O.2       3 UNK        -0.5105 
     72 CA        -47.8520  -24.4230    6.9842 C.3       3 UNK         0.0299 
     73 CB        -46.5646  -24.7422    6.2090 C.3       3 UNK        -0.1972 
     74 N         -48.7298  -25.5982    6.9706 N.am      3 UNK        -0.4305 
     75 C         -49.9080  -25.7215    7.6023 C.2       2 UNK         0.5006 
     76 O         -50.3770  -24.8478    8.3356 O.2       2 UNK        -0.5106 
     77 CA        -50.7201  -27.0154    7.3750 C.3       2 UNK         0.0296 
     78 CB        -52.2301  -26.7242    7.2913 C.3       2 UNK        -0.2002 
     79 N         -50.3224  -27.7739    6.1847 N.am      2 UNK        -0.4032 
     80 C         -49.2985  -28.6352    6.1308 C.2       1 UNK         0.5000 
     81 O         -48.5476  -28.8607    7.0841 O.2       1 UNK        -0.5238 
     82 H82       -45.1635  -30.1462    4.3024 H         1 UNK         0.0889 
     83 H83       -44.6752  -28.5648    4.9155 H         1 UNK         0.0889 
     84 H84       -44.8946  -28.8103    3.1805 H         1 UNK         0.0889 
     85 H85       -47.3463  -30.5434    4.6891 H         1 UNK         0.3028 
     86 H86       -49.3962  -28.6461    3.9952 H         1 UNK         0.0864 
     87 H87       -49.8534  -30.9731    3.5823 H         1 UNK         0.0720 
     88 H88       -50.9691  -30.4089    4.7846 H         1 UNK         0.0720 
     89 H89       -50.7863  -33.5531    6.8832 H         1 UNK         0.0814 
     90 H90       -51.5827  -32.9543    5.4511 H         1 UNK         0.0814 
     91 H91       -50.1153  -31.4202    8.5842 H         1 UNK         0.1469 
     92 H92       -53.6873  -29.2569    9.4971 H         1 UNK         0.1381 
     93 H93       -53.4965  -31.6820    5.9691 H         1 UNK         0.1206 
     94 H94       -55.2713  -30.0481    6.2011 H         1 UNK         0.0813 
     95 H95       -55.8597  -30.8524    7.6305 H         1 UNK         0.0813 
     96 H96       -55.9812  -29.8399    9.8224 H         1 UNK         0.0638 
     97 H97       -57.4365  -28.9255    9.5998 H         1 UNK         0.0638 
     98 H98       -54.8823  -27.3961   10.2634 H         1 UNK         0.0568 
     99 H99       -55.9038  -25.5295    9.3210 H         1 UNK         0.3450 
    100 H100      -57.2904  -24.7864   10.0758 H         1 UNK         0.3450 
    101 H101      -55.8147  -29.4221   11.9895 H         1 UNK         0.2987 
    102 H102      -55.4541  -29.4855   14.2469 H         1 UNK         0.0766 
    103 H103      -52.4630  -28.9247   13.8396 H         1 UNK         0.0798 
    104 H104      -53.1341  -30.2318   14.8117 H         1 UNK         0.0798 
    105 H105      -53.3756  -30.2138   13.0711 H         1 UNK         0.0798 
    106 H106      -53.6208  -27.5002   15.4867 H         1 UNK         0.3198 
    107 H107      -56.1697  -26.0650   17.4496 H         1 UNK         0.0843 
    108 H108      -55.8268  -28.0938   18.8644 H         1 UNK         0.0831 
    109 H109      -54.8677  -26.7493   19.4591 H         1 UNK         0.0831 
    110 H110      -54.0988  -28.0493   18.5458 H         1 UNK         0.0831 
    111 H111      -53.2636  -25.9973   17.4621 H         1 UNK         0.3133 
    112 H112      -52.7333  -24.1704   14.6787 H         1 UNK         0.0566 
    113 H113      -53.6902  -22.1166   15.7432 H         1 UNK         0.0814 
    114 H114      -51.9378  -22.1233   15.8218 H         1 UNK         0.0814 
    115 H115      -52.8877  -22.5182   17.2558 H         1 UNK         0.0814 
    116 H116      -50.9714  -24.1317   16.8014 H         1 UNK         0.3091 
    117 H117      -49.7371  -26.1302   17.6625 H         1 UNK         0.0702 
    118 H118      -49.4491  -28.0716   15.3170 H         1 UNK         0.0785 
    119 H119      -50.0011  -28.4429   16.9389 H         1 UNK         0.0785 
    120 H120      -48.3286  -27.9701   16.6748 H         1 UNK         0.0785 
    121 H121      -48.3462  -25.7713   15.0866 H         1 UNK         0.2998 
    122 H122      -48.2126  -22.4731   15.1154 H         1 UNK         0.0697 
    123 H123      -45.8176  -23.3779   16.7944 H         1 UNK         0.0825 
    124 H124      -46.8886  -22.0317   17.1385 H         1 UNK         0.0825 
    125 H125      -45.8413  -21.9699   15.7317 H         1 UNK         0.0825 
    126 H126      -47.4252  -23.5233   13.4058 H         1 UNK         0.3029 
    127 H127      -45.3851  -24.5113   12.2013 H         1 UNK         0.0897 
    128 H128      -44.6168  -26.8167   11.6386 H         1 UNK         0.0792 
    129 H129      -43.8837  -26.2517   13.1312 H         1 UNK         0.0792 
    130 H130      -45.2061  -27.4074   13.1921 H         1 UNK         0.0792 
    131 H131      -47.1940  -25.2251   11.0967 H         1 UNK         0.3086 
    132 H132      -48.9263  -27.0954   10.5581 H         1 UNK         0.0583 
    133 H133      -49.9030  -28.5431   12.4487 H         1 UNK         0.1020 
    134 H134      -50.8236  -27.1621   12.9668 H         1 UNK         0.1020 
    135 H135      -50.0646  -29.7315   10.2816 H         1 UNK         0.0694 
    136 H136      -51.3660  -30.3821   11.2585 H         1 UNK         0.0694 
    137 H137      -49.8253  -25.1034   10.1745 H         1 UNK         0.2989 
    138 H138      -51.4736  -23.2405   10.7595 H         1 UNK         0.1055 
    139 H139      -51.9139  -22.3676   13.0347 H         1 UNK         0.0806 
    140 H140      -51.3479  -21.0658   12.0006 H         1 UNK         0.0806 
    141 H141      -50.2608  -21.7947   13.1824 H         1 UNK         0.0806 
    142 H142      -49.7734  -22.4278    9.5797 H         1 UNK         0.3061 
    143 H143      -47.5499  -20.7907    9.5762 H         1 UNK         0.0734 
    144 H144      -45.6414  -21.2903   11.0930 H         1 UNK         0.0832 
    145 H145      -45.5236  -22.9201   10.4457 H         1 UNK         0.0832 
    146 H146      -45.1829  -21.5330    9.4168 H         1 UNK         0.0832 
    147 H147      -47.7775  -22.0211    7.7459 H         1 UNK         0.3156 
    148 H148      -48.3826  -23.6307    6.4526 H         1 UNK         0.0589 
    149 H149      -46.0386  -25.5966    6.6373 H         1 UNK         0.0808 
    150 H150      -46.7767  -24.9670    5.1638 H         1 UNK         0.0808 
    151 H151      -45.8763  -23.8957    6.2206 H         1 UNK         0.0808 
    152 H152      -48.4039  -26.3864    6.4297 H         1 UNK         0.3098 
    153 H153      -50.5498  -27.6459    8.2479 H         1 UNK         0.0720 
    154 H154      -52.8013  -27.6345    7.1116 H         1 UNK         0.0791 
    155 H155      -52.4626  -26.0191    6.4927 H         1 UNK         0.0791 
    156 H156      -52.5992  -26.2974    8.2249 H         1 UNK         0.0791 
    157 H157      -50.8776  -27.6209    5.3548 H         1 UNK         0.3028 
@<TRIPOS>BOND
     1    1    2 1    
     2    1   82 1    
     3    1   83 1    
     4    1   84 1    
     5    2    3 2    
     6    2    4 am   BACKBONE|DICT|INTERRES
     7    4    5 1    
     8    4   85 1    
     9    5    6 1    
    10    5   80 1    
    11    5   86 1    
    12    6    7 1    
    13    6   87 1    
    14    6   88 1    
    15    7    8 1    
    16    8    9 1    
    17    8   89 1    
    18    8   90 1    
    19    9   10 ar   
    20    9   14 ar   
    21   10   11 ar   
    22   10   91 1    
    23   11   12 ar   
    24   11   58 1    
    25   12   13 ar   
    26   12   92 1    
    27   13   14 ar   
    28   13   15 1    
    29   14   93 1    
    30   15   16 1    
    31   15   94 1    
    32   15   95 1    
    33   16   17 1    
    34   17   18 1    
    35   17   96 1    
    36   17   97 1    
    37   18   19 1    
    38   18   22 1    
    39   18   98 1    
    40   19   20 am   BACKBONE|DICT|INTERRES
    41   19   21 2    
    42   20   99 1    
    43   20  100 1    
    44   22   23 am   BACKBONE|DICT|INTERRES
    45   22  101 1    
    46   23   24 2    
    47   23   25 1    
    48   25   26 1    
    49   25   27 1    
    50   25  102 1    
    51   26  103 1    
    52   26  104 1    
    53   26  105 1    
    54   27   28 am   BACKBONE|DICT|INTERRES
    55   27  106 1    
    56   28   29 2    
    57   28   30 1    
    58   30   31 1    
    59   30   32 1    
    60   30  107 1    
    61   31  108 1    
    62   31  109 1    
    63   31  110 1    
    64   32   33 am   BACKBONE|DICT|INTERRES
    65   32  111 1    
    66   33   34 2    
    67   33   35 1    
    68   35   36 1    
    69   35   37 1    
    70   35  112 1    
    71   36  113 1    
    72   36  114 1    
    73   36  115 1    
    74   37   38 am   BACKBONE|DICT|INTERRES
    75   37  116 1    
    76   38   39 2    
    77   38   40 1    
    78   40   41 1    
    79   40   42 1    
    80   40  117 1    
    81   41  118 1    
    82   41  119 1    
    83   41  120 1    
    84   42   43 am   BACKBONE|DICT|INTERRES
    85   42  121 1    
    86   43   44 2    
    87   43   45 1    
    88   45   46 1    
    89   45   47 1    
    90   45  122 1    
    91   46  123 1    
    92   46  124 1    
    93   46  125 1    
    94   47   48 am   BACKBONE|DICT|INTERRES
    95   47  126 1    
    96   48   49 2    
    97   48   50 1    
    98   50   51 1    
    99   50   52 1    
   100   50  127 1    
   101   51  128 1    
   102   51  129 1    
   103   51  130 1    
   104   52   53 am   BACKBONE|DICT|INTERRES
   105   52  131 1    
   106   53   54 2    
   107   53   55 1    
   108   55   56 1    
   109   55   59 1    
   110   55  132 1    
   111   56   57 1    
   112   56  133 1    
   113   56  134 1    
   114   57   58 1    
   115   58  135 1    
   116   58  136 1    
   117   59   60 am   BACKBONE|DICT|INTERRES
   118   59  137 1    
   119   60   61 2    
   120   60   62 1    
   121   62   63 1    
   122   62   64 1    
   123   62  138 1    
   124   63  139 1    
   125   63  140 1    
   126   63  141 1    
   127   64   65 am   BACKBONE|DICT|INTERRES
   128   64  142 1    
   129   65   66 2    
   130   65   67 1    
   131   67   68 1    
   132   67   69 1    
   133   67  143 1    
   134   68  144 1    
   135   68  145 1    
   136   68  146 1    
   137   69   70 am   BACKBONE|DICT|INTERRES
   138   69  147 1    
   139   70   71 2    
   140   70   72 1    
   141   72   73 1    
   142   72   74 1    
   143   72  148 1    
   144   73  149 1    
   145   73  150 1    
   146   73  151 1    
   147   74   75 am   BACKBONE|DICT|INTERRES
   148   74  152 1    
   149   75   76 2    
   150   75   77 1    
   151   77   78 1    
   152   77   79 1    
   153   77  153 1    
   154   78  154 1    
   155   78  155 1    
   156   78  156 1    
   157   79   80 am   BACKBONE|DICT|INTERRES
   158   79  157 1    
   159   80   81 2    
@<TRIPOS>SUBSTRUCTURE
     1 UNK         1 GROUP             0       ****    0 ROOT    
