@<TRIPOS>MOLECULE
3R207
157   159    1
SMALL
USER_CHARGES


@<TRIPOS>ATOM
      1 CA        -47.9752  -33.1370    5.3432 C.3       0 UNK        -0.1975 
      2 C         -47.3257  -31.9195    4.7024 C.2       0 UNK         0.4852 
      3 O         -46.2320  -32.0295    4.1476 O.2       0 UNK        -0.5216 
      4 N         -47.9894  -30.7576    4.7786 N.am      1 UNK        -0.4461 
      5 CA        -47.5154  -29.4808    4.2262 C.3       1 UNK         0.0864 
      6 C6        -48.6847  -28.4879    4.0036 C.3       14 UNK        -0.0898 
      7 S7        -49.5277  -27.9604    5.5370 S.3       14 UNK        -0.2598 
      8 C8        -51.1068  -28.8527    5.4228 C.3       14 UNK         0.0286 
      9 C9        -52.0462  -28.4302    6.5407 C.ar      14 UNK        -0.0844 
     10 C10       -52.9985  -27.4322    6.3143 C.ar      14 UNK        -0.0881 
     11 C11       -53.8723  -27.0399    7.3320 C.ar      14 UNK        -0.0643 
     12 C12       -53.7927  -27.6588    8.5825 C.ar      14 UNK        -0.0930 
     13 C13       -52.8292  -28.6422    8.8281 C.ar      14 UNK        -0.0827 
     14 C14       -51.9636  -29.0310    7.8010 C.ar      14 UNK        -0.1249 
     15 C15       -52.7324  -29.2756   10.2069 C.3       14 UNK         0.0141 
     16 S16       -52.0668  -28.0911   11.4171 S.3       14 UNK        -0.2313 
     17 C17       -52.5033  -28.8931   12.9969 C.3       14 UNK        -0.0915 
     18 CA        -54.0150  -28.8162   13.3488 C.3       13 UNK         0.0968 
     19 C         -54.3050  -29.4559   14.7388 C.2       13 UNK         0.5732 
     20 N         -54.8632  -28.7422   15.7109 N.am      13 UNK        -0.7310 
     21 O         -54.0284  -30.6367   14.9347 O.2       13 UNK        -0.5035 
     22 N         -54.5433  -27.4568   13.1883 N.am      13 UNK        -0.4233 
     23 C         -55.8296  -27.1410   12.9978 C.2       13 UNK         0.4989 
     24 O         -56.7228  -27.9730   12.8305 O.2       13 UNK        -0.4996 
     25 CA        -56.1653  -25.6356   13.0071 C.3       12 UNK         0.0216 
     26 CB        -57.6333  -25.3503   13.3900 C.3       12 UNK        -0.1964 
     27 N         -55.2405  -24.8493   13.8384 N.am      12 UNK        -0.4276 
     28 C         -55.0225  -24.9957   15.1534 C.2       12 UNK         0.5020 
     29 O         -55.6259  -25.8029   15.8659 O.2       12 UNK        -0.5489 
     30 CA        -53.9353  -24.1005   15.7706 C.3       11 UNK         0.0294 
     31 CB        -54.5265  -22.7445   16.1874 C.3       11 UNK        -0.2019 
     32 N         -53.3249  -24.7384   16.9395 N.am      11 UNK        -0.4493 
     33 C         -52.5004  -25.7908   16.8863 C.2       11 UNK         0.4932 
     34 O         -52.0561  -26.2703   15.8363 O.2       11 UNK        -0.5029 
     35 CA        -52.1125  -26.4131   18.2348 C.3       10 UNK         0.0280 
     36 CB        -53.2797  -27.2073   18.8465 C.3       10 UNK        -0.1976 
     37 N         -50.9840  -27.3045   18.0077 N.am      10 UNK        -0.4242 
     38 C         -49.9611  -27.5347   18.8372 C.2       10 UNK         0.5072 
     39 O         -49.9038  -27.1161   19.9943 O.2       10 UNK        -0.5224 
     40 CA        -48.7873  -28.3590   18.2676 C.3       9 UNK         0.0343 
     41 CB        -48.9002  -29.8291   18.7030 C.3       9 UNK        -0.2003 
     42 N         -48.6925  -28.2944   16.8026 N.am      9 UNK        -0.4272 
     43 C         -48.4028  -27.1846   16.1074 C.2       9 UNK         0.4988 
     44 O         -48.0776  -26.1182   16.6313 O.2       9 UNK        -0.5108 
     45 CA        -48.5493  -27.2431   14.5823 C.3       8 UNK         0.0248 
     46 CB        -48.7900  -28.6531   14.0006 C.3       8 UNK        -0.2001 
     47 N         -49.6555  -26.3606   14.2232 N.am      8 UNK        -0.4140 
     48 C         -49.6926  -25.5816   13.1420 C.2       8 UNK         0.5028 
     49 O         -48.8103  -25.5445   12.2810 O.2       8 UNK        -0.5428 
     50 CA        -50.9159  -24.6733   13.0053 C.3       7 UNK         0.0264 
     51 CB        -50.6688  -23.3041   13.6606 C.3       7 UNK        -0.1988 
     52 N         -51.2054  -24.5065   11.5876 N.am      7 UNK        -0.4454 
     53 C         -52.4267  -24.3347   11.0723 C.2       7 UNK         0.5027 
     54 O         -53.4312  -24.1581   11.7654 O.2       7 UNK        -0.5083 
     55 CA        -52.5388  -24.3969    9.5332 C.3       6 UNK         0.0844 
     56 C56       -53.9786  -24.1028    9.0248 C.3       14 UNK        -0.0967 
     57 S57       -54.1562  -24.2869    7.2164 S.3       14 UNK        -0.2604 
     58 C58       -54.8966  -25.9450    7.0753 C.3       14 UNK         0.0134 
     59 N         -51.4911  -23.6047    8.8785 N.am      6 UNK        -0.4116 
     60 C         -51.3602  -22.2712    8.9033 C.2       5 UNK         0.5034 
     61 O         -52.1365  -21.5044    9.4764 O.2       5 UNK        -0.5045 
     62 CA        -50.1211  -21.7235    8.1684 C.3       5 UNK         0.0224 
     63 CB        -50.0389  -20.1813    8.1785 C.3       5 UNK        -0.1978 
     64 N         -48.8793  -22.3220    8.6799 N.am      5 UNK        -0.4737 
     65 C         -48.4019  -22.2499    9.9314 C.2       4 UNK         0.5027 
     66 O         -48.9361  -21.6152   10.8410 O.2       4 UNK        -0.5211 
     67 CA        -47.1286  -23.0648   10.2103 C.3       4 UNK         0.0297 
     68 CB        -46.5173  -22.7541   11.5894 C.3       4 UNK        -0.1993 
     69 N         -47.4233  -24.4945   10.1420 N.am      4 UNK        -0.4486 
     70 C         -47.4488  -25.2338    9.0302 C.2       3 UNK         0.4961 
     71 O         -47.2443  -24.7816    7.9008 O.2       3 UNK        -0.5105 
     72 CA        -47.8170  -26.7144    9.2171 C.3       3 UNK         0.0299 
     73 CB        -49.3327  -26.9204    9.0685 C.3       3 UNK        -0.1972 
     74 N         -47.1114  -27.5744    8.2650 N.am      3 UNK        -0.4305 
     75 C         -45.7972  -27.8426    8.3170 C.2       2 UNK         0.5006 
     76 O         -45.0500  -27.3952    9.1890 O.2       2 UNK        -0.5106 
     77 CA        -45.2041  -28.7858    7.2521 C.3       2 UNK         0.0296 
     78 CB        -44.5318  -30.0015    7.9162 C.3       2 UNK        -0.2002 
     79 N         -46.2083  -29.2750    6.3052 N.am      2 UNK        -0.4032 
     80 C         -46.3687  -28.8432    5.0463 C.2       1 UNK         0.5000 
     81 O         -45.6655  -27.9755    4.5248 O.2       1 UNK        -0.5238 
     82 H82       -48.9356  -32.8961    5.7987 H         1 UNK         0.0889 
     83 H83       -47.3256  -33.5450    6.1171 H         1 UNK         0.0889 
     84 H84       -48.1405  -33.9110    4.5942 H         1 UNK         0.0889 
     85 H85       -48.8852  -30.7257    5.2428 H         1 UNK         0.3028 
     86 H86       -47.0917  -29.6942    3.2421 H         1 UNK         0.0864 
     87 H87       -49.4128  -28.9265    3.3195 H         1 UNK         0.0720 
     88 H88       -48.3216  -27.5912    3.4975 H         1 UNK         0.0720 
     89 H89       -51.5670  -28.6575    4.4527 H         1 UNK         0.0814 
     90 H90       -50.9304  -29.9278    5.4707 H         1 UNK         0.0814 
     91 H91       -53.0566  -26.9527    5.3465 H         1 UNK         0.1469 
     92 H92       -54.4629  -27.3591    9.3765 H         1 UNK         0.1381 
     93 H93       -51.2180  -29.7928    7.9833 H         1 UNK         0.1206 
     94 H94       -53.7259  -29.6068   10.5085 H         1 UNK         0.0813 
     95 H95       -52.0997  -30.1641   10.1883 H         1 UNK         0.0813 
     96 H96       -52.1642  -29.9301   12.9649 H         1 UNK         0.0638 
     97 H97       -51.9194  -28.4030   13.7775 H         1 UNK         0.0638 
     98 H98       -54.5462  -29.4485   12.6366 H         1 UNK         0.0568 
     99 H99       -55.0554  -29.1905   16.5914 H         1 UNK         0.3450 
    100 H100      -55.1062  -27.7664   15.5813 H         1 UNK         0.3450 
    101 H101      -53.8777  -26.7101   13.3146 H         1 UNK         0.2987 
    102 H102      -56.0195  -25.2909   11.9823 H         1 UNK         0.0766 
    103 H103      -58.3203  -25.8191   12.6845 H         1 UNK         0.0798 
    104 H104      -57.8441  -24.2810   13.3830 H         1 UNK         0.0798 
    105 H105      -57.8756  -25.7338   14.3817 H         1 UNK         0.0798 
    106 H106      -54.6388  -24.2237   13.3064 H         1 UNK         0.3198 
    107 H107      -53.1582  -23.9273   15.0252 H         1 UNK         0.0843 
    108 H108      -55.3161  -22.8595   16.9313 H         1 UNK         0.0831 
    109 H109      -54.9602  -22.2268   15.3307 H         1 UNK         0.0831 
    110 H110      -53.7621  -22.0893   16.6057 H         1 UNK         0.0831 
    111 H111      -53.6671  -24.4397   17.8412 H         1 UNK         0.3133 
    112 H112      -51.8169  -25.6077   18.9104 H         1 UNK         0.0566 
    113 H113      -53.5885  -28.0278   18.1985 H         1 UNK         0.0814 
    114 H114      -54.1517  -26.5725   19.0079 H         1 UNK         0.0814 
    115 H115      -53.0050  -27.6312   19.8125 H         1 UNK         0.0814 
    116 H116      -50.9283  -27.6520   17.0598 H         1 UNK         0.3091 
    117 H117      -47.8656  -27.9471   18.6840 H         1 UNK         0.0702 
    118 H118      -48.0389  -30.4092   18.3709 H         1 UNK         0.0785 
    119 H119      -49.7992  -30.3013   18.3047 H         1 UNK         0.0785 
    120 H120      -48.9437  -29.9110   19.7900 H         1 UNK         0.0785 
    121 H121      -48.9318  -29.1335   16.2941 H         1 UNK         0.2998 
    122 H122      -47.6171  -26.8537   14.1671 H         1 UNK         0.0697 
    123 H123      -49.7108  -29.1039   14.3705 H         1 UNK         0.0825 
    124 H124      -47.9650  -29.3250   14.2407 H         1 UNK         0.0825 
    125 H125      -48.8620  -28.6153   12.9130 H         1 UNK         0.0825 
    126 H126      -50.4239  -26.3048   14.8888 H         1 UNK         0.3029 
    127 H127      -51.7632  -25.1661   13.4849 H         1 UNK         0.0897 
    128 H128      -49.8060  -22.8010   13.2220 H         1 UNK         0.0792 
    129 H129      -50.4793  -23.4112   14.7294 H         1 UNK         0.0792 
    130 H130      -51.5301  -22.6460   13.5456 H         1 UNK         0.0792 
    131 H131      -50.4112  -24.6600   10.9819 H         1 UNK         0.3086 
    132 H132      -52.3116  -25.4318    9.2775 H         1 UNK         0.0583 
    133 H133      -54.6982  -24.7582    9.5181 H         1 UNK         0.1020 
    134 H134      -54.2773  -23.0881    9.2931 H         1 UNK         0.1020 
    135 H135      -55.7437  -26.0349    7.7571 H         1 UNK         0.0694 
    136 H136      -55.3051  -26.0607    6.0702 H         1 UNK         0.0694 
    137 H137      -50.8048  -24.1349    8.3629 H         1 UNK         0.2989 
    138 H138      -50.2172  -22.0366    7.1271 H         1 UNK         0.1055 
    139 H139      -49.9781  -19.7810    9.1910 H         1 UNK         0.0806 
    140 H140      -50.9212  -19.7426    7.7108 H         1 UNK         0.0806 
    141 H141      -49.1692  -19.8268    7.6253 H         1 UNK         0.0806 
    142 H142      -48.3682  -22.9133    8.0321 H         1 UNK         0.3061 
    143 H143      -46.3896  -22.8059    9.4489 H         1 UNK         0.0734 
    144 H144      -47.1982  -23.0143   12.4013 H         1 UNK         0.0832 
    145 H145      -45.5888  -23.3038   11.7436 H         1 UNK         0.0832 
    146 H146      -46.2855  -21.6924   11.6839 H         1 UNK         0.0832 
    147 H147      -47.7361  -24.9290   11.0126 H         1 UNK         0.3156 
    148 H148      -47.5294  -27.0244   10.2245 H         1 UNK         0.0589 
    149 H149      -49.6005  -27.9732    9.1561 H         1 UNK         0.0808 
    150 H150      -49.8761  -26.3926    9.8505 H         1 UNK         0.0808 
    151 H151      -49.7047  -26.5562    8.1107 H         1 UNK         0.0808 
    152 H152      -47.6484  -27.9159    7.4813 H         1 UNK         0.3098 
    153 H153      -44.4330  -28.2218    6.7233 H         1 UNK         0.0720 
    154 H154      -44.0838  -30.6609    7.1723 H         1 UNK         0.0791 
    155 H155      -45.2424  -30.5880    8.4999 H         1 UNK         0.0791 
    156 H156      -43.7334  -29.6901    8.5911 H         1 UNK         0.0791 
    157 H157      -46.8323  -29.9949    6.6399 H         1 UNK         0.3028 
@<TRIPOS>BOND
     1    1    2 1    
     2    1   82 1    
     3    1   83 1    
     4    1   84 1    
     5    2    3 2    
     6    2    4 am   BACKBONE|DICT|INTERRES
     7    4    5 1    
     8    4   85 1    
     9    5    6 1    
    10    5   80 1    
    11    5   86 1    
    12    6    7 1    
    13    6   87 1    
    14    6   88 1    
    15    7    8 1    
    16    8    9 1    
    17    8   89 1    
    18    8   90 1    
    19    9   10 ar   
    20    9   14 ar   
    21   10   11 ar   
    22   10   91 1    
    23   11   12 ar   
    24   11   58 1    
    25   12   13 ar   
    26   12   92 1    
    27   13   14 ar   
    28   13   15 1    
    29   14   93 1    
    30   15   16 1    
    31   15   94 1    
    32   15   95 1    
    33   16   17 1    
    34   17   18 1    
    35   17   96 1    
    36   17   97 1    
    37   18   19 1    
    38   18   22 1    
    39   18   98 1    
    40   19   20 am   BACKBONE|DICT|INTERRES
    41   19   21 2    
    42   20   99 1    
    43   20  100 1    
    44   22   23 am   BACKBONE|DICT|INTERRES
    45   22  101 1    
    46   23   24 2    
    47   23   25 1    
    48   25   26 1    
    49   25   27 1    
    50   25  102 1    
    51   26  103 1    
    52   26  104 1    
    53   26  105 1    
    54   27   28 am   BACKBONE|DICT|INTERRES
    55   27  106 1    
    56   28   29 2    
    57   28   30 1    
    58   30   31 1    
    59   30   32 1    
    60   30  107 1    
    61   31  108 1    
    62   31  109 1    
    63   31  110 1    
    64   32   33 am   BACKBONE|DICT|INTERRES
    65   32  111 1    
    66   33   34 2    
    67   33   35 1    
    68   35   36 1    
    69   35   37 1    
    70   35  112 1    
    71   36  113 1    
    72   36  114 1    
    73   36  115 1    
    74   37   38 am   BACKBONE|DICT|INTERRES
    75   37  116 1    
    76   38   39 2    
    77   38   40 1    
    78   40   41 1    
    79   40   42 1    
    80   40  117 1    
    81   41  118 1    
    82   41  119 1    
    83   41  120 1    
    84   42   43 am   BACKBONE|DICT|INTERRES
    85   42  121 1    
    86   43   44 2    
    87   43   45 1    
    88   45   46 1    
    89   45   47 1    
    90   45  122 1    
    91   46  123 1    
    92   46  124 1    
    93   46  125 1    
    94   47   48 am   BACKBONE|DICT|INTERRES
    95   47  126 1    
    96   48   49 2    
    97   48   50 1    
    98   50   51 1    
    99   50   52 1    
   100   50  127 1    
   101   51  128 1    
   102   51  129 1    
   103   51  130 1    
   104   52   53 am   BACKBONE|DICT|INTERRES
   105   52  131 1    
   106   53   54 2    
   107   53   55 1    
   108   55   56 1    
   109   55   59 1    
   110   55  132 1    
   111   56   57 1    
   112   56  133 1    
   113   56  134 1    
   114   57   58 1    
   115   58  135 1    
   116   58  136 1    
   117   59   60 am   BACKBONE|DICT|INTERRES
   118   59  137 1    
   119   60   61 2    
   120   60   62 1    
   121   62   63 1    
   122   62   64 1    
   123   62  138 1    
   124   63  139 1    
   125   63  140 1    
   126   63  141 1    
   127   64   65 am   BACKBONE|DICT|INTERRES
   128   64  142 1    
   129   65   66 2    
   130   65   67 1    
   131   67   68 1    
   132   67   69 1    
   133   67  143 1    
   134   68  144 1    
   135   68  145 1    
   136   68  146 1    
   137   69   70 am   BACKBONE|DICT|INTERRES
   138   69  147 1    
   139   70   71 2    
   140   70   72 1    
   141   72   73 1    
   142   72   74 1    
   143   72  148 1    
   144   73  149 1    
   145   73  150 1    
   146   73  151 1    
   147   74   75 am   BACKBONE|DICT|INTERRES
   148   74  152 1    
   149   75   76 2    
   150   75   77 1    
   151   77   78 1    
   152   77   79 1    
   153   77  153 1    
   154   78  154 1    
   155   78  155 1    
   156   78  156 1    
   157   79   80 am   BACKBONE|DICT|INTERRES
   158   79  157 1    
   159   80   81 2    
@<TRIPOS>SUBSTRUCTURE
     1 UNK         1 GROUP             0       ****    0 ROOT    
