@<TRIPOS>MOLECULE
3R207
157   159    1
SMALL
USER_CHARGES


@<TRIPOS>ATOM
      1 CA        -53.5157  -31.0893    6.2708 C.3       0 UNK        -0.1975 
      2 C         -52.7196  -29.8129    6.4937 C.2       0 UNK         0.4852 
      3 O         -52.4541  -29.4598    7.6424 O.2       0 UNK        -0.5216 
      4 N         -52.3386  -29.1283    5.4038 N.am      1 UNK        -0.4461 
      5 CA        -51.6106  -27.8492    5.3308 C.3       1 UNK         0.0864 
      6 C6        -52.3402  -26.6694    6.0223 C.3       14 UNK        -0.0898 
      7 S7        -53.8813  -26.1593    5.1858 S.3       14 UNK        -0.2598 
      8 C8        -55.1962  -26.9263    6.2023 C.3       14 UNK         0.0286 
      9 C9        -55.2250  -26.5659    7.6909 C.ar      14 UNK        -0.0844 
     10 C10       -54.4459  -25.5450    8.2515 C.ar      14 UNK        -0.0881 
     11 C11       -54.4206  -25.3379    9.6331 C.ar      14 UNK        -0.0643 
     12 C12       -55.2463  -26.1057   10.4590 C.ar      14 UNK        -0.0930 
     13 C13       -56.0730  -27.0901    9.9093 C.ar      14 UNK        -0.0827 
     14 C14       -56.0516  -27.3173    8.5307 C.ar      14 UNK        -0.1249 
     15 C15       -56.9831  -27.9178   10.8034 C.3       14 UNK         0.0141 
     16 S16       -56.1132  -29.3485   11.5111 S.3       14 UNK        -0.2313 
     17 C17       -55.9016  -30.4203   10.0476 C.3       14 UNK        -0.0915 
     18 CA        -55.4632  -31.8567   10.4383 C.3       13 UNK         0.0968 
     19 C         -55.4777  -32.8169    9.2141 C.2       13 UNK         0.5732 
     20 N         -54.3864  -33.4982    8.8848 N.am      13 UNK        -0.7310 
     21 O         -56.5055  -32.9583    8.5561 O.2       13 UNK        -0.5035 
     22 N         -54.1869  -31.8311   11.1670 N.am      13 UNK        -0.4233 
     23 C         -53.8308  -32.6630   12.1530 C.2       13 UNK         0.4989 
     24 O         -54.5201  -33.6105   12.5324 O.2       13 UNK        -0.4996 
     25 CA        -52.4723  -32.4009   12.8375 C.3       12 UNK         0.0216 
     26 CB        -51.4582  -33.4934   12.4582 C.3       12 UNK        -0.1964 
     27 N         -51.8971  -31.0868   12.5233 N.am      12 UNK        -0.4276 
     28 C         -52.3703  -29.9149   12.9704 C.2       12 UNK         0.5020 
     29 O         -53.2986  -29.8128   13.7757 O.2       12 UNK        -0.5489 
     30 CA        -51.7196  -28.6616   12.3596 C.3       11 UNK         0.0294 
     31 CB        -52.1104  -28.5130   10.8780 C.3       11 UNK        -0.2019 
     32 N         -52.0862  -27.4363   13.0711 N.am      11 UNK        -0.4493 
     33 C         -51.5938  -27.0731   14.2600 C.2       11 UNK         0.4932 
     34 O         -50.7098  -27.6883   14.8624 O.2       11 UNK        -0.5029 
     35 CA        -52.2069  -25.8193   14.8935 C.3       10 UNK         0.0280 
     36 CB        -53.4820  -26.1799   15.6798 C.3       10 UNK        -0.1976 
     37 N         -51.2109  -25.2190   15.7769 N.am      10 UNK        -0.4242 
     38 C         -51.2460  -23.9851   16.2916 C.2       10 UNK         0.5072 
     39 O         -52.1437  -23.1716   16.0697 O.2       10 UNK        -0.5224 
     40 CA        -50.0953  -23.6018   17.2311 C.3       9 UNK         0.0343 
     41 CB        -50.0138  -24.5547   18.4427 C.3       9 UNK        -0.2003 
     42 N         -48.8220  -23.5541   16.5109 N.am      9 UNK        -0.4272 
     43 C         -47.7207  -22.9278   16.9484 C.2       9 UNK         0.4988 
     44 O         -47.6554  -22.3230   18.0198 O.2       9 UNK        -0.5108 
     45 CA        -46.4773  -22.9740   16.0432 C.3       8 UNK         0.0248 
     46 CB        -45.8182  -24.3632   16.0730 C.3       8 UNK        -0.2001 
     47 N         -46.7769  -22.5888   14.6633 N.am      8 UNK        -0.4140 
     48 C         -47.0358  -21.3337   14.2673 C.2       8 UNK         0.5028 
     49 O         -46.9825  -20.3544   15.0127 O.2       8 UNK        -0.5428 
     50 CA        -47.4290  -21.1279   12.7928 C.3       7 UNK         0.0264 
     51 CB        -46.1809  -20.9269   11.9185 C.3       7 UNK        -0.1988 
     52 N         -48.2340  -22.2256   12.2526 N.am      7 UNK        -0.4454 
     53 C         -49.4677  -22.5406   12.6749 C.2       7 UNK         0.5027 
     54 O         -50.0908  -21.8870   13.5113 O.2       7 UNK        -0.5083 
     55 CA        -50.1044  -23.8154   12.0856 C.3       6 UNK         0.0844 
     56 C56       -50.8139  -23.4814   10.7521 C.3       14 UNK        -0.0967 
     57 S57       -51.7460  -24.8930   10.0844 S.3       14 UNK        -0.2604 
     58 C58       -53.4659  -24.3100   10.2207 C.3       14 UNK         0.0134 
     59 N         -49.1382  -24.9202   11.9779 N.am      6 UNK        -0.4116 
     60 C         -48.4682  -25.4481   13.0155 C.2       5 UNK         0.5034 
     61 O         -48.6462  -25.1119   14.1844 O.2       5 UNK        -0.5045 
     62 CA        -47.3553  -26.4593   12.7076 C.3       5 UNK         0.0224 
     63 CB        -47.9060  -27.8828   12.5457 C.3       5 UNK        -0.1978 
     64 N         -46.6011  -26.0698   11.5179 N.am      5 UNK        -0.4737 
     65 C         -45.6880  -25.0891   11.5034 C.2       4 UNK         0.5027 
     66 O         -45.3428  -24.4671   12.5077 O.2       4 UNK        -0.5211 
     67 CA        -45.0845  -24.7158   10.1377 C.3       4 UNK         0.0297 
     68 CB        -43.8383  -25.5675    9.8504 C.3       4 UNK        -0.1993 
     69 N         -46.0382  -24.8549    9.0332 N.am      4 UNK        -0.4486 
     70 C         -47.1421  -24.1084    8.8902 C.2       3 UNK         0.4961 
     71 O         -47.4427  -23.1842    9.6453 O.2       3 UNK        -0.5105 
     72 CA        -48.0984  -24.4858    7.7445 C.3       3 UNK         0.0299 
     73 CB        -47.7139  -23.7437    6.4556 C.3       3 UNK        -0.1972 
     74 N         -48.1908  -25.9257    7.4715 N.am      3 UNK        -0.4305 
     75 C         -48.5302  -26.8671    8.3633 C.2       2 UNK         0.5006 
     76 O         -48.7280  -26.6324    9.5554 O.2       2 UNK        -0.5106 
     77 CA        -48.7013  -28.2979    7.8199 C.3       2 UNK         0.0296 
     78 CB        -48.7028  -29.3556    8.9390 C.3       2 UNK        -0.2002 
     79 N         -49.9516  -28.3960    7.0682 N.am      2 UNK        -0.4032 
     80 C         -50.1538  -27.9171    5.8353 C.2       1 UNK         0.5000 
     81 O         -49.2456  -27.4835    5.1224 O.2       1 UNK        -0.5238 
     82 H82       -54.4912  -31.0081    6.7494 H         1 UNK         0.0889 
     83 H83       -52.9912  -31.9380    6.7084 H         1 UNK         0.0889 
     84 H84       -53.6729  -31.2952    5.2123 H         1 UNK         0.0889 
     85 H85       -52.5774  -29.5120    4.4997 H         1 UNK         0.3028 
     86 H86       -51.5445  -27.6140    4.2671 H         1 UNK         0.0864 
     87 H87       -51.7030  -25.7822    6.0374 H         1 UNK         0.0720 
     88 H88       -52.5278  -26.9072    7.0688 H         1 UNK         0.0720 
     89 H89       -55.1092  -28.0088    6.1020 H         1 UNK         0.0814 
     90 H90       -56.1591  -26.6572    5.7666 H         1 UNK         0.0814 
     91 H91       -53.8057  -24.9369    7.6295 H         1 UNK         0.1469 
     92 H92       -55.2392  -25.9479   11.5286 H         1 UNK         0.1381 
     93 H93       -56.6704  -28.0989    8.1111 H         1 UNK         0.1206 
     94 H94       -57.3588  -27.2973   11.6184 H         1 UNK         0.0813 
     95 H95       -57.8614  -28.2572   10.2521 H         1 UNK         0.0813 
     96 H96       -55.1668  -29.9648    9.3808 H         1 UNK         0.0638 
     97 H97       -56.8479  -30.4404    9.5041 H         1 UNK         0.0638 
     98 H98       -56.2257  -32.2499   11.1133 H         1 UNK         0.0568 
     99 H99       -53.5429  -33.4055    9.4260 H         1 UNK         0.3450 
    100 H100      -54.4175  -34.1266    8.0981 H         1 UNK         0.3450 
    101 H101      -53.5607  -31.0812   10.9212 H         1 UNK         0.2987 
    102 H102      -52.6409  -32.4492   13.9155 H         1 UNK         0.0766 
    103 H103      -51.8385  -34.4845   12.7102 H         1 UNK         0.0798 
    104 H104      -50.5177  -33.3660   12.9948 H         1 UNK         0.0798 
    105 H105      -51.2394  -33.4912   11.3897 H         1 UNK         0.0798 
    106 H106      -51.1211  -31.0819   11.8764 H         1 UNK         0.3198 
    107 H107      -50.6395  -28.7918   12.4240 H         1 UNK         0.0843 
    108 H108      -53.1682  -28.2775   10.7539 H         1 UNK         0.0831 
    109 H109      -51.9160  -29.4242   10.3126 H         1 UNK         0.0831 
    110 H110      -51.5329  -27.7248   10.3970 H         1 UNK         0.0831 
    111 H111      -52.8353  -26.8955   12.6660 H         1 UNK         0.3133 
    112 H112      -52.4592  -25.1090   14.1046 H         1 UNK         0.0566 
    113 H113      -53.2648  -26.8621   16.5027 H         1 UNK         0.0814 
    114 H114      -54.2142  -26.6696   15.0363 H         1 UNK         0.0814 
    115 H115      -53.9616  -25.2942   16.0964 H         1 UNK         0.0814 
    116 H116      -50.4127  -25.8177   15.9559 H         1 UNK         0.3091 
    117 H117      -50.3121  -22.5978   17.6025 H         1 UNK         0.0702 
    118 H118      -49.3248  -24.1793   19.1992 H         1 UNK         0.0785 
    119 H119      -49.6783  -25.5516   18.1553 H         1 UNK         0.0785 
    120 H120      -50.9875  -24.6613   18.9229 H         1 UNK         0.0785 
    121 H121      -48.7940  -24.0311   15.6092 H         1 UNK         0.2998 
    122 H122      -45.7526  -22.2592   16.4391 H         1 UNK         0.0697 
    123 H123      -44.9176  -24.3878   15.4589 H         1 UNK         0.0825 
    124 H124      -46.4879  -25.1438   15.7132 H         1 UNK         0.0825 
    125 H125      -45.5259  -24.6313   17.0890 H         1 UNK         0.0825 
    126 H126      -46.8067  -23.3306   13.9759 H         1 UNK         0.3029 
    127 H127      -48.0315  -20.2185   12.7386 H         1 UNK         0.0897 
    128 H128      -45.5383  -21.8075   11.9224 H         1 UNK         0.0792 
    129 H129      -45.5850  -20.0865   12.2769 H         1 UNK         0.0792 
    130 H130      -46.4512  -20.7154   10.8836 H         1 UNK         0.0792 
    131 H131      -47.8307  -22.7565   11.4841 H         1 UNK         0.3086 
    132 H132      -50.8678  -24.1368   12.7939 H         1 UNK         0.0583 
    133 H133      -51.4957  -22.6386   10.8837 H         1 UNK         0.1020 
    134 H134      -50.0920  -23.1627    9.9996 H         1 UNK         0.1020 
    135 H135      -53.7002  -24.1131   11.2680 H         1 UNK         0.0694 
    136 H136      -53.5767  -23.3647    9.6875 H         1 UNK         0.0694 
    137 H137      -48.9760  -25.3007   11.0505 H         1 UNK         0.2989 
    138 H138      -46.6728  -26.4664   13.5605 H         1 UNK         0.1055 
    139 H139      -47.1063  -28.5984   12.3552 H         1 UNK         0.0806 
    140 H140      -48.6189  -27.9520   11.7263 H         1 UNK         0.0806 
    141 H141      -48.4175  -28.2037   13.4538 H         1 UNK         0.0806 
    142 H142      -46.9080  -26.4692   10.6396 H         1 UNK         0.3061 
    143 H143      -44.7792  -23.6683   10.1879 H         1 UNK         0.0734 
    144 H144      -44.0811  -26.6278    9.7700 H         1 UNK         0.0832 
    145 H145      -43.3522  -25.2613    8.9239 H         1 UNK         0.0832 
    146 H146      -43.1031  -25.4619   10.6496 H         1 UNK         0.0832 
    147 H147      -45.8690  -25.5931    8.3656 H         1 UNK         0.3156 
    148 H148      -49.0973  -24.1569    8.0363 H         1 UNK         0.0589 
    149 H149      -48.4479  -23.9114    5.6670 H         1 UNK         0.0808 
    150 H150      -46.7397  -24.0607    6.0815 H         1 UNK         0.0808 
    151 H151      -47.6640  -22.6671    6.6252 H         1 UNK         0.0808 
    152 H152      -48.1049  -26.2130    6.5033 H         1 UNK         0.3098 
    153 H153      -47.8623  -28.5125    7.1548 H         1 UNK         0.0720 
    154 H154      -47.7793  -29.3123    9.5179 H         1 UNK         0.0791 
    155 H155      -48.7839  -30.3631    8.5311 H         1 UNK         0.0791 
    156 H156      -49.5299  -29.2092    9.6333 H         1 UNK         0.0791 
    157 H157      -50.7734  -28.7330    7.5675 H         1 UNK         0.3028 
@<TRIPOS>BOND
     1    1    2 1    
     2    1   82 1    
     3    1   83 1    
     4    1   84 1    
     5    2    3 2    
     6    2    4 am   BACKBONE|DICT|INTERRES
     7    4    5 1    
     8    4   85 1    
     9    5    6 1    
    10    5   80 1    
    11    5   86 1    
    12    6    7 1    
    13    6   87 1    
    14    6   88 1    
    15    7    8 1    
    16    8    9 1    
    17    8   89 1    
    18    8   90 1    
    19    9   10 ar   
    20    9   14 ar   
    21   10   11 ar   
    22   10   91 1    
    23   11   12 ar   
    24   11   58 1    
    25   12   13 ar   
    26   12   92 1    
    27   13   14 ar   
    28   13   15 1    
    29   14   93 1    
    30   15   16 1    
    31   15   94 1    
    32   15   95 1    
    33   16   17 1    
    34   17   18 1    
    35   17   96 1    
    36   17   97 1    
    37   18   19 1    
    38   18   22 1    
    39   18   98 1    
    40   19   20 am   BACKBONE|DICT|INTERRES
    41   19   21 2    
    42   20   99 1    
    43   20  100 1    
    44   22   23 am   BACKBONE|DICT|INTERRES
    45   22  101 1    
    46   23   24 2    
    47   23   25 1    
    48   25   26 1    
    49   25   27 1    
    50   25  102 1    
    51   26  103 1    
    52   26  104 1    
    53   26  105 1    
    54   27   28 am   BACKBONE|DICT|INTERRES
    55   27  106 1    
    56   28   29 2    
    57   28   30 1    
    58   30   31 1    
    59   30   32 1    
    60   30  107 1    
    61   31  108 1    
    62   31  109 1    
    63   31  110 1    
    64   32   33 am   BACKBONE|DICT|INTERRES
    65   32  111 1    
    66   33   34 2    
    67   33   35 1    
    68   35   36 1    
    69   35   37 1    
    70   35  112 1    
    71   36  113 1    
    72   36  114 1    
    73   36  115 1    
    74   37   38 am   BACKBONE|DICT|INTERRES
    75   37  116 1    
    76   38   39 2    
    77   38   40 1    
    78   40   41 1    
    79   40   42 1    
    80   40  117 1    
    81   41  118 1    
    82   41  119 1    
    83   41  120 1    
    84   42   43 am   BACKBONE|DICT|INTERRES
    85   42  121 1    
    86   43   44 2    
    87   43   45 1    
    88   45   46 1    
    89   45   47 1    
    90   45  122 1    
    91   46  123 1    
    92   46  124 1    
    93   46  125 1    
    94   47   48 am   BACKBONE|DICT|INTERRES
    95   47  126 1    
    96   48   49 2    
    97   48   50 1    
    98   50   51 1    
    99   50   52 1    
   100   50  127 1    
   101   51  128 1    
   102   51  129 1    
   103   51  130 1    
   104   52   53 am   BACKBONE|DICT|INTERRES
   105   52  131 1    
   106   53   54 2    
   107   53   55 1    
   108   55   56 1    
   109   55   59 1    
   110   55  132 1    
   111   56   57 1    
   112   56  133 1    
   113   56  134 1    
   114   57   58 1    
   115   58  135 1    
   116   58  136 1    
   117   59   60 am   BACKBONE|DICT|INTERRES
   118   59  137 1    
   119   60   61 2    
   120   60   62 1    
   121   62   63 1    
   122   62   64 1    
   123   62  138 1    
   124   63  139 1    
   125   63  140 1    
   126   63  141 1    
   127   64   65 am   BACKBONE|DICT|INTERRES
   128   64  142 1    
   129   65   66 2    
   130   65   67 1    
   131   67   68 1    
   132   67   69 1    
   133   67  143 1    
   134   68  144 1    
   135   68  145 1    
   136   68  146 1    
   137   69   70 am   BACKBONE|DICT|INTERRES
   138   69  147 1    
   139   70   71 2    
   140   70   72 1    
   141   72   73 1    
   142   72   74 1    
   143   72  148 1    
   144   73  149 1    
   145   73  150 1    
   146   73  151 1    
   147   74   75 am   BACKBONE|DICT|INTERRES
   148   74  152 1    
   149   75   76 2    
   150   75   77 1    
   151   77   78 1    
   152   77   79 1    
   153   77  153 1    
   154   78  154 1    
   155   78  155 1    
   156   78  156 1    
   157   79   80 am   BACKBONE|DICT|INTERRES
   158   79  157 1    
   159   80   81 2    
@<TRIPOS>SUBSTRUCTURE
     1 UNK         1 GROUP             0       ****    0 ROOT    
