@<TRIPOS>MOLECULE
3R207
157   159    1
SMALL
USER_CHARGES


@<TRIPOS>ATOM
      1 CA        -50.5580  -30.3688    7.7848 C.3       0 UNK        -0.1975 
      2 C         -49.9165  -29.8087    6.5257 C.2       0 UNK         0.4852 
      3 O         -48.8367  -30.2562    6.1358 O.2       0 UNK        -0.5216 
      4 N         -50.5716  -28.8366    5.8774 N.am      1 UNK        -0.4461 
      5 CA        -50.2029  -28.3038    4.5587 C.3       1 UNK         0.0864 
      6 C6        -51.4223  -27.7412    3.7756 C.3       14 UNK        -0.0898 
      7 S7        -52.8722  -28.8562    3.7772 S.3       14 UNK        -0.2598 
      8 C8        -54.1088  -27.8819    4.7002 C.3       14 UNK         0.0286 
      9 C9        -53.7078  -27.6611    6.1532 C.ar      14 UNK        -0.0844 
     10 C10       -53.0431  -26.4893    6.5270 C.ar      14 UNK        -0.0881 
     11 C11       -52.6489  -26.2865    7.8503 C.ar      14 UNK        -0.0643 
     12 C12       -52.9516  -27.2545    8.8140 C.ar      14 UNK        -0.0930 
     13 C13       -53.6568  -28.4099    8.4637 C.ar      14 UNK        -0.0827 
     14 C14       -54.0180  -28.6156    7.1276 C.ar      14 UNK        -0.1249 
     15 C15       -54.0407  -29.4246    9.5316 C.3       14 UNK         0.0141 
     16 S16       -55.5015  -28.8557   10.4559 S.3       14 UNK        -0.2313 
     17 C17       -55.9441  -30.3321   11.4324 C.3       14 UNK        -0.0915 
     18 CA        -55.6564  -30.1555   12.9535 C.3       13 UNK         0.0968 
     19 C         -56.3530  -31.2317   13.8445 C.2       13 UNK         0.5732 
     20 N         -55.7826  -31.6292   14.9778 N.am      13 UNK        -0.7310 
     21 O         -57.4470  -31.6933   13.5272 O.2       13 UNK        -0.5035 
     22 N         -54.2297  -29.9616   13.2570 N.am      13 UNK        -0.4233 
     23 C         -53.2550  -30.8672   13.0802 C.2       13 UNK         0.4989 
     24 O         -53.4145  -31.9543   12.5246 O.2       13 UNK        -0.4996 
     25 CA        -51.8587  -30.5197   13.6301 C.3       12 UNK         0.0216 
     26 CB        -50.9589  -30.0257   12.4933 C.3       12 UNK        -0.1964 
     27 N         -51.8718  -29.5096   14.6909 N.am      12 UNK        -0.4276 
     28 C         -52.4556  -29.6556   15.8882 C.2       12 UNK         0.5020 
     29 O         -53.0068  -30.6931   16.2597 O.2       12 UNK        -0.5489 
     30 CA        -52.4770  -28.4189   16.8014 C.3       11 UNK         0.0294 
     31 CB        -51.3052  -28.4654   17.7938 C.3       11 UNK        -0.2019 
     32 N         -52.4615  -27.1396   16.0784 N.am      11 UNK        -0.4493 
     33 C         -53.4259  -26.7198   15.2410 C.2       11 UNK         0.4932 
     34 O         -54.3822  -27.4258   14.9143 O.2       11 UNK        -0.5029 
     35 CA        -53.3034  -25.3002   14.6436 C.3       10 UNK         0.0280 
     36 CB        -54.6764  -24.6544   14.3655 C.3       10 UNK        -0.1976 
     37 N         -52.4444  -24.3842   15.4055 N.am      10 UNK        -0.4242 
     38 C         -52.5773  -24.0179   16.6896 C.2       10 UNK         0.5072 
     39 O         -53.5361  -24.3367   17.3955 O.2       10 UNK        -0.5224 
     40 CA        -51.4279  -23.1822   17.2974 C.3       9 UNK         0.0343 
     41 CB        -51.3468  -23.3338   18.8309 C.3       9 UNK        -0.2003 
     42 N         -50.1033  -23.4330   16.7077 N.am      9 UNK        -0.4272 
     43 C         -49.4718  -24.6067   16.5502 C.2       9 UNK         0.4988 
     44 O         -49.9803  -25.6922   16.8341 O.2       9 UNK        -0.5108 
     45 CA        -48.0465  -24.5577   15.9540 C.3       8 UNK         0.0248 
     46 CB        -47.4730  -25.9645   15.6984 C.3       8 UNK        -0.2001 
     47 N         -47.9800  -23.7912   14.7059 N.am      8 UNK        -0.4140 
     48 C         -48.0538  -22.4570   14.5970 C.2       8 UNK         0.5028 
     49 O         -48.0994  -21.6964   15.5652 O.2       8 UNK        -0.5428 
     50 CA        -48.1817  -21.8765   13.1773 C.3       7 UNK         0.0264 
     51 CB        -46.7940  -21.6646   12.5545 C.3       7 UNK        -0.1988 
     52 N         -49.0140  -22.6952   12.2858 N.am      7 UNK        -0.4454 
     53 C         -50.2983  -23.0160   12.5198 C.2       7 UNK         0.5027 
     54 O         -50.9262  -22.6559   13.5166 O.2       7 UNK        -0.5083 
     55 CA        -50.9961  -23.9240   11.4966 C.3       6 UNK         0.0844 
     56 C56       -51.5414  -23.1145   10.2939 C.3       14 UNK        -0.0967 
     57 S57       -52.8535  -24.0332    9.4271 S.3       14 UNK        -0.2604 
     58 C58       -51.8969  -25.0233    8.2381 C.3       14 UNK         0.0134 
     59 N         -50.0900  -24.9950   11.0853 N.am      6 UNK        -0.4116 
     60 C         -49.9655  -26.1811   11.6945 C.2       5 UNK         0.5034 
     61 O         -50.6385  -26.5386   12.6614 O.2       5 UNK        -0.5045 
     62 CA        -48.8977  -27.1355   11.1261 C.3       5 UNK         0.0224 
     63 CB        -49.4824  -27.9743    9.9783 C.3       5 UNK        -0.1978 
     64 N         -47.7071  -26.4642   10.6075 N.am      5 UNK        -0.4737 
     65 C         -46.9076  -25.6163   11.2650 C.2       4 UNK         0.5027 
     66 O         -47.0184  -25.3424   12.4587 O.2       4 UNK        -0.5211 
     67 CA        -45.8568  -24.8957   10.4034 C.3       4 UNK         0.0297 
     68 CB        -44.5462  -25.6961   10.3748 C.3       4 UNK        -0.1993 
     69 N         -46.3058  -24.6455    9.0271 N.am      4 UNK        -0.4486 
     70 C         -47.4031  -23.9723    8.6578 C.2       3 UNK         0.4961 
     71 O         -48.1924  -23.4744    9.4632 O.2       3 UNK        -0.5105 
     72 CA        -47.6999  -23.8593    7.1493 C.3       3 UNK         0.0299 
     73 CB        -46.8904  -22.7069    6.5266 C.3       3 UNK        -0.1972 
     74 N         -47.5510  -25.0971    6.3608 N.am      3 UNK        -0.4305 
     75 C         -46.4590  -25.8419    6.1322 C.2       2 UNK         0.5006 
     76 O         -45.3632  -25.6051    6.6446 O.2       2 UNK        -0.5106 
     77 CA        -46.5910  -27.0451    5.1685 C.3       2 UNK         0.0296 
     78 CB        -45.4878  -28.0957    5.4020 C.3       2 UNK        -0.2002 
     79 N         -47.8885  -27.7345    5.1686 N.am      2 UNK        -0.4032 
     80 C         -49.0367  -27.2903    4.6422 C.2       1 UNK         0.5000 
     81 O         -49.1866  -26.1335    4.2437 O.2       1 UNK        -0.5238 
     82 H82       -49.7955  -30.6780    8.4988 H         1 UNK         0.0889 
     83 H83       -51.1963  -29.6324    8.2668 H         1 UNK         0.0889 
     84 H84       -51.1649  -31.2396    7.5389 H         1 UNK         0.0889 
     85 H85       -51.4547  -28.5017    6.2415 H         1 UNK         0.3028 
     86 H86       -49.8257  -29.1409    3.9664 H         1 UNK         0.0864 
     87 H87       -51.1410  -27.5747    2.7341 H         1 UNK         0.0720 
     88 H88       -51.7155  -26.7620    4.1499 H         1 UNK         0.0720 
     89 H89       -55.0663  -28.4035    4.6609 H         1 UNK         0.0814 
     90 H90       -54.2669  -26.9266    4.1970 H         1 UNK         0.0814 
     91 H91       -52.8272  -25.7314    5.7869 H         1 UNK         0.1469 
     92 H92       -52.6676  -27.0900    9.8447 H         1 UNK         0.1381 
     93 H93       -54.5534  -29.5125    6.8466 H         1 UNK         0.1206 
     94 H94       -53.2094  -29.5776   10.2208 H         1 UNK         0.0813 
     95 H95       -54.2500  -30.3932    9.0750 H         1 UNK         0.0813 
     96 H96       -57.0093  -30.4971   11.2636 H         1 UNK         0.0638 
     97 H97       -55.4427  -31.2147   11.0341 H         1 UNK         0.0638 
     98 H98       -56.1339  -29.2239   13.2585 H         1 UNK         0.0568 
     99 H99       -56.2518  -32.3151   15.5471 H         1 UNK         0.3450 
    100 H100      -54.8874  -31.2592   15.2713 H         1 UNK         0.3450 
    101 H101      -54.0185  -29.1040   13.7547 H         1 UNK         0.2987 
    102 H102      -51.4301  -31.4352   14.0430 H         1 UNK         0.0766 
    103 H103      -50.9074  -30.7521   11.6808 H         1 UNK         0.0798 
    104 H104      -49.9400  -29.8445   12.8359 H         1 UNK         0.0798 
    105 H105      -51.3526  -29.0968   12.0846 H         1 UNK         0.0798 
    106 H106      -51.4607  -28.6116   14.4730 H         1 UNK         0.3198 
    107 H107      -53.4073  -28.4565   17.3722 H         1 UNK         0.0843 
    108 H108      -51.3507  -27.6364   18.5006 H         1 UNK         0.0831 
    109 H109      -50.3425  -28.4164   17.2832 H         1 UNK         0.0831 
    110 H110      -51.3207  -29.3884   18.3751 H         1 UNK         0.0831 
    111 H111      -51.6843  -26.5162   16.2847 H         1 UNK         0.3133 
    112 H112      -52.8145  -25.4421   13.6828 H         1 UNK         0.0566 
    113 H113      -55.2598  -24.5371   15.2792 H         1 UNK         0.0814 
    114 H114      -55.2659  -25.2635   13.6790 H         1 UNK         0.0814 
    115 H115      -54.5657  -23.6714   13.9078 H         1 UNK         0.0814 
    116 H116      -51.6507  -24.0065   14.8980 H         1 UNK         0.3091 
    117 H117      -51.6658  -22.1408   17.0766 H         1 UNK         0.0702 
    118 H118      -50.5525  -22.7159   19.2496 H         1 UNK         0.0785 
    119 H119      -51.1560  -24.3678   19.1213 H         1 UNK         0.0785 
    120 H120      -52.2779  -23.0264   19.3088 H         1 UNK         0.0785 
    121 H121      -49.5922  -22.6075   16.4045 H         1 UNK         0.2998 
    122 H122      -47.4094  -24.0672   16.6926 H         1 UNK         0.0697 
    123 H123      -46.4512  -25.9142   15.3219 H         1 UNK         0.0825 
    124 H124      -47.4514  -26.5544   16.6157 H         1 UNK         0.0825 
    125 H125      -48.0702  -26.5135   14.9686 H         1 UNK         0.0825 
    126 H126      -47.8863  -24.3356   13.8514 H         1 UNK         0.3029 
    127 H127      -48.6691  -20.9029   13.2623 H         1 UNK         0.0897 
    128 H128      -46.8616  -21.3220   11.5216 H         1 UNK         0.0792 
    129 H129      -46.2339  -20.9120   13.1110 H         1 UNK         0.0792 
    130 H130      -46.2035  -22.5797   12.5733 H         1 UNK         0.0792 
    131 H131      -48.5853  -23.0133   11.4229 H         1 UNK         0.3086 
    132 H132      -51.8528  -24.3640   12.0069 H         1 UNK         0.0583 
    133 H133      -51.9898  -22.1774   10.6312 H         1 UNK         0.1020 
    134 H134      -50.7503  -22.8337    9.5969 H         1 UNK         0.1020 
    135 H135      -50.9326  -25.3099    8.6519 H         1 UNK         0.0694 
    136 H136      -51.6798  -24.4073    7.3640 H         1 UNK         0.0694 
    137 H137      -49.4415  -24.7613   10.3427 H         1 UNK         0.2989 
    138 H138      -48.5892  -27.7985   11.9370 H         1 UNK         0.1055 
    139 H139      -50.4518  -28.3963   10.2319 H         1 UNK         0.0806 
    140 H140      -49.6282  -27.3821    9.0742 H         1 UNK         0.0806 
    141 H141      -48.8210  -28.8042    9.7297 H         1 UNK         0.0806 
    142 H142      -47.5024  -26.6119    9.6303 H         1 UNK         0.3061 
    143 H143      -45.6549  -23.9267   10.8586 H         1 UNK         0.0734 
    144 H144      -43.7638  -25.1569    9.8403 H         1 UNK         0.0832 
    145 H145      -44.1791  -25.8803   11.3856 H         1 UNK         0.0832 
    146 H146      -44.6746  -26.6655    9.8915 H         1 UNK         0.0832 
    147 H147      -45.7339  -25.0248    8.2722 H         1 UNK         0.3156 
    148 H148      -48.7551  -23.5934    7.0667 H         1 UNK         0.0589 
    149 H149      -47.1731  -22.5415    5.4870 H         1 UNK         0.0808 
    150 H150      -47.0664  -21.7727    7.0620 H         1 UNK         0.0808 
    151 H151      -45.8173  -22.8991    6.5550 H         1 UNK         0.0808 
    152 H152      -48.3746  -25.3695    5.8311 H         1 UNK         0.3098 
    153 H153      -46.4431  -26.6375    4.1665 H         1 UNK         0.0720 
    154 H154      -44.4935  -27.6585    5.3002 H         1 UNK         0.0791 
    155 H155      -45.5542  -28.5309    6.4000 H         1 UNK         0.0791 
    156 H156      -45.5520  -28.9077    4.6773 H         1 UNK         0.0791 
    157 H157      -47.8991  -28.6850    5.5307 H         1 UNK         0.3028 
@<TRIPOS>BOND
     1    1    2 1    
     2    1   82 1    
     3    1   83 1    
     4    1   84 1    
     5    2    3 2    
     6    2    4 am   BACKBONE|DICT|INTERRES
     7    4    5 1    
     8    4   85 1    
     9    5    6 1    
    10    5   80 1    
    11    5   86 1    
    12    6    7 1    
    13    6   87 1    
    14    6   88 1    
    15    7    8 1    
    16    8    9 1    
    17    8   89 1    
    18    8   90 1    
    19    9   10 ar   
    20    9   14 ar   
    21   10   11 ar   
    22   10   91 1    
    23   11   12 ar   
    24   11   58 1    
    25   12   13 ar   
    26   12   92 1    
    27   13   14 ar   
    28   13   15 1    
    29   14   93 1    
    30   15   16 1    
    31   15   94 1    
    32   15   95 1    
    33   16   17 1    
    34   17   18 1    
    35   17   96 1    
    36   17   97 1    
    37   18   19 1    
    38   18   22 1    
    39   18   98 1    
    40   19   20 am   BACKBONE|DICT|INTERRES
    41   19   21 2    
    42   20   99 1    
    43   20  100 1    
    44   22   23 am   BACKBONE|DICT|INTERRES
    45   22  101 1    
    46   23   24 2    
    47   23   25 1    
    48   25   26 1    
    49   25   27 1    
    50   25  102 1    
    51   26  103 1    
    52   26  104 1    
    53   26  105 1    
    54   27   28 am   BACKBONE|DICT|INTERRES
    55   27  106 1    
    56   28   29 2    
    57   28   30 1    
    58   30   31 1    
    59   30   32 1    
    60   30  107 1    
    61   31  108 1    
    62   31  109 1    
    63   31  110 1    
    64   32   33 am   BACKBONE|DICT|INTERRES
    65   32  111 1    
    66   33   34 2    
    67   33   35 1    
    68   35   36 1    
    69   35   37 1    
    70   35  112 1    
    71   36  113 1    
    72   36  114 1    
    73   36  115 1    
    74   37   38 am   BACKBONE|DICT|INTERRES
    75   37  116 1    
    76   38   39 2    
    77   38   40 1    
    78   40   41 1    
    79   40   42 1    
    80   40  117 1    
    81   41  118 1    
    82   41  119 1    
    83   41  120 1    
    84   42   43 am   BACKBONE|DICT|INTERRES
    85   42  121 1    
    86   43   44 2    
    87   43   45 1    
    88   45   46 1    
    89   45   47 1    
    90   45  122 1    
    91   46  123 1    
    92   46  124 1    
    93   46  125 1    
    94   47   48 am   BACKBONE|DICT|INTERRES
    95   47  126 1    
    96   48   49 2    
    97   48   50 1    
    98   50   51 1    
    99   50   52 1    
   100   50  127 1    
   101   51  128 1    
   102   51  129 1    
   103   51  130 1    
   104   52   53 am   BACKBONE|DICT|INTERRES
   105   52  131 1    
   106   53   54 2    
   107   53   55 1    
   108   55   56 1    
   109   55   59 1    
   110   55  132 1    
   111   56   57 1    
   112   56  133 1    
   113   56  134 1    
   114   57   58 1    
   115   58  135 1    
   116   58  136 1    
   117   59   60 am   BACKBONE|DICT|INTERRES
   118   59  137 1    
   119   60   61 2    
   120   60   62 1    
   121   62   63 1    
   122   62   64 1    
   123   62  138 1    
   124   63  139 1    
   125   63  140 1    
   126   63  141 1    
   127   64   65 am   BACKBONE|DICT|INTERRES
   128   64  142 1    
   129   65   66 2    
   130   65   67 1    
   131   67   68 1    
   132   67   69 1    
   133   67  143 1    
   134   68  144 1    
   135   68  145 1    
   136   68  146 1    
   137   69   70 am   BACKBONE|DICT|INTERRES
   138   69  147 1    
   139   70   71 2    
   140   70   72 1    
   141   72   73 1    
   142   72   74 1    
   143   72  148 1    
   144   73  149 1    
   145   73  150 1    
   146   73  151 1    
   147   74   75 am   BACKBONE|DICT|INTERRES
   148   74  152 1    
   149   75   76 2    
   150   75   77 1    
   151   77   78 1    
   152   77   79 1    
   153   77  153 1    
   154   78  154 1    
   155   78  155 1    
   156   78  156 1    
   157   79   80 am   BACKBONE|DICT|INTERRES
   158   79  157 1    
   159   80   81 2    
@<TRIPOS>SUBSTRUCTURE
     1 UNK         1 GROUP             0       ****    0 ROOT    
