@<TRIPOS>MOLECULE
3R207
157   159    1
SMALL
USER_CHARGES


@<TRIPOS>ATOM
      1 CA        -51.0782  -32.2425    6.5811 C.3       0 UNK        -0.1975 
      2 C         -51.1291  -31.3209    5.3733 C.2       0 UNK         0.4852 
      3 O         -50.8383  -31.7529    4.2564 O.2       0 UNK        -0.5216 
      4 N         -51.5073  -30.0573    5.5970 N.am      1 UNK        -0.4461 
      5 CA        -51.5395  -28.9936    4.5898 C.3       1 UNK         0.0864 
      6 C6        -52.7964  -28.0946    4.7686 C.3       14 UNK        -0.0898 
      7 S7        -52.7235  -26.8292    6.0853 S.3       14 UNK        -0.2598 
      8 C8        -53.4352  -27.6939    7.5279 C.3       14 UNK         0.0286 
      9 C9        -52.4383  -28.5700    8.2843 C.ar      14 UNK        -0.0844 
     10 C10       -51.1111  -28.1656    8.4631 C.ar      14 UNK        -0.0881 
     11 C11       -50.2122  -28.9522    9.1855 C.ar      14 UNK        -0.0643 
     12 C12       -50.6570  -30.1427    9.7651 C.ar      14 UNK        -0.0930 
     13 C13       -51.9815  -30.5636    9.6049 C.ar      14 UNK        -0.0827 
     14 C14       -52.8604  -29.7793    8.8466 C.ar      14 UNK        -0.1249 
     15 C15       -52.4254  -31.8838   10.2361 C.3       14 UNK         0.0141 
     16 S16       -54.0776  -31.8451   11.0145 S.3       14 UNK        -0.2313 
     17 C17       -53.9282  -30.4486   12.1780 C.3       14 UNK        -0.0915 
     18 CA        -54.8737  -29.2790   11.7866 C.3       13 UNK         0.0968 
     19 C         -56.2597  -29.3967   12.4754 C.2       13 UNK         0.5732 
     20 N         -56.4219  -28.8778   13.6860 N.am      13 UNK        -0.7310 
     21 O         -57.1958  -29.9514   11.9045 O.2       13 UNK        -0.5035 
     22 N         -54.2354  -27.9772   12.0098 N.am      13 UNK        -0.4233 
     23 C         -54.5407  -26.8640   11.3323 C.2       13 UNK         0.4989 
     24 O         -55.3722  -26.8207   10.4234 O.2       13 UNK        -0.4996 
     25 CA        -53.7699  -25.5915   11.7317 C.3       12 UNK         0.0216 
     26 CB        -54.3400  -24.3111   11.0797 C.3       12 UNK        -0.1964 
     27 N         -53.6455  -25.4490   13.1883 N.am      12 UNK        -0.4276 
     28 C         -54.6377  -25.2773   14.0764 C.2       12 UNK         0.5020 
     29 O         -55.8202  -25.1254   13.7642 O.2       12 UNK        -0.5489 
     30 CA        -54.2420  -25.3070   15.5706 C.3       11 UNK         0.0294 
     31 CB        -55.4450  -25.5911   16.4948 C.3       11 UNK        -0.2019 
     32 N         -53.1421  -26.2322   15.8803 N.am      11 UNK        -0.4493 
     33 C         -53.0781  -27.5431   15.5924 C.2       11 UNK         0.4932 
     34 O         -53.9753  -28.1573   15.0150 O.2       11 UNK        -0.5029 
     35 CA        -51.7886  -28.2919   15.9686 C.3       10 UNK         0.0280 
     36 CB        -51.3378  -29.2401   14.8415 C.3       10 UNK        -0.1976 
     37 N         -50.6986  -27.3622   16.2752 N.am      10 UNK        -0.4242 
     38 C         -49.9850  -27.3636   17.4079 C.2       10 UNK         0.5072 
     39 O         -50.1466  -28.1752   18.3204 O.2       10 UNK        -0.5224 
     40 CA        -48.9023  -26.2818   17.5664 C.3       9 UNK         0.0343 
     41 CB        -47.5276  -26.8274   17.1457 C.3       9 UNK        -0.2003 
     42 N         -49.1629  -25.0260   16.8548 N.am      9 UNK        -0.4272 
     43 C         -50.1577  -24.1723   17.1411 C.2       9 UNK         0.4988 
     44 O         -51.0803  -24.4282   17.9143 O.2       9 UNK        -0.5108 
     45 CA        -50.1168  -22.8052   16.4453 C.3       8 UNK         0.0248 
     46 CB        -48.9286  -21.9673   16.9485 C.3       8 UNK        -0.2001 
     47 N         -50.0173  -22.9746   14.9990 N.am      8 UNK        -0.4140 
     48 C         -51.0505  -22.8936   14.1501 C.2       8 UNK         0.5028 
     49 O         -52.1892  -22.5598   14.4768 O.2       8 UNK        -0.5428 
     50 CA        -50.7772  -23.2932   12.6886 C.3       7 UNK         0.0264 
     51 CB        -50.3872  -22.0617   11.8579 C.3       7 UNK        -0.1988 
     52 N         -49.7547  -24.3368   12.5540 N.am      7 UNK        -0.4454 
     53 C         -49.8524  -25.5657   13.0912 C.2       7 UNK         0.5027 
     54 O         -50.8597  -25.9621   13.6799 O.2       7 UNK        -0.5083 
     55 CA        -48.6217  -26.4994   13.0377 C.3       6 UNK         0.0844 
     56 C56       -48.8008  -27.6090   11.9715 C.3       14 UNK        -0.0967 
     57 S57       -48.5466  -27.0049   10.2706 S.3       14 UNK        -0.2604 
     58 C58       -48.7542  -28.5300    9.3010 C.3       14 UNK         0.0134 
     59 N         -47.3418  -25.7987   12.8887 N.am      6 UNK        -0.4116 
     60 C         -46.8537  -24.8308   13.6767 C.2       5 UNK         0.5034 
     61 O         -47.3899  -24.4595   14.7221 O.2       5 UNK        -0.5045 
     62 CA        -45.5964  -24.1006   13.1669 C.3       5 UNK         0.0224 
     63 CB        -44.3337  -24.7223   13.7830 C.3       5 UNK        -0.1978 
     64 N         -45.4628  -24.0691   11.6995 N.am      5 UNK        -0.4737 
     65 C         -46.3708  -23.5631   10.8501 C.2       4 UNK         0.5027 
     66 O         -47.4421  -23.0850   11.2225 O.2       4 UNK        -0.5211 
     67 CA        -46.0874  -23.6460    9.3423 C.3       4 UNK         0.0297 
     68 CB        -44.7783  -24.3728    8.9716 C.3       4 UNK        -0.1993 
     69 N         -47.2187  -24.3381    8.7343 N.am      4 UNK        -0.4486 
     70 C         -47.8693  -23.9848    7.6228 C.2       3 UNK         0.4961 
     71 O         -47.5683  -23.0298    6.9030 O.2       3 UNK        -0.5105 
     72 CA        -49.1106  -24.8373    7.3065 C.3       3 UNK         0.0299 
     73 CB        -50.3714  -24.1886    7.9030 C.3       3 UNK        -0.1972 
     74 N         -49.3261  -25.1236    5.8870 N.am      3 UNK        -0.4305 
     75 C         -48.4491  -25.7292    5.0724 C.2       2 UNK         0.5006 
     76 O         -47.2865  -26.0025    5.3798 O.2       2 UNK        -0.5106 
     77 CA        -49.0118  -26.1721    3.7051 C.3       2 UNK         0.0296 
     78 CB        -47.9369  -26.7849    2.7816 C.3       2 UNK        -0.2002 
     79 N         -50.1515  -27.0941    3.8475 N.am      2 UNK        -0.4032 
     80 C         -50.1859  -28.2411    4.5501 C.2       1 UNK         0.5000 
     81 O         -49.2097  -28.7074    5.1454 O.2       1 UNK        -0.5238 
     82 H82       -50.7263  -33.2346    6.2992 H         1 UNK         0.0889 
     83 H83       -52.0697  -32.3458    7.0207 H         1 UNK         0.0889 
     84 H84       -50.4005  -31.8450    7.3360 H         1 UNK         0.0889 
     85 H85       -51.6814  -29.7524    6.5465 H         1 UNK         0.3028 
     86 H86       -51.6367  -29.4598    3.6069 H         1 UNK         0.0864 
     87 H87       -53.6801  -28.7166    4.9204 H         1 UNK         0.0720 
     88 H88       -52.9924  -27.5640    3.8356 H         1 UNK         0.0720 
     89 H89       -53.8083  -26.9387    8.2197 H         1 UNK         0.0814 
     90 H90       -54.3042  -28.2731    7.2123 H         1 UNK         0.0814 
     91 H91       -50.7674  -27.2372    8.0330 H         1 UNK         0.1469 
     92 H92       -49.9640  -30.7519   10.3291 H         1 UNK         0.1381 
     93 H93       -53.8832  -30.1027    8.7116 H         1 UNK         0.1206 
     94 H94       -51.7071  -32.2028   10.9930 H         1 UNK         0.0813 
     95 H95       -52.4223  -32.6575    9.4681 H         1 UNK         0.0813 
     96 H96       -52.8888  -30.1172   12.1824 H         1 UNK         0.0638 
     97 H97       -54.1182  -30.8043   13.1925 H         1 UNK         0.0638 
     98 H98       -55.0630  -29.3460   10.7137 H         1 UNK         0.0568 
     99 H99       -55.6262  -28.4784   14.1762 H         1 UNK         0.3450 
    100 H100      -57.3187  -28.9395   14.1392 H         1 UNK         0.3450 
    101 H101      -53.6257  -27.9149   12.8126 H         1 UNK         0.2987 
    102 H102      -52.7554  -25.7276   11.3536 H         1 UNK         0.0766 
    103 H103      -53.8102  -23.4167   11.4043 H         1 UNK         0.0798 
    104 H104      -55.3955  -24.1726   11.3158 H         1 UNK         0.0798 
    105 H105      -54.2573  -24.3607    9.9933 H         1 UNK         0.0798 
    106 H106      -52.7062  -25.5907   13.5547 H         1 UNK         0.3198 
    107 H107      -53.8747  -24.3064   15.8039 H         1 UNK         0.0843 
    108 H108      -55.8964  -26.5606   16.2809 H         1 UNK         0.0831 
    109 H109      -56.2221  -24.8358   16.3714 H         1 UNK         0.0831 
    110 H110      -55.1508  -25.5813   17.5441 H         1 UNK         0.0831 
    111 H111      -52.3641  -25.8249   16.3821 H         1 UNK         0.3133 
    112 H112      -52.0338  -28.8963   16.8438 H         1 UNK         0.0566 
    113 H113      -50.4021  -29.7397   15.0924 H         1 UNK         0.0814 
    114 H114      -52.0801  -30.0195   14.6663 H         1 UNK         0.0814 
    115 H115      -51.1940  -28.7087   13.9011 H         1 UNK         0.0814 
    116 H116      -50.5095  -26.6632   15.5654 H         1 UNK         0.3091 
    117 H117      -48.8517  -26.0405   18.6303 H         1 UNK         0.0702 
    118 H118      -46.7366  -26.1033   17.3422 H         1 UNK         0.0785 
    119 H119      -47.4952  -27.0764   16.0855 H         1 UNK         0.0785 
    120 H120      -47.2805  -27.7337   17.7004 H         1 UNK         0.0785 
    121 H121      -48.4594  -24.7460   16.1744 H         1 UNK         0.2998 
    122 H122      -51.0337  -22.2702   16.7024 H         1 UNK         0.0697 
    123 H123      -47.9690  -22.4256   16.7051 H         1 UNK         0.0825 
    124 H124      -48.9677  -21.8459   18.0319 H         1 UNK         0.0825 
    125 H125      -48.9394  -20.9688   16.5113 H         1 UNK         0.0825 
    126 H126      -49.1226  -23.2892   14.6418 H         1 UNK         0.3029 
    127 H127      -51.7027  -23.6907   12.2780 H         1 UNK         0.0897 
    128 H128      -49.4726  -21.5979   12.2293 H         1 UNK         0.0792 
    129 H129      -51.1726  -21.3053   11.8907 H         1 UNK         0.0792 
    130 H130      -50.2296  -22.3200   10.8109 H         1 UNK         0.0792 
    131 H131      -48.8947  -24.0614   12.0856 H         1 UNK         0.3086 
    132 H132      -48.5871  -26.9943   14.0091 H         1 UNK         0.0583 
    133 H133      -48.0841  -28.4101   12.1590 H         1 UNK         0.1020 
    134 H134      -49.7866  -28.0733   12.0426 H         1 UNK         0.1020 
    135 H135      -48.3601  -28.3615    8.2973 H         1 UNK         0.0694 
    136 H136      -48.1463  -29.3242    9.7372 H         1 UNK         0.0694 
    137 H137      -46.8292  -26.0152   12.0468 H         1 UNK         0.2989 
    138 H138      -45.6728  -23.0663   13.5095 H         1 UNK         0.1055 
    139 H139      -44.3986  -24.7399   14.8722 H         1 UNK         0.0806 
    140 H140      -43.4422  -24.1505   13.5245 H         1 UNK         0.0806 
    141 H141      -44.1836  -25.7499   13.4493 H         1 UNK         0.0806 
    142 H142      -44.6103  -24.4512   11.3147 H         1 UNK         0.3061 
    143 H143      -46.0363  -22.6189    8.9751 H         1 UNK         0.0734 
    144 H144      -44.7692  -25.4064    9.3204 H         1 UNK         0.0832 
    145 H145      -44.6413  -24.3939    7.8901 H         1 UNK         0.0832 
    146 H146      -43.9083  -23.8647    9.3896 H         1 UNK         0.0832 
    147 H147      -47.5952  -25.1063    9.2764 H         1 UNK         0.3156 
    148 H148      -48.9743  -25.8106    7.7741 H         1 UNK         0.0589 
    149 H149      -50.5796  -23.2208    7.4452 H         1 UNK         0.0808 
    150 H150      -51.2508  -24.8182    7.7734 H         1 UNK         0.0808 
    151 H151      -50.2541  -24.0242    8.9752 H         1 UNK         0.0808 
    152 H152      -50.2537  -24.9403    5.5335 H         1 UNK         0.3098 
    153 H153      -49.3906  -25.2725    3.2175 H         1 UNK         0.0720 
    154 H154      -48.3499  -27.0354    1.8046 H         1 UNK         0.0791 
    155 H155      -47.5071  -27.6930    3.2060 H         1 UNK         0.0791 
    156 H156      -47.1180  -26.0834    2.6175 H         1 UNK         0.0791 
    157 H157      -51.0097  -26.7881    3.4105 H         1 UNK         0.3028 
@<TRIPOS>BOND
     1    1    2 1    
     2    1   82 1    
     3    1   83 1    
     4    1   84 1    
     5    2    3 2    
     6    2    4 am   BACKBONE|DICT|INTERRES
     7    4    5 1    
     8    4   85 1    
     9    5    6 1    
    10    5   80 1    
    11    5   86 1    
    12    6    7 1    
    13    6   87 1    
    14    6   88 1    
    15    7    8 1    
    16    8    9 1    
    17    8   89 1    
    18    8   90 1    
    19    9   10 ar   
    20    9   14 ar   
    21   10   11 ar   
    22   10   91 1    
    23   11   12 ar   
    24   11   58 1    
    25   12   13 ar   
    26   12   92 1    
    27   13   14 ar   
    28   13   15 1    
    29   14   93 1    
    30   15   16 1    
    31   15   94 1    
    32   15   95 1    
    33   16   17 1    
    34   17   18 1    
    35   17   96 1    
    36   17   97 1    
    37   18   19 1    
    38   18   22 1    
    39   18   98 1    
    40   19   20 am   BACKBONE|DICT|INTERRES
    41   19   21 2    
    42   20   99 1    
    43   20  100 1    
    44   22   23 am   BACKBONE|DICT|INTERRES
    45   22  101 1    
    46   23   24 2    
    47   23   25 1    
    48   25   26 1    
    49   25   27 1    
    50   25  102 1    
    51   26  103 1    
    52   26  104 1    
    53   26  105 1    
    54   27   28 am   BACKBONE|DICT|INTERRES
    55   27  106 1    
    56   28   29 2    
    57   28   30 1    
    58   30   31 1    
    59   30   32 1    
    60   30  107 1    
    61   31  108 1    
    62   31  109 1    
    63   31  110 1    
    64   32   33 am   BACKBONE|DICT|INTERRES
    65   32  111 1    
    66   33   34 2    
    67   33   35 1    
    68   35   36 1    
    69   35   37 1    
    70   35  112 1    
    71   36  113 1    
    72   36  114 1    
    73   36  115 1    
    74   37   38 am   BACKBONE|DICT|INTERRES
    75   37  116 1    
    76   38   39 2    
    77   38   40 1    
    78   40   41 1    
    79   40   42 1    
    80   40  117 1    
    81   41  118 1    
    82   41  119 1    
    83   41  120 1    
    84   42   43 am   BACKBONE|DICT|INTERRES
    85   42  121 1    
    86   43   44 2    
    87   43   45 1    
    88   45   46 1    
    89   45   47 1    
    90   45  122 1    
    91   46  123 1    
    92   46  124 1    
    93   46  125 1    
    94   47   48 am   BACKBONE|DICT|INTERRES
    95   47  126 1    
    96   48   49 2    
    97   48   50 1    
    98   50   51 1    
    99   50   52 1    
   100   50  127 1    
   101   51  128 1    
   102   51  129 1    
   103   51  130 1    
   104   52   53 am   BACKBONE|DICT|INTERRES
   105   52  131 1    
   106   53   54 2    
   107   53   55 1    
   108   55   56 1    
   109   55   59 1    
   110   55  132 1    
   111   56   57 1    
   112   56  133 1    
   113   56  134 1    
   114   57   58 1    
   115   58  135 1    
   116   58  136 1    
   117   59   60 am   BACKBONE|DICT|INTERRES
   118   59  137 1    
   119   60   61 2    
   120   60   62 1    
   121   62   63 1    
   122   62   64 1    
   123   62  138 1    
   124   63  139 1    
   125   63  140 1    
   126   63  141 1    
   127   64   65 am   BACKBONE|DICT|INTERRES
   128   64  142 1    
   129   65   66 2    
   130   65   67 1    
   131   67   68 1    
   132   67   69 1    
   133   67  143 1    
   134   68  144 1    
   135   68  145 1    
   136   68  146 1    
   137   69   70 am   BACKBONE|DICT|INTERRES
   138   69  147 1    
   139   70   71 2    
   140   70   72 1    
   141   72   73 1    
   142   72   74 1    
   143   72  148 1    
   144   73  149 1    
   145   73  150 1    
   146   73  151 1    
   147   74   75 am   BACKBONE|DICT|INTERRES
   148   74  152 1    
   149   75   76 2    
   150   75   77 1    
   151   77   78 1    
   152   77   79 1    
   153   77  153 1    
   154   78  154 1    
   155   78  155 1    
   156   78  156 1    
   157   79   80 am   BACKBONE|DICT|INTERRES
   158   79  157 1    
   159   80   81 2    
@<TRIPOS>SUBSTRUCTURE
     1 UNK         1 GROUP             0       ****    0 ROOT    
