@<TRIPOS>MOLECULE
3R207
157   159    1
SMALL
USER_CHARGES


@<TRIPOS>ATOM
      1 CA        -48.5279  -32.4405    3.6072 C.3       0 UNK        -0.1975 
      2 C         -48.7263  -30.9488    3.3826 C.2       0 UNK         0.4852 
      3 O         -48.0254  -30.3555    2.5619 O.2       0 UNK        -0.5216 
      4 N         -49.6764  -30.3398    4.1051 N.am      1 UNK        -0.4461 
      5 CA        -50.0186  -28.9135    4.0172 C.3       1 UNK         0.0864 
      6 C6        -51.3338  -28.5897    4.7641 C.3       14 UNK        -0.0898 
      7 S7        -52.7731  -29.5055    4.1269 S.3       14 UNK        -0.2598 
      8 C8        -54.1089  -28.3194    4.4800 C.3       14 UNK         0.0286 
      9 C9        -54.3633  -28.1761    5.9749 C.ar      14 UNK        -0.0844 
     10 C10       -53.7188  -27.1764    6.7161 C.ar      14 UNK        -0.0881 
     11 C11       -53.9803  -27.0297    8.0818 C.ar      14 UNK        -0.0643 
     12 C12       -54.9162  -27.8643    8.6909 C.ar      14 UNK        -0.0930 
     13 C13       -55.5193  -28.9035    7.9807 C.ar      14 UNK        -0.0827 
     14 C14       -55.2504  -29.0469    6.6171 C.ar      14 UNK        -0.1249 
     15 C15       -56.4421  -29.8753    8.7010 C.3       14 UNK         0.0141 
     16 S16       -55.6902  -31.5152    9.0026 S.3       14 UNK        -0.2313 
     17 C17       -53.9511  -31.1998    9.4818 C.3       14 UNK        -0.0915 
     18 CA        -53.7456  -30.9168   10.9948 C.3       13 UNK         0.0968 
     19 C         -52.2527  -31.1136   11.3913 C.2       13 UNK         0.5732 
     20 N         -51.4818  -30.0594   11.6352 N.am      13 UNK        -0.7310 
     21 O         -51.7901  -32.2477   11.4863 O.2       13 UNK        -0.5035 
     22 N         -54.2866  -29.6021   11.3648 N.am      13 UNK        -0.4233 
     23 C         -54.5710  -29.2069   12.6100 C.2       13 UNK         0.4989 
     24 O         -54.4789  -29.9287   13.6066 O.2       13 UNK        -0.4996 
     25 CA        -55.0576  -27.7603   12.7643 C.3       12 UNK         0.0216 
     26 CB        -56.5553  -27.6307   12.4298 C.3       12 UNK        -0.1964 
     27 N         -54.8384  -27.3375   14.1423 N.am      12 UNK        -0.4276 
     28 C         -54.5774  -26.0915   14.5483 C.2       12 UNK         0.5020 
     29 O         -54.4835  -25.1304   13.7823 O.2       12 UNK        -0.5489 
     30 CA        -54.4148  -25.8714   16.0604 C.3       11 UNK         0.0294 
     31 CB        -54.0700  -27.1527   16.8538 C.3       11 UNK        -0.2019 
     32 N         -53.3900  -24.8598   16.2978 N.am      11 UNK        -0.4493 
     33 C         -53.3453  -24.0352   17.3504 C.2       11 UNK         0.4932 
     34 O         -54.2377  -23.9484   18.1966 O.2       11 UNK        -0.5029 
     35 CA        -52.0466  -23.2195   17.4982 C.3       10 UNK         0.0280 
     36 CB        -51.9692  -22.4140   18.8121 C.3       10 UNK        -0.1976 
     37 N         -50.8698  -24.0806   17.3318 N.am      10 UNK        -0.4242 
     38 C         -50.5369  -25.1624   18.0554 C.2       10 UNK         0.5072 
     39 O         -51.1014  -25.5039   19.0957 O.2       10 UNK        -0.5224 
     40 CA        -49.4037  -26.0477   17.5060 C.3       9 UNK         0.0343 
     41 CB        -49.9979  -27.2748   16.7946 C.3       9 UNK        -0.2003 
     42 N         -48.5123  -25.3433   16.5814 N.am      9 UNK        -0.4272 
     43 C         -47.6110  -24.4261   16.9602 C.2       9 UNK         0.4988 
     44 O         -47.3870  -24.1287   18.1343 O.2       9 UNK        -0.5108 
     45 CA        -46.8426  -23.7025   15.8433 C.3       8 UNK         0.0248 
     46 CB        -45.6580  -24.5578   15.3665 C.3       8 UNK        -0.2001 
     47 N         -47.6873  -23.3325   14.7021 N.am      8 UNK        -0.4140 
     48 C         -48.7078  -22.4627   14.7596 C.2       8 UNK         0.5028 
     49 O         -49.0475  -21.8723   15.7848 O.2       8 UNK        -0.5428 
     50 CA        -49.5061  -22.2238   13.4670 C.3       7 UNK         0.0264 
     51 CB        -48.7366  -21.3029   12.5068 C.3       7 UNK        -0.1988 
     52 N         -49.8681  -23.4617   12.7765 N.am      7 UNK        -0.4454 
     53 C         -50.6727  -24.4143   13.2736 C.2       7 UNK         0.5027 
     54 O         -51.2216  -24.3550   14.3752 O.2       7 UNK        -0.5083 
     55 CA        -50.8535  -25.6691   12.3978 C.3       6 UNK         0.0844 
     56 C56       -51.8517  -25.3686   11.2492 C.3       14 UNK        -0.0967 
     57 S57       -52.1477  -26.7779   10.1357 S.3       14 UNK        -0.2604 
     58 C58       -53.2592  -25.9869    8.9221 C.3       14 UNK         0.0134 
     59 N         -49.5550  -26.1694   11.9293 N.am      6 UNK        -0.4116 
     60 C         -48.5481  -26.5636   12.7264 C.2       5 UNK         0.5034 
     61 O         -48.6179  -26.6163   13.9538 O.2       5 UNK        -0.5045 
     62 CA        -47.2136  -26.8986   12.0454 C.3       5 UNK         0.0224 
     63 CB        -47.2193  -28.3408   11.5144 C.3       5 UNK        -0.1978 
     64 N         -46.9001  -25.9595   10.9651 N.am      5 UNK        -0.4737 
     65 C         -46.5681  -24.6738   11.1664 C.2       4 UNK         0.5027 
     66 O         -46.4438  -24.1742   12.2824 O.2       4 UNK        -0.5211 
     67 CA        -46.3907  -23.7740    9.9292 C.3       4 UNK         0.0297 
     68 CB        -44.9308  -23.8022    9.4515 C.3       4 UNK        -0.1993 
     69 N         -47.2741  -24.1395    8.8219 N.am      4 UNK        -0.4486 
     70 C         -48.6125  -24.1605    8.8848 C.2       3 UNK         0.4961 
     71 O         -49.2525  -23.7309    9.8454 O.2       3 UNK        -0.5105 
     72 CA        -49.3609  -24.8285    7.7142 C.3       3 UNK         0.0299 
     73 CB        -49.9965  -23.7689    6.8021 C.3       3 UNK        -0.1972 
     74 N         -48.5483  -25.7479    6.9025 N.am      3 UNK        -0.4305 
     75 C         -47.9167  -26.8411    7.3553 C.2       2 UNK         0.5006 
     76 O         -47.9169  -27.1835    8.5375 O.2       2 UNK        -0.5106 
     77 CA        -47.1741  -27.6929    6.3102 C.3       2 UNK         0.0296 
     78 CB        -46.1481  -28.6452    6.9528 C.3       2 UNK        -0.2002 
     79 N         -48.1322  -28.4775    5.5347 N.am      2 UNK        -0.4032 
     80 C         -48.9087  -27.9893    4.5576 C.2       1 UNK         0.5000 
     81 O         -48.8077  -26.8407    4.1197 O.2       1 UNK        -0.5238 
     82 H82       -47.5107  -32.6371    3.9449 H         1 UNK         0.0889 
     83 H83       -48.6895  -32.9843    2.6769 H         1 UNK         0.0889 
     84 H84       -49.2158  -32.8359    4.3544 H         1 UNK         0.0889 
     85 H85       -50.2462  -30.8847    4.7373 H         1 UNK         0.3028 
     86 H86       -50.1531  -28.6679    2.9614 H         1 UNK         0.0864 
     87 H87       -51.2413  -28.8016    5.8317 H         1 UNK         0.0720 
     88 H88       -51.5462  -27.5222    4.6802 H         1 UNK         0.0720 
     89 H89       -55.0192  -28.6606    3.9845 H         1 UNK         0.0814 
     90 H90       -53.8721  -27.3510    4.0366 H         1 UNK         0.0814 
     91 H91       -53.0146  -26.5138    6.2330 H         1 UNK         0.1469 
     92 H92       -55.1493  -27.7090    9.7315 H         1 UNK         0.1381 
     93 H93       -55.7257  -29.8417    6.0582 H         1 UNK         0.1206 
     94 H94       -57.3508  -30.0113    8.1130 H         1 UNK         0.0813 
     95 H95       -56.7672  -29.4639    9.6560 H         1 UNK         0.0813 
     96 H96       -53.4075  -32.1024    9.1959 H         1 UNK         0.0638 
     97 H97       -53.5192  -30.4055    8.8719 H         1 UNK         0.0638 
     98 H98       -54.3040  -31.6705   11.5533 H         1 UNK         0.0568 
     99 H99       -50.5207  -30.2084   11.8955 H         1 UNK         0.3450 
    100 H100      -51.8377  -29.1238   11.5249 H         1 UNK         0.3450 
    101 H101      -54.3595  -28.9453   10.6044 H         1 UNK         0.2987 
    102 H102      -54.4742  -27.1264   12.0937 H         1 UNK         0.0766 
    103 H103      -56.8950  -26.6000   12.5344 H         1 UNK         0.0798 
    104 H104      -57.1678  -28.2508   13.0858 H         1 UNK         0.0798 
    105 H105      -56.7685  -27.9335   11.4062 H         1 UNK         0.0798 
    106 H106      -54.8314  -28.0967   14.8127 H         1 UNK         0.3198 
    107 H107      -55.3750  -25.4915   16.4157 H         1 UNK         0.0843 
    108 H108      -53.1622  -27.6277   16.4796 H         1 UNK         0.0831 
    109 H109      -54.8776  -27.8840   16.8075 H         1 UNK         0.0831 
    110 H110      -53.9112  -26.9322   17.9098 H         1 UNK         0.0831 
    111 H111      -52.6586  -24.7913   15.5916 H         1 UNK         0.3133 
    112 H112      -52.0270  -22.5094   16.6700 H         1 UNK         0.0566 
    113 H113      -51.0397  -21.8479   18.8733 H         1 UNK         0.0814 
    114 H114      -52.7902  -21.6991   18.8782 H         1 UNK         0.0814 
    115 H115      -52.0288  -23.0580   19.6899 H         1 UNK         0.0814 
    116 H116      -50.3474  -23.9193   16.4798 H         1 UNK         0.3091 
    117 H117      -48.8139  -26.3970   18.3561 H         1 UNK         0.0702 
    118 H118      -50.6418  -27.8441   17.4664 H         1 UNK         0.0785 
    119 H119      -50.5995  -26.9859   15.9313 H         1 UNK         0.0785 
    120 H120      -49.2155  -27.9490   16.4460 H         1 UNK         0.0785 
    121 H121      -48.5957  -25.5835   15.5966 H         1 UNK         0.2998 
    122 H122      -46.4423  -22.7786   16.2661 H         1 UNK         0.0697 
    123 H123      -45.9930  -25.4786   14.8881 H         1 UNK         0.0825 
    124 H124      -45.0150  -24.8377   16.2020 H         1 UNK         0.0825 
    125 H125      -45.0398  -24.0148   14.6513 H         1 UNK         0.0825 
    126 H126      -47.4283  -23.7307   13.8013 H         1 UNK         0.3029 
    127 H127      -50.4360  -21.7222   13.7440 H         1 UNK         0.0897 
    128 H128      -49.3225  -21.0812   11.6144 H         1 UNK         0.0792 
    129 H129      -47.7951  -21.7483   12.1852 H         1 UNK         0.0792 
    130 H130      -48.5004  -20.3515   12.9852 H         1 UNK         0.0792 
    131 H131      -49.4888  -23.5923   11.8426 H         1 UNK         0.3086 
    132 H132      -51.2890  -26.4478   13.0278 H         1 UNK         0.0583 
    133 H133      -52.8144  -25.0689   11.6682 H         1 UNK         0.1020 
    134 H134      -51.5181  -24.5238   10.6459 H         1 UNK         0.1020 
    135 H135      -54.0000  -25.3786    9.4434 H         1 UNK         0.0694 
    136 H136      -52.6827  -25.3069    8.2932 H         1 UNK         0.0694 
    137 H137      -49.4009  -26.1485   10.9317 H         1 UNK         0.2989 
    138 H138      -46.4269  -26.8196   12.7990 H         1 UNK         0.1055 
    139 H139      -47.3520  -29.0526   12.3302 H         1 UNK         0.0806 
    140 H140      -46.2800  -28.5862   11.0187 H         1 UNK         0.0806 
    141 H141      -48.0280  -28.5108   10.8029 H         1 UNK         0.0806 
    142 H142      -47.0498  -26.2960   10.0173 H         1 UNK         0.3061 
    143 H143      -46.6364  -22.7522   10.2249 H         1 UNK         0.0734 
    144 H144      -44.7683  -23.1084    8.6265 H         1 UNK         0.0832 
    145 H145      -44.2536  -23.5103   10.2556 H         1 UNK         0.0832 
    146 H146      -44.6321  -24.7976    9.1200 H         1 UNK         0.0832 
    147 H147      -46.8359  -24.5039    7.9891 H         1 UNK         0.3156 
    148 H148      -50.1645  -25.4210    8.1547 H         1 UNK         0.0589 
    149 H149      -49.2410  -23.1618    6.3019 H         1 UNK         0.0808 
    150 H150      -50.6219  -24.2279    6.0360 H         1 UNK         0.0808 
    151 H151      -50.6332  -23.0923    7.3743 H         1 UNK         0.0808 
    152 H152      -48.5361  -25.5843    5.9021 H         1 UNK         0.3098 
    153 H153      -46.6336  -27.0184    5.6424 H         1 UNK         0.0720 
    154 H154      -45.5960  -29.2018    6.1952 H         1 UNK         0.0791 
    155 H155      -46.6231  -29.3670    7.6189 H         1 UNK         0.0791 
    156 H156      -45.4177  -28.0901    7.5430 H         1 UNK         0.0791 
    157 H157      -48.3010  -29.4226    5.8467 H         1 UNK         0.3028 
@<TRIPOS>BOND
     1    1    2 1    
     2    1   82 1    
     3    1   83 1    
     4    1   84 1    
     5    2    3 2    
     6    2    4 am   BACKBONE|DICT|INTERRES
     7    4    5 1    
     8    4   85 1    
     9    5    6 1    
    10    5   80 1    
    11    5   86 1    
    12    6    7 1    
    13    6   87 1    
    14    6   88 1    
    15    7    8 1    
    16    8    9 1    
    17    8   89 1    
    18    8   90 1    
    19    9   10 ar   
    20    9   14 ar   
    21   10   11 ar   
    22   10   91 1    
    23   11   12 ar   
    24   11   58 1    
    25   12   13 ar   
    26   12   92 1    
    27   13   14 ar   
    28   13   15 1    
    29   14   93 1    
    30   15   16 1    
    31   15   94 1    
    32   15   95 1    
    33   16   17 1    
    34   17   18 1    
    35   17   96 1    
    36   17   97 1    
    37   18   19 1    
    38   18   22 1    
    39   18   98 1    
    40   19   20 am   BACKBONE|DICT|INTERRES
    41   19   21 2    
    42   20   99 1    
    43   20  100 1    
    44   22   23 am   BACKBONE|DICT|INTERRES
    45   22  101 1    
    46   23   24 2    
    47   23   25 1    
    48   25   26 1    
    49   25   27 1    
    50   25  102 1    
    51   26  103 1    
    52   26  104 1    
    53   26  105 1    
    54   27   28 am   BACKBONE|DICT|INTERRES
    55   27  106 1    
    56   28   29 2    
    57   28   30 1    
    58   30   31 1    
    59   30   32 1    
    60   30  107 1    
    61   31  108 1    
    62   31  109 1    
    63   31  110 1    
    64   32   33 am   BACKBONE|DICT|INTERRES
    65   32  111 1    
    66   33   34 2    
    67   33   35 1    
    68   35   36 1    
    69   35   37 1    
    70   35  112 1    
    71   36  113 1    
    72   36  114 1    
    73   36  115 1    
    74   37   38 am   BACKBONE|DICT|INTERRES
    75   37  116 1    
    76   38   39 2    
    77   38   40 1    
    78   40   41 1    
    79   40   42 1    
    80   40  117 1    
    81   41  118 1    
    82   41  119 1    
    83   41  120 1    
    84   42   43 am   BACKBONE|DICT|INTERRES
    85   42  121 1    
    86   43   44 2    
    87   43   45 1    
    88   45   46 1    
    89   45   47 1    
    90   45  122 1    
    91   46  123 1    
    92   46  124 1    
    93   46  125 1    
    94   47   48 am   BACKBONE|DICT|INTERRES
    95   47  126 1    
    96   48   49 2    
    97   48   50 1    
    98   50   51 1    
    99   50   52 1    
   100   50  127 1    
   101   51  128 1    
   102   51  129 1    
   103   51  130 1    
   104   52   53 am   BACKBONE|DICT|INTERRES
   105   52  131 1    
   106   53   54 2    
   107   53   55 1    
   108   55   56 1    
   109   55   59 1    
   110   55  132 1    
   111   56   57 1    
   112   56  133 1    
   113   56  134 1    
   114   57   58 1    
   115   58  135 1    
   116   58  136 1    
   117   59   60 am   BACKBONE|DICT|INTERRES
   118   59  137 1    
   119   60   61 2    
   120   60   62 1    
   121   62   63 1    
   122   62   64 1    
   123   62  138 1    
   124   63  139 1    
   125   63  140 1    
   126   63  141 1    
   127   64   65 am   BACKBONE|DICT|INTERRES
   128   64  142 1    
   129   65   66 2    
   130   65   67 1    
   131   67   68 1    
   132   67   69 1    
   133   67  143 1    
   134   68  144 1    
   135   68  145 1    
   136   68  146 1    
   137   69   70 am   BACKBONE|DICT|INTERRES
   138   69  147 1    
   139   70   71 2    
   140   70   72 1    
   141   72   73 1    
   142   72   74 1    
   143   72  148 1    
   144   73  149 1    
   145   73  150 1    
   146   73  151 1    
   147   74   75 am   BACKBONE|DICT|INTERRES
   148   74  152 1    
   149   75   76 2    
   150   75   77 1    
   151   77   78 1    
   152   77   79 1    
   153   77  153 1    
   154   78  154 1    
   155   78  155 1    
   156   78  156 1    
   157   79   80 am   BACKBONE|DICT|INTERRES
   158   79  157 1    
   159   80   81 2    
@<TRIPOS>SUBSTRUCTURE
     1 UNK         1 GROUP             0       ****    0 ROOT    
