@<TRIPOS>MOLECULE
3R207
157   159    1
SMALL
USER_CHARGES


@<TRIPOS>ATOM
      1 CA        -52.1517  -19.8272    6.5962 C.3       0 UNK        -0.1975 
      2 C         -51.2542  -20.9353    7.1275 C.2       0 UNK         0.4852 
      3 O         -50.2232  -20.6450    7.7363 O.2       0 UNK        -0.5216 
      4 N         -51.6432  -22.1976    6.9049 N.am      1 UNK        -0.4461 
      5 CA        -50.9052  -23.3897    7.3350 C.3       1 UNK         0.0864 
      6 C6        -51.7548  -24.6788    7.2032 C.3       14 UNK        -0.0898 
      7 S7        -53.2947  -24.6330    8.1822 S.3       14 UNK        -0.2598 
      8 C8        -54.1182  -26.1705    7.6469 C.3       14 UNK         0.0286 
      9 C9        -53.4575  -27.4060    8.2433 C.ar      14 UNK        -0.0844 
     10 C10       -52.3912  -28.0198    7.5811 C.ar      14 UNK        -0.0881 
     11 C11       -51.7387  -29.1157    8.1503 C.ar      14 UNK        -0.0643 
     12 C12       -52.1818  -29.6205    9.3754 C.ar      14 UNK        -0.0930 
     13 C13       -53.2601  -29.0302   10.0398 C.ar      14 UNK        -0.0827 
     14 C14       -53.8974  -27.9248    9.4656 C.ar      14 UNK        -0.1249 
     15 C15       -53.6669  -29.5202   11.4223 C.3       14 UNK         0.0141 
     16 S16       -54.0375  -31.3021   11.4806 S.3       14 UNK        -0.2313 
     17 C17       -55.8653  -31.3323   11.4815 C.3       14 UNK        -0.0915 
     18 CA        -56.4930  -31.8044   12.8245 C.3       13 UNK         0.0968 
     19 C         -56.1509  -33.2901   13.1454 C.2       13 UNK         0.5732 
     20 N         -56.8154  -34.2315   12.4878 N.am      13 UNK        -0.7310 
     21 O         -55.2762  -33.5981   13.9541 O.2       13 UNK        -0.5035 
     22 N         -56.2066  -30.8651   13.9214 N.am      13 UNK        -0.4233 
     23 C         -56.7258  -30.9172   15.1552 C.2       13 UNK         0.4989 
     24 O         -57.5605  -31.7558   15.5020 O.2       13 UNK        -0.4996 
     25 CA        -56.2595  -29.8445   16.1693 C.3       12 UNK         0.0216 
     26 CB        -56.6777  -30.1785   17.6148 C.3       12 UNK        -0.1964 
     27 N         -54.8137  -29.5812   16.1482 N.am      12 UNK        -0.4276 
     28 C         -54.1725  -28.8708   15.2130 C.2       12 UNK         0.5020 
     29 O         -54.7426  -28.4083   14.2233 O.2       12 UNK        -0.5489 
     30 CA        -52.6511  -28.6958   15.3943 C.3       11 UNK         0.0294 
     31 CB        -51.9199  -30.0325   15.1739 C.3       11 UNK        -0.2019 
     32 N         -52.0911  -27.7050   14.4710 N.am      11 UNK        -0.4493 
     33 C         -52.3390  -26.3893   14.4914 C.2       11 UNK         0.4932 
     34 O         -52.9371  -25.8235   15.4105 O.2       11 UNK        -0.5029 
     35 CA        -51.7828  -25.5967   13.2910 C.3       10 UNK         0.0280 
     36 CB        -52.3347  -26.1163   11.9485 C.3       10 UNK        -0.1976 
     37 N         -51.9750  -24.1467   13.3811 N.am      10 UNK        -0.4242 
     38 C         -53.1230  -23.4494   13.3466 C.2       10 UNK         0.5072 
     39 O         -54.2461  -23.9502   13.2678 O.2       10 UNK        -0.5224 
     40 CA        -53.0069  -21.9123   13.3850 C.3       9 UNK         0.0343 
     41 CB        -53.2671  -21.3865   14.8063 C.3       9 UNK        -0.2003 
     42 N         -51.7118  -21.4101   12.9187 N.am      9 UNK        -0.4272 
     43 C         -51.2685  -21.4772   11.6550 C.2       9 UNK         0.4988 
     44 O         -51.9410  -21.8958   10.7134 O.2       9 UNK        -0.5108 
     45 CA        -49.8239  -21.0080   11.3968 C.3       8 UNK         0.0248 
     46 CB        -49.2755  -20.0477   12.4776 C.3       8 UNK        -0.2001 
     47 N         -48.8990  -22.1312   11.2008 N.am      8 UNK        -0.4140 
     48 C         -48.6835  -23.1628   12.0318 C.2       8 UNK         0.5028 
     49 O         -49.2737  -23.3340   13.1009 O.2       8 UNK        -0.5428 
     50 CA        -47.5644  -24.1365   11.6320 C.3       7 UNK         0.0264 
     51 CB        -46.4371  -24.0968   12.6762 C.3       7 UNK        -0.1988 
     52 N         -48.0298  -25.5165   11.4450 N.am      7 UNK        -0.4454 
     53 C         -48.8622  -25.9050   10.4626 C.2       7 UNK         0.5027 
     54 O         -49.3592  -25.1067    9.6710 O.2       7 UNK        -0.5083 
     55 CA        -49.1459  -27.4119   10.2522 C.3       6 UNK         0.0844 
     56 C56       -48.8762  -27.8210    8.7771 C.3       14 UNK        -0.0967 
     57 S57       -49.0243  -29.6190    8.4700 S.3       14 UNK        -0.2604 
     58 C58       -50.5336  -29.7315    7.4564 C.3       14 UNK         0.0134 
     59 N         -48.3717  -28.2302   11.1797 N.am      6 UNK        -0.4116 
     60 C         -48.8074  -28.7132   12.3481 C.2       5 UNK         0.5034 
     61 O         -49.9444  -28.5343   12.7848 O.2       5 UNK        -0.5045 
     62 CA        -47.7997  -29.5301   13.1814 C.3       5 UNK         0.0224 
     63 CB        -48.1373  -31.0277   13.1046 C.3       5 UNK        -0.1978 
     64 N         -46.3975  -29.3285   12.7857 N.am      5 UNK        -0.4737 
     65 C         -45.7400  -28.1658   12.8948 C.2       4 UNK         0.5027 
     66 O         -46.2408  -27.1610   13.3984 O.2       4 UNK        -0.5211 
     67 CA        -44.3176  -28.0739   12.3075 C.3       4 UNK         0.0297 
     68 CB        -43.7812  -29.4010   11.7221 C.3       4 UNK        -0.1993 
     69 N         -44.2222  -26.9897   11.3184 N.am      4 UNK        -0.4486 
     70 C         -44.9216  -26.8764   10.1790 C.2       3 UNK         0.4961 
     71 O         -45.7282  -27.7193    9.7820 O.2       3 UNK        -0.5105 
     72 CA        -44.6728  -25.6070    9.3490 C.3       3 UNK         0.0299 
     73 CB        -43.2642  -25.6183    8.7279 C.3       3 UNK        -0.1972 
     74 N         -45.6642  -25.4920    8.2755 N.am      3 UNK        -0.4305 
     75 C         -46.2566  -24.3558    7.8833 C.2       2 UNK         0.5006 
     76 O         -46.0524  -23.2630    8.4136 O.2       2 UNK        -0.5106 
     77 CA        -47.2437  -24.4206    6.7070 C.3       2 UNK         0.0296 
     78 CB        -47.2027  -25.7269    5.8852 C.3       2 UNK        -0.2002 
     79 N         -48.5911  -24.1736    7.2133 N.am      2 UNK        -0.4032 
     80 C         -49.5750  -23.5460    6.5620 C.2       1 UNK         0.5000 
     81 O         -49.4794  -23.1367    5.4006 O.2       1 UNK        -0.5238 
     82 H82       -52.4949  -19.1980    7.4171 H         1 UNK         0.0889 
     83 H83       -53.0281  -20.2226    6.0829 H         1 UNK         0.0889 
     84 H84       -51.6003  -19.2023    5.8942 H         1 UNK         0.0889 
     85 H85       -52.4960  -22.3762    6.3955 H         1 UNK         0.3028 
     86 H86       -50.6665  -23.2462    8.3915 H         1 UNK         0.0864 
     87 H87       -52.0059  -24.8703    6.1581 H         1 UNK         0.0720 
     88 H88       -51.1751  -25.5353    7.5483 H         1 UNK         0.0720 
     89 H89       -54.1231  -26.2274    6.5574 H         1 UNK         0.0814 
     90 H90       -55.1651  -26.1302    7.9515 H         1 UNK         0.0814 
     91 H91       -52.0501  -27.6234    6.6348 H         1 UNK         0.1469 
     92 H92       -51.6641  -30.4553    9.8280 H         1 UNK         0.1381 
     93 H93       -54.7128  -27.4422    9.9869 H         1 UNK         0.1206 
     94 H94       -54.5185  -28.9486   11.7889 H         1 UNK         0.0813 
     95 H95       -52.8462  -29.3228   12.1115 H         1 UNK         0.0813 
     96 H96       -56.1857  -31.9862   10.6686 H         1 UNK         0.0638 
     97 H97       -56.2500  -30.3457   11.2200 H         1 UNK         0.0638 
     98 H98       -57.5763  -31.7679   12.6943 H         1 UNK         0.0568 
     99 H99       -56.6011  -35.1991   12.6712 H         1 UNK         0.3450 
    100 H100      -57.5269  -33.9953   11.8139 H         1 UNK         0.3450 
    101 H101      -55.5448  -30.1217   13.7246 H         1 UNK         0.2987 
    102 H102      -56.7723  -28.9213   15.8905 H         1 UNK         0.0766 
    103 H103      -56.2257  -31.1092   17.9601 H         1 UNK         0.0798 
    104 H104      -57.7598  -30.2910   17.6960 H         1 UNK         0.0798 
    105 H105      -56.3884  -29.3866   18.3061 H         1 UNK         0.0798 
    106 H106      -54.2778  -29.9734   16.9095 H         1 UNK         0.3198 
    107 H107      -52.4667  -28.3516   16.4140 H         1 UNK         0.0843 
    108 H108      -52.0947  -30.4290   14.1728 H         1 UNK         0.0831 
    109 H109      -52.2496  -30.7906   15.8850 H         1 UNK         0.0831 
    110 H110      -50.8430  -29.9205   15.3024 H         1 UNK         0.0831 
    111 H111      -51.5042  -28.0678   13.7229 H         1 UNK         0.3133 
    112 H112      -50.7026  -25.7495   13.2889 H         1 UNK         0.0566 
    113 H113      -51.9806  -25.5177   11.1085 H         1 UNK         0.0814 
    114 H114      -52.0176  -27.1399   11.7663 H         1 UNK         0.0814 
    115 H115      -53.4248  -26.1101   11.9277 H         1 UNK         0.0814 
    116 H116      -51.1031  -23.6234   13.4324 H         1 UNK         0.3091 
    117 H117      -53.7787  -21.5104   12.7250 H         1 UNK         0.0702 
    118 H118      -53.2657  -20.2967   14.8344 H         1 UNK         0.0785 
    119 H119      -52.5163  -21.7443   15.5121 H         1 UNK         0.0785 
    120 H120      -54.2403  -21.7179   15.1713 H         1 UNK         0.0785 
    121 H121      -51.0755  -21.0717   13.6257 H         1 UNK         0.2998 
    122 H122      -49.8481  -20.4584   10.4548 H         1 UNK         0.0697 
    123 H123      -49.1280  -20.5410   13.4389 H         1 UNK         0.0825 
    124 H124      -49.9488  -19.2036   12.6343 H         1 UNK         0.0825 
    125 H125      -48.3138  -19.6332   12.1752 H         1 UNK         0.0825 
    126 H126      -48.3798  -22.1063   10.3340 H         1 UNK         0.3029 
    127 H127      -47.1419  -23.8034   10.6850 H         1 UNK         0.0897 
    128 H128      -45.5843  -24.7003   12.3717 H         1 UNK         0.0792 
    129 H129      -46.7759  -24.4626   13.6465 H         1 UNK         0.0792 
    130 H130      -46.0743  -23.0784   12.8217 H         1 UNK         0.0792 
    131 H131      -47.6530  -26.2080   12.0835 H         1 UNK         0.3086 
    132 H132      -50.2093  -27.5639   10.4374 H         1 UNK         0.0583 
    133 H133      -49.5439  -27.2828    8.1031 H         1 UNK         0.1020 
    134 H134      -47.8687  -27.5333    8.4847 H         1 UNK         0.1020 
    135 H135      -50.3480  -29.2534    6.4933 H         1 UNK         0.0694 
    136 H136      -50.7412  -30.7814    7.2454 H         1 UNK         0.0694 
    137 H137      -47.4173  -28.4181   10.8942 H         1 UNK         0.2989 
    138 H138      -47.9077  -29.2043   14.2185 H         1 UNK         0.1055 
    139 H139      -49.1647  -31.2128   13.4226 H         1 UNK         0.0806 
    140 H140      -47.4888  -31.6161   13.7538 H         1 UNK         0.0806 
    141 H141      -48.0379  -31.4119   12.0885 H         1 UNK         0.0806 
    142 H142      -45.9291  -30.1080   12.3458 H         1 UNK         0.3061 
    143 H143      -43.6676  -27.7940   13.1378 H         1 UNK         0.0734 
    144 H144      -42.7602  -29.2804   11.3598 H         1 UNK         0.0832 
    145 H145      -43.7557  -30.1858   12.4793 H         1 UNK         0.0832 
    146 H146      -44.3821  -29.7617   10.8864 H         1 UNK         0.0832 
    147 H147      -43.6010  -26.2335   11.5707 H         1 UNK         0.3156 
    148 H148      -44.7572  -24.7544   10.0255 H         1 UNK         0.0589 
    149 H149      -42.4896  -25.6721    9.4937 H         1 UNK         0.0808 
    150 H150      -43.1256  -26.4713    8.0623 H         1 UNK         0.0808 
    151 H151      -43.0804  -24.7119    8.1506 H         1 UNK         0.0808 
    152 H152      -45.9233  -26.3680    7.8423 H         1 UNK         0.3098 
    153 H153      -46.9631  -23.6013    6.0414 H         1 UNK         0.0720 
    154 H154      -47.8209  -25.6389    4.9915 H         1 UNK         0.0791 
    155 H155      -47.5676  -26.5859    6.4446 H         1 UNK         0.0791 
    156 H156      -46.1900  -25.9502    5.5467 H         1 UNK         0.0791 
    157 H157      -48.7743  -24.4758    8.1719 H         1 UNK         0.3028 
@<TRIPOS>BOND
     1    1    2 1    
     2    1   82 1    
     3    1   83 1    
     4    1   84 1    
     5    2    3 2    
     6    2    4 am   BACKBONE|DICT|INTERRES
     7    4    5 1    
     8    4   85 1    
     9    5    6 1    
    10    5   80 1    
    11    5   86 1    
    12    6    7 1    
    13    6   87 1    
    14    6   88 1    
    15    7    8 1    
    16    8    9 1    
    17    8   89 1    
    18    8   90 1    
    19    9   10 ar   
    20    9   14 ar   
    21   10   11 ar   
    22   10   91 1    
    23   11   12 ar   
    24   11   58 1    
    25   12   13 ar   
    26   12   92 1    
    27   13   14 ar   
    28   13   15 1    
    29   14   93 1    
    30   15   16 1    
    31   15   94 1    
    32   15   95 1    
    33   16   17 1    
    34   17   18 1    
    35   17   96 1    
    36   17   97 1    
    37   18   19 1    
    38   18   22 1    
    39   18   98 1    
    40   19   20 am   BACKBONE|DICT|INTERRES
    41   19   21 2    
    42   20   99 1    
    43   20  100 1    
    44   22   23 am   BACKBONE|DICT|INTERRES
    45   22  101 1    
    46   23   24 2    
    47   23   25 1    
    48   25   26 1    
    49   25   27 1    
    50   25  102 1    
    51   26  103 1    
    52   26  104 1    
    53   26  105 1    
    54   27   28 am   BACKBONE|DICT|INTERRES
    55   27  106 1    
    56   28   29 2    
    57   28   30 1    
    58   30   31 1    
    59   30   32 1    
    60   30  107 1    
    61   31  108 1    
    62   31  109 1    
    63   31  110 1    
    64   32   33 am   BACKBONE|DICT|INTERRES
    65   32  111 1    
    66   33   34 2    
    67   33   35 1    
    68   35   36 1    
    69   35   37 1    
    70   35  112 1    
    71   36  113 1    
    72   36  114 1    
    73   36  115 1    
    74   37   38 am   BACKBONE|DICT|INTERRES
    75   37  116 1    
    76   38   39 2    
    77   38   40 1    
    78   40   41 1    
    79   40   42 1    
    80   40  117 1    
    81   41  118 1    
    82   41  119 1    
    83   41  120 1    
    84   42   43 am   BACKBONE|DICT|INTERRES
    85   42  121 1    
    86   43   44 2    
    87   43   45 1    
    88   45   46 1    
    89   45   47 1    
    90   45  122 1    
    91   46  123 1    
    92   46  124 1    
    93   46  125 1    
    94   47   48 am   BACKBONE|DICT|INTERRES
    95   47  126 1    
    96   48   49 2    
    97   48   50 1    
    98   50   51 1    
    99   50   52 1    
   100   50  127 1    
   101   51  128 1    
   102   51  129 1    
   103   51  130 1    
   104   52   53 am   BACKBONE|DICT|INTERRES
   105   52  131 1    
   106   53   54 2    
   107   53   55 1    
   108   55   56 1    
   109   55   59 1    
   110   55  132 1    
   111   56   57 1    
   112   56  133 1    
   113   56  134 1    
   114   57   58 1    
   115   58  135 1    
   116   58  136 1    
   117   59   60 am   BACKBONE|DICT|INTERRES
   118   59  137 1    
   119   60   61 2    
   120   60   62 1    
   121   62   63 1    
   122   62   64 1    
   123   62  138 1    
   124   63  139 1    
   125   63  140 1    
   126   63  141 1    
   127   64   65 am   BACKBONE|DICT|INTERRES
   128   64  142 1    
   129   65   66 2    
   130   65   67 1    
   131   67   68 1    
   132   67   69 1    
   133   67  143 1    
   134   68  144 1    
   135   68  145 1    
   136   68  146 1    
   137   69   70 am   BACKBONE|DICT|INTERRES
   138   69  147 1    
   139   70   71 2    
   140   70   72 1    
   141   72   73 1    
   142   72   74 1    
   143   72  148 1    
   144   73  149 1    
   145   73  150 1    
   146   73  151 1    
   147   74   75 am   BACKBONE|DICT|INTERRES
   148   74  152 1    
   149   75   76 2    
   150   75   77 1    
   151   77   78 1    
   152   77   79 1    
   153   77  153 1    
   154   78  154 1    
   155   78  155 1    
   156   78  156 1    
   157   79   80 am   BACKBONE|DICT|INTERRES
   158   79  157 1    
   159   80   81 2    
@<TRIPOS>SUBSTRUCTURE
     1 UNK         1 GROUP             0       ****    0 ROOT    
