@<TRIPOS>MOLECULE
3R207
157   159    1
SMALL
USER_CHARGES


@<TRIPOS>ATOM
      1 CA        -46.7936  -27.8020   11.0675 C.3       0 UNK        -0.1975 
      2 C         -47.1717  -28.0295    9.6130 C.2       0 UNK         0.4852 
      3 O         -46.4904  -28.7796    8.9124 O.2       0 UNK        -0.5216 
      4 N         -48.2523  -27.3881    9.1495 N.am      1 UNK        -0.4461 
      5 CA        -48.7249  -27.4660    7.7647 C.3       1 UNK         0.0864 
      6 C6        -50.1460  -26.8781    7.6190 C.3       14 UNK        -0.0898 
      7 S7        -50.9276  -27.3266    6.0290 S.3       14 UNK        -0.2598 
      8 C8        -52.1695  -28.5655    6.5386 C.3       14 UNK         0.0286 
      9 C9        -53.1743  -28.0492    7.5655 C.ar      14 UNK        -0.0844 
     10 C10       -53.6719  -26.7435    7.5036 C.ar      14 UNK        -0.0881 
     11 C11       -54.5443  -26.2632    8.4829 C.ar      14 UNK        -0.0643 
     12 C12       -54.9622  -27.1147    9.5104 C.ar      14 UNK        -0.0930 
     13 C13       -54.5033  -28.4348    9.5613 C.ar      14 UNK        -0.0827 
     14 C14       -53.6044  -28.8920    8.5935 C.ar      14 UNK        -0.1249 
     15 C15       -54.9742  -29.3762   10.6565 C.3       14 UNK         0.0141 
     16 S16       -53.8770  -29.2886   12.0988 S.3       14 UNK        -0.2313 
     17 C17       -54.2262  -30.8825   12.9194 C.3       14 UNK        -0.0915 
     18 CA        -55.6855  -31.0421   13.4247 C.3       13 UNK         0.0968 
     19 C         -55.8816  -32.4078   14.1446 C.2       13 UNK         0.5732 
     20 N         -56.2227  -32.4446   15.4273 N.am      13 UNK        -0.7310 
     21 O         -55.7292  -33.4561   13.5218 O.2       13 UNK        -0.5035 
     22 N         -56.1215  -29.8661   14.1895 N.am      13 UNK        -0.4233 
     23 C         -57.3939  -29.5051   14.3948 C.2       13 UNK         0.4989 
     24 O         -58.3658  -30.1696   14.0336 O.2       13 UNK        -0.4996 
     25 CA        -57.6246  -28.1631   15.1117 C.3       12 UNK         0.0216 
     26 CB        -57.8690  -28.3893   16.6124 C.3       12 UNK        -0.1964 
     27 N         -56.5155  -27.2199   14.9430 N.am      12 UNK        -0.4276 
     28 C         -56.1588  -26.6256   13.7988 C.2       12 UNK         0.5020 
     29 O         -56.7782  -26.7637   12.7437 O.2       12 UNK        -0.5489 
     30 CA        -54.9046  -25.7291   13.8119 C.3       11 UNK         0.0294 
     31 CB        -55.2839  -24.2610   14.0801 C.3       11 UNK        -0.2019 
     32 N         -53.7928  -26.1478   14.6840 N.am      11 UNK        -0.4493 
     33 C         -53.7537  -26.3001   16.0170 C.2       11 UNK         0.4932 
     34 O         -54.7389  -26.1647   16.7435 O.2       11 UNK        -0.5029 
     35 CA        -52.3971  -26.6311   16.6694 C.3       10 UNK         0.0280 
     36 CB        -52.5275  -27.6774   17.7974 C.3       10 UNK        -0.1976 
     37 N         -51.3269  -26.9759   15.7238 N.am      10 UNK        -0.4242 
     38 C         -51.1792  -28.0989   15.0002 C.2       10 UNK         0.5072 
     39 O         -51.9559  -29.0514   15.0614 O.2       10 UNK        -0.5224 
     40 CA        -49.9646  -28.1788   14.0478 C.3       9 UNK         0.0343 
     41 CB        -50.3638  -28.7014   12.6558 C.3       9 UNK        -0.2003 
     42 N         -49.3134  -26.8775   13.8859 N.am      9 UNK        -0.4272 
     43 C         -48.2026  -26.4765   14.5207 C.2       9 UNK         0.4988 
     44 O         -47.5188  -27.2096   15.2346 O.2       9 UNK        -0.5108 
     45 CA        -47.8019  -24.9952   14.3686 C.3       8 UNK         0.0248 
     46 CB        -46.6676  -24.8268   13.3477 C.3       8 UNK        -0.2001 
     47 N         -48.9222  -24.1256   13.9962 N.am      8 UNK        -0.4140 
     48 C         -49.9584  -23.8469   14.7993 C.2       8 UNK         0.5028 
     49 O         -50.0499  -24.2554   15.9563 O.2       8 UNK        -0.5428 
     50 CA        -51.1182  -23.0362   14.1991 C.3       7 UNK         0.0264 
     51 CB        -50.9231  -21.5366   14.4707 C.3       7 UNK        -0.1988 
     52 N         -51.3193  -23.2477   12.7616 N.am      7 UNK        -0.4454 
     53 C         -51.6327  -24.4183   12.1835 C.2       7 UNK         0.5027 
     54 O         -51.7168  -25.4825   12.7958 O.2       7 UNK        -0.5083 
     55 CA        -51.8630  -24.3853   10.6590 C.3       6 UNK         0.0844 
     56 C56       -53.2673  -23.7893   10.3727 C.3       14 UNK        -0.0967 
     57 S57       -53.6585  -23.6369    8.5983 S.3       14 UNK        -0.2604 
     58 C58       -55.0303  -24.8237    8.4138 C.3       14 UNK         0.0134 
     59 N         -50.7866  -23.6639    9.9646 N.am      6 UNK        -0.4116 
     60 C         -49.4803  -23.9624   10.0240 C.2       5 UNK         0.5034 
     61 O         -49.0217  -24.9365   10.6311 O.2       5 UNK        -0.5045 
     62 CA        -48.5259  -22.9880    9.3190 C.3       5 UNK         0.0224 
     63 CB        -48.6248  -21.5720    9.9252 C.3       5 UNK        -0.1978 
     64 N         -47.1573  -23.4832    9.4481 N.am      5 UNK        -0.4737 
     65 C         -46.1181  -23.1347    8.6811 C.2       4 UNK         0.5027 
     66 O         -46.1897  -22.3337    7.7485 O.2       4 UNK        -0.5211 
     67 CA        -44.7661  -23.7799    9.0114 C.3       4 UNK         0.0297 
     68 CB        -44.5765  -24.0803   10.5148 C.3       4 UNK        -0.1993 
     69 N         -44.5923  -24.9954    8.2178 N.am      4 UNK        -0.4486 
     70 C         -43.4049  -25.5675    7.9671 C.2       3 UNK         0.4961 
     71 O         -42.3332  -25.0935    8.3474 O.2       3 UNK        -0.5105 
     72 CA        -43.3750  -26.8982    7.1897 C.3       3 UNK         0.0299 
     73 CB        -43.0699  -28.0647    8.1442 C.3       3 UNK        -0.1972 
     74 N         -44.6127  -27.1874    6.4668 N.am      3 UNK        -0.4305 
     75 C         -44.9706  -26.6115    5.3098 C.2       2 UNK         0.5006 
     76 O         -44.2554  -25.8227    4.6908 O.2       2 UNK        -0.5106 
     77 CA        -46.3648  -26.9559    4.7465 C.3       2 UNK         0.0296 
     78 CB        -46.2456  -27.9863    3.6116 C.3       2 UNK        -0.2002 
     79 N         -47.3264  -27.4467    5.7418 N.am      2 UNK        -0.4032 
     80 C         -47.7203  -26.7681    6.8284 C.2       1 UNK         0.5000 
     81 O         -47.3004  -25.6476    7.1215 O.2       1 UNK        -0.5238 
     82 H82       -47.5416  -27.2029   11.5836 H         1 UNK         0.0889 
     83 H83       -45.8330  -27.2929   11.1337 H         1 UNK         0.0889 
     84 H84       -46.7111  -28.7559   11.5877 H         1 UNK         0.0889 
     85 H85       -48.7180  -26.7073    9.7413 H         1 UNK         0.3028 
     86 H86       -48.7696  -28.5263    7.5054 H         1 UNK         0.0864 
     87 H87       -50.7727  -27.2279    8.4403 H         1 UNK         0.0720 
     88 H88       -50.1332  -25.7901    7.7037 H         1 UNK         0.0720 
     89 H89       -51.6417  -29.4376    6.9281 H         1 UNK         0.0814 
     90 H90       -52.7140  -28.9014    5.6555 H         1 UNK         0.0814 
     91 H91       -53.3565  -26.0815    6.7089 H         1 UNK         0.1469 
     92 H92       -55.6451  -26.7558   10.2688 H         1 UNK         0.1381 
     93 H93       -53.2360  -29.9076    8.6465 H         1 UNK         0.1206 
     94 H94       -55.0062  -30.3987   10.2771 H         1 UNK         0.0813 
     95 H95       -55.9912  -29.1249   10.9624 H         1 UNK         0.0813 
     96 H96       -53.5287  -30.9746   13.7541 H         1 UNK         0.0638 
     97 H97       -53.9715  -31.6842   12.2239 H         1 UNK         0.0638 
     98 H98       -56.3257  -31.0948   12.5426 H         1 UNK         0.0568 
     99 H99       -56.3511  -33.3362   15.8788 H         1 UNK         0.3450 
    100 H100      -56.3544  -31.5912   15.9449 H         1 UNK         0.3450 
    101 H101      -55.3855  -29.2567   14.5131 H         1 UNK         0.2987 
    102 H102      -58.5194  -27.7102   14.6797 H         1 UNK         0.0766 
    103 H103      -58.7019  -29.0752   16.7745 H         1 UNK         0.0798 
    104 H104      -58.1169  -27.4558   17.1182 H         1 UNK         0.0798 
    105 H105      -56.9937  -28.8144   17.1053 H         1 UNK         0.0798 
    106 H106      -55.9642  -26.9849   15.7680 H         1 UNK         0.3198 
    107 H107      -54.5008  -25.7837   12.8001 H         1 UNK         0.0843 
    108 H108      -55.6650  -24.1191   15.0919 H         1 UNK         0.0831 
    109 H109      -56.0604  -23.9264   13.3908 H         1 UNK         0.0831 
    110 H110      -54.4283  -23.5996   13.9469 H         1 UNK         0.0831 
    111 H111      -52.9177  -26.2760   14.1840 H         1 UNK         0.3133 
    112 H112      -52.0721  -25.7014   17.1378 H         1 UNK         0.0566 
    113 H113      -52.9513  -28.6152   17.4376 H         1 UNK         0.0814 
    114 H114      -53.1807  -27.3153   18.5923 H         1 UNK         0.0814 
    115 H115      -51.5609  -27.8961   18.2508 H         1 UNK         0.0814 
    116 H116      -50.6329  -26.2458   15.6073 H         1 UNK         0.3091 
    117 H117      -49.2674  -28.8951   14.4865 H         1 UNK         0.0702 
    118 H118      -49.4962  -28.8046   12.0054 H         1 UNK         0.0785 
    119 H119      -51.0733  -28.0361   12.1628 H         1 UNK         0.0785 
    120 H120      -50.8315  -29.6844   12.7235 H         1 UNK         0.0785 
    121 H121      -49.8339  -26.2036   13.3347 H         1 UNK         0.2998 
    122 H122      -47.4293  -24.6650   15.3408 H         1 UNK         0.0697 
    123 H123      -47.0036  -25.0517   12.3377 H         1 UNK         0.0825 
    124 H124      -45.8317  -25.4907   13.5732 H         1 UNK         0.0825 
    125 H125      -46.2808  -23.8077   13.3523 H         1 UNK         0.0825 
    126 H126      -48.9386  -23.7802   13.0476 H         1 UNK         0.3029 
    127 H127      -52.0290  -23.3595   14.7080 H         1 UNK         0.0897 
    128 H128      -50.0437  -21.1431   13.9592 H         1 UNK         0.0792 
    129 H129      -50.7916  -21.3471   15.5372 H         1 UNK         0.0792 
    130 H130      -51.7885  -20.9580   14.1469 H         1 UNK         0.0792 
    131 H131      -51.2579  -22.4274   12.1760 H         1 UNK         0.3086 
    132 H132      -51.8478  -25.4169   10.2996 H         1 UNK         0.0583 
    133 H133      -54.0366  -24.3950   10.8550 H         1 UNK         0.1020 
    134 H134      -53.3634  -22.7920   10.8070 H         1 UNK         0.1020 
    135 H135      -55.7920  -24.6255    9.1696 H         1 UNK         0.0694 
    136 H136      -55.5083  -24.6593    7.4471 H         1 UNK         0.0694 
    137 H137      -51.0812  -22.8710    9.4131 H         1 UNK         0.2989 
    138 H138      -48.7934  -22.9627    8.2601 H         1 UNK         0.1055 
    139 H139      -47.9408  -20.8801    9.4336 H         1 UNK         0.0806 
    140 H140      -48.3854  -21.5726   10.9894 H         1 UNK         0.0806 
    141 H141      -49.6256  -21.1539    9.8132 H         1 UNK         0.0806 
    142 H142      -47.0469  -24.2096   10.1427 H         1 UNK         0.3061 
    143 H143      -44.0037  -23.0561    8.7147 H         1 UNK         0.0734 
    144 H144      -45.1642  -24.9394   10.8335 H         1 UNK         0.0832 
    145 H145      -43.5332  -24.2986   10.7427 H         1 UNK         0.0832 
    146 H146      -44.8624  -23.2262   11.1304 H         1 UNK         0.0832 
    147 H147      -45.4422  -25.3803    7.8110 H         1 UNK         0.3156 
    148 H148      -42.5597  -26.8351    6.4658 H         1 UNK         0.0589 
    149 H149      -43.8354  -28.1680    8.9140 H         1 UNK         0.0808 
    150 H150      -42.1171  -27.9131    8.6534 H         1 UNK         0.0808 
    151 H151      -43.0017  -29.0114    7.6081 H         1 UNK         0.0808 
    152 H152      -45.2608  -27.8215    6.9153 H         1 UNK         0.3098 
    153 H153      -46.7751  -26.0341    4.3289 H         1 UNK         0.0720 
    154 H154      -45.5608  -27.6375    2.8371 H         1 UNK         0.0791 
    155 H155      -47.2085  -28.1635    3.1320 H         1 UNK         0.0791 
    156 H156      -45.8674  -28.9434    3.9735 H         1 UNK         0.0791 
    157 H157      -47.7174  -28.3629    5.5744 H         1 UNK         0.3028 
@<TRIPOS>BOND
     1    1    2 1    
     2    1   82 1    
     3    1   83 1    
     4    1   84 1    
     5    2    3 2    
     6    2    4 am   BACKBONE|DICT|INTERRES
     7    4    5 1    
     8    4   85 1    
     9    5    6 1    
    10    5   80 1    
    11    5   86 1    
    12    6    7 1    
    13    6   87 1    
    14    6   88 1    
    15    7    8 1    
    16    8    9 1    
    17    8   89 1    
    18    8   90 1    
    19    9   10 ar   
    20    9   14 ar   
    21   10   11 ar   
    22   10   91 1    
    23   11   12 ar   
    24   11   58 1    
    25   12   13 ar   
    26   12   92 1    
    27   13   14 ar   
    28   13   15 1    
    29   14   93 1    
    30   15   16 1    
    31   15   94 1    
    32   15   95 1    
    33   16   17 1    
    34   17   18 1    
    35   17   96 1    
    36   17   97 1    
    37   18   19 1    
    38   18   22 1    
    39   18   98 1    
    40   19   20 am   BACKBONE|DICT|INTERRES
    41   19   21 2    
    42   20   99 1    
    43   20  100 1    
    44   22   23 am   BACKBONE|DICT|INTERRES
    45   22  101 1    
    46   23   24 2    
    47   23   25 1    
    48   25   26 1    
    49   25   27 1    
    50   25  102 1    
    51   26  103 1    
    52   26  104 1    
    53   26  105 1    
    54   27   28 am   BACKBONE|DICT|INTERRES
    55   27  106 1    
    56   28   29 2    
    57   28   30 1    
    58   30   31 1    
    59   30   32 1    
    60   30  107 1    
    61   31  108 1    
    62   31  109 1    
    63   31  110 1    
    64   32   33 am   BACKBONE|DICT|INTERRES
    65   32  111 1    
    66   33   34 2    
    67   33   35 1    
    68   35   36 1    
    69   35   37 1    
    70   35  112 1    
    71   36  113 1    
    72   36  114 1    
    73   36  115 1    
    74   37   38 am   BACKBONE|DICT|INTERRES
    75   37  116 1    
    76   38   39 2    
    77   38   40 1    
    78   40   41 1    
    79   40   42 1    
    80   40  117 1    
    81   41  118 1    
    82   41  119 1    
    83   41  120 1    
    84   42   43 am   BACKBONE|DICT|INTERRES
    85   42  121 1    
    86   43   44 2    
    87   43   45 1    
    88   45   46 1    
    89   45   47 1    
    90   45  122 1    
    91   46  123 1    
    92   46  124 1    
    93   46  125 1    
    94   47   48 am   BACKBONE|DICT|INTERRES
    95   47  126 1    
    96   48   49 2    
    97   48   50 1    
    98   50   51 1    
    99   50   52 1    
   100   50  127 1    
   101   51  128 1    
   102   51  129 1    
   103   51  130 1    
   104   52   53 am   BACKBONE|DICT|INTERRES
   105   52  131 1    
   106   53   54 2    
   107   53   55 1    
   108   55   56 1    
   109   55   59 1    
   110   55  132 1    
   111   56   57 1    
   112   56  133 1    
   113   56  134 1    
   114   57   58 1    
   115   58  135 1    
   116   58  136 1    
   117   59   60 am   BACKBONE|DICT|INTERRES
   118   59  137 1    
   119   60   61 2    
   120   60   62 1    
   121   62   63 1    
   122   62   64 1    
   123   62  138 1    
   124   63  139 1    
   125   63  140 1    
   126   63  141 1    
   127   64   65 am   BACKBONE|DICT|INTERRES
   128   64  142 1    
   129   65   66 2    
   130   65   67 1    
   131   67   68 1    
   132   67   69 1    
   133   67  143 1    
   134   68  144 1    
   135   68  145 1    
   136   68  146 1    
   137   69   70 am   BACKBONE|DICT|INTERRES
   138   69  147 1    
   139   70   71 2    
   140   70   72 1    
   141   72   73 1    
   142   72   74 1    
   143   72  148 1    
   144   73  149 1    
   145   73  150 1    
   146   73  151 1    
   147   74   75 am   BACKBONE|DICT|INTERRES
   148   74  152 1    
   149   75   76 2    
   150   75   77 1    
   151   77   78 1    
   152   77   79 1    
   153   77  153 1    
   154   78  154 1    
   155   78  155 1    
   156   78  156 1    
   157   79   80 am   BACKBONE|DICT|INTERRES
   158   79  157 1    
   159   80   81 2    
@<TRIPOS>SUBSTRUCTURE
     1 UNK         1 GROUP             0       ****    0 ROOT    
