@<TRIPOS>MOLECULE
3R207
157   159    1
SMALL
USER_CHARGES


@<TRIPOS>ATOM
      1 CA        -44.0872  -28.6673    6.6350 C.3       0 UNK        -0.1975 
      2 C         -45.1992  -28.7952    5.6046 C.2       0 UNK         0.4852 
      3 O         -45.0152  -28.4049    4.4517 O.2       0 UNK        -0.5216 
      4 N         -46.3579  -29.3295    6.0137 N.am      1 UNK        -0.4461 
      5 CA        -47.5496  -29.5230    5.1752 C.3       1 UNK         0.0864 
      6 C6        -48.4317  -30.6783    5.7181 C.3       14 UNK        -0.0898 
      7 S7        -49.1681  -30.3406    7.3569 S.3       14 UNK        -0.2598 
      8 C8        -50.9221  -30.1540    6.9130 C.3       14 UNK         0.0286 
      9 C9        -51.6398  -29.1995    7.8527 C.ar      14 UNK        -0.0844 
     10 C10       -51.7940  -27.8564    7.4992 C.ar      14 UNK        -0.0881 
     11 C11       -52.5036  -26.9799    8.3258 C.ar      14 UNK        -0.0643 
     12 C12       -53.0595  -27.4558    9.5172 C.ar      14 UNK        -0.0930 
     13 C13       -52.9091  -28.7981    9.8821 C.ar      14 UNK        -0.0827 
     14 C14       -52.1887  -29.6624    9.0512 C.ar      14 UNK        -0.1249 
     15 C15       -53.5439  -29.3241   11.1600 C.3       14 UNK         0.0141 
     16 S16       -54.9609  -30.4029   10.7884 S.3       14 UNK        -0.2313 
     17 C17       -55.5930  -30.7621   12.4609 C.3       14 UNK        -0.0915 
     18 CA        -57.1450  -30.6581   12.5366 C.3       13 UNK         0.0968 
     19 C         -57.8804  -31.9844   12.1803 C.2       13 UNK         0.5732 
     20 N         -58.9862  -32.3230   12.8346 N.am      13 UNK        -0.7310 
     21 O         -57.4581  -32.7188   11.2906 O.2       13 UNK        -0.5035 
     22 N         -57.5810  -30.0870   13.8198 N.am      13 UNK        -0.4233 
     23 C         -57.8242  -28.7922   14.0482 C.2       13 UNK         0.4989 
     24 O         -57.7220  -27.9126   13.1898 O.2       13 UNK        -0.4996 
     25 CA        -58.2960  -28.4015   15.4647 C.3       12 UNK         0.0216 
     26 CB        -58.1074  -29.5059   16.5324 C.3       12 UNK        -0.1964 
     27 N         -57.6987  -27.1366   15.9102 N.am      12 UNK        -0.4276 
     28 C         -56.3963  -26.8818   16.0998 C.2       12 UNK         0.5020 
     29 O         -55.4943  -27.7124   15.9578 O.2       12 UNK        -0.5489 
     30 CA        -56.0558  -25.4543   16.5463 C.3       11 UNK         0.0294 
     31 CB        -56.5190  -25.1931   17.9929 C.3       11 UNK        -0.2019 
     32 N         -54.6139  -25.2478   16.4528 N.am      11 UNK        -0.4493 
     33 C         -54.0006  -24.0768   16.2640 C.2       11 UNK         0.4932 
     34 O         -54.6048  -23.0109   16.1377 O.2       11 UNK        -0.5029 
     35 CA        -52.4616  -24.0643   16.2057 C.3       10 UNK         0.0280 
     36 CB        -51.8635  -23.8271   17.6061 C.3       10 UNK        -0.1976 
     37 N         -51.8364  -25.2195   15.5463 N.am      10 UNK        -0.4242 
     38 C         -51.7843  -26.5008   15.9398 C.2       10 UNK         0.5072 
     39 O         -52.3545  -26.9430   16.9374 O.2       10 UNK        -0.5224 
     40 CA        -50.9277  -27.4462   15.0799 C.3       9 UNK         0.0343 
     41 CB        -51.6708  -27.8493   13.7963 C.3       9 UNK        -0.2003 
     42 N         -49.6254  -26.8639   14.7433 N.am      9 UNK        -0.4272 
     43 C         -48.6612  -26.6034   15.6405 C.2       9 UNK         0.4988 
     44 O         -48.7272  -26.9161   16.8301 O.2       9 UNK        -0.5108 
     45 CA        -47.4141  -25.8586   15.1359 C.3       8 UNK         0.0248 
     46 CB        -46.4199  -26.8385   14.4925 C.3       8 UNK        -0.2001 
     47 N         -47.7358  -24.7813   14.1966 N.am      8 UNK        -0.4140 
     48 C         -48.4107  -23.6669   14.5172 C.2       8 UNK         0.5028 
     49 O         -48.7664  -23.3857   15.6614 O.2       8 UNK        -0.5428 
     50 CA        -48.7749  -22.7106   13.3676 C.3       7 UNK         0.0264 
     51 CB        -47.6086  -21.7597   13.0568 C.3       7 UNK        -0.1988 
     52 N         -49.1813  -23.4079   12.1451 N.am      7 UNK        -0.4454 
     53 C         -50.2633  -24.1950   12.0362 C.2       7 UNK         0.5027 
     54 O         -51.0656  -24.3907   12.9490 O.2       7 UNK        -0.5083 
     55 CA        -50.4522  -24.9159   10.6884 C.3       6 UNK         0.0844 
     56 C56       -51.1199  -23.9650    9.6616 C.3       14 UNK        -0.0967 
     57 S57       -51.1488  -24.5943    7.9499 S.3       14 UNK        -0.2604 
     58 C58       -52.7041  -25.5341    7.8973 C.3       14 UNK         0.0134 
     59 N         -49.1815  -25.4813   10.2299 N.am      6 UNK        -0.4116 
     60 C         -48.5345  -26.4864   10.8372 C.2       5 UNK         0.5034 
     61 O         -48.9587  -27.0770   11.8306 O.2       5 UNK        -0.5045 
     62 CA        -47.1522  -26.8555   10.2758 C.3       5 UNK         0.0224 
     63 CB        -47.2864  -27.8456    9.1139 C.3       5 UNK        -0.1978 
     64 N         -46.3919  -25.6805    9.8417 N.am      5 UNK        -0.4737 
     65 C         -45.9070  -24.7609   10.6889 C.2       4 UNK         0.5027 
     66 O         -46.0085  -24.8443   11.9110 O.2       4 UNK        -0.5211 
     67 CA        -45.2431  -23.5151   10.0801 C.3       4 UNK         0.0297 
     68 CB        -43.7362  -23.7493    9.8941 C.3       4 UNK        -0.1993 
     69 N         -45.8336  -23.1037    8.8057 N.am      4 UNK        -0.4486 
     70 C         -47.1189  -22.7782    8.6107 C.2       3 UNK         0.4961 
     71 O         -47.9636  -22.7544    9.5071 O.2       3 UNK        -0.5105 
     72 CA        -47.5393  -22.4558    7.1657 C.3       3 UNK         0.0299 
     73 CB        -46.3880  -21.8883    6.3056 C.3       3 UNK        -0.1972 
     74 N         -48.1647  -23.5928    6.4781 N.am      3 UNK        -0.4305 
     75 C         -47.6802  -24.8345    6.3233 C.2       2 UNK         0.5006 
     76 O         -46.6486  -25.2560    6.8583 O.2       2 UNK        -0.5106 
     77 CA        -48.4716  -25.7528    5.3796 C.3       2 UNK         0.0296 
     78 CB        -48.4014  -25.2274    3.9291 C.3       2 UNK        -0.2002 
     79 N         -47.8976  -27.0916    5.4695 N.am      2 UNK        -0.4032 
     80 C         -48.3568  -28.2232    4.9209 C.2       1 UNK         0.5000 
     81 O         -49.3815  -28.2776    4.2379 O.2       1 UNK        -0.5238 
     82 H82       -44.3150  -29.2124    7.5507 H         1 UNK         0.0889 
     83 H83       -43.9328  -27.6191    6.8902 H         1 UNK         0.0889 
     84 H84       -43.1546  -29.0620    6.2327 H         1 UNK         0.0889 
     85 H85       -46.4568  -29.6418    6.9695 H         1 UNK         0.3028 
     86 H86       -47.1999  -29.8381    4.1896 H         1 UNK         0.0864 
     87 H87       -49.2130  -30.9296    4.9988 H         1 UNK         0.0720 
     88 H88       -47.8293  -31.5837    5.8065 H         1 UNK         0.0720 
     89 H89       -51.0160  -29.7881    5.8896 H         1 UNK         0.0814 
     90 H90       -51.4026  -31.1334    6.9297 H         1 UNK         0.0814 
     91 H91       -51.3736  -27.4934    6.5708 H         1 UNK         0.1469 
     92 H92       -53.6223  -26.7854   10.1521 H         1 UNK         0.1381 
     93 H93       -52.0790  -30.7029    9.3258 H         1 UNK         0.1206 
     94 H94       -52.8035  -29.8821   11.7348 H         1 UNK         0.0813 
     95 H95       -53.8759  -28.4974   11.7900 H         1 UNK         0.0813 
     96 H96       -55.1352  -30.0520   13.1519 H         1 UNK         0.0638 
     97 H97       -55.2393  -31.7449   12.7774 H         1 UNK         0.0638 
     98 H98       -57.4776  -29.9734   11.7543 H         1 UNK         0.0568 
     99 H99       -59.4522  -33.1827   12.5901 H         1 UNK         0.3450 
    100 H100      -59.3900  -31.7146   13.5279 H         1 UNK         0.3450 
    101 H101      -57.6824  -30.7449   14.5790 H         1 UNK         0.2987 
    102 H102      -59.3671  -28.2133   15.3774 H         1 UNK         0.0766 
    103 H103      -58.4290  -29.1579   17.5142 H         1 UNK         0.0798 
    104 H104      -57.0659  -29.8180   16.6213 H         1 UNK         0.0798 
    105 H105      -58.7037  -30.3899   16.3038 H         1 UNK         0.0798 
    106 H106      -58.3499  -26.3718   16.0238 H         1 UNK         0.3198 
    107 H107      -56.5618  -24.7631   15.8684 H         1 UNK         0.0843 
    108 H108      -56.0368  -25.8738   18.6958 H         1 UNK         0.0831 
    109 H109      -57.5964  -25.3251   18.0972 H         1 UNK         0.0831 
    110 H110      -56.2905  -24.1741   18.3057 H         1 UNK         0.0831 
    111 H111      -54.0502  -26.0925   16.5349 H         1 UNK         0.3133 
    112 H112      -52.1846  -23.2086   15.5877 H         1 UNK         0.0566 
    113 H113      -50.7774  -23.7440   17.5634 H         1 UNK         0.0814 
    114 H114      -52.2432  -22.9008   18.0391 H         1 UNK         0.0814 
    115 H115      -52.1112  -24.6328   18.2977 H         1 UNK         0.0814 
    116 H116      -51.3953  -24.9935   14.6558 H         1 UNK         0.3091 
    117 H117      -50.7474  -28.3524   15.6621 H         1 UNK         0.0702 
    118 H118      -52.6332  -28.3048   14.0340 H         1 UNK         0.0785 
    119 H119      -51.8644  -26.9932   13.1496 H         1 UNK         0.0785 
    120 H120      -51.0977  -28.5764   13.2205 H         1 UNK         0.0785 
    121 H121      -49.4600  -26.6423   13.7668 H         1 UNK         0.2998 
    122 H122      -46.9271  -25.4057   16.0020 H         1 UNK         0.0697 
    123 H123      -46.8350  -27.3088   13.6009 H         1 UNK         0.0825 
    124 H124      -46.1521  -27.6355   15.1874 H         1 UNK         0.0825 
    125 H125      -45.4963  -26.3352   14.2061 H         1 UNK         0.0825 
    126 H126      -47.3822  -24.8829   13.2487 H         1 UNK         0.3029 
    127 H127      -49.6249  -22.1096   13.6982 H         1 UNK         0.0897 
    128 H128      -47.8659  -21.0594   12.2618 H         1 UNK         0.0792 
    129 H129      -46.7156  -22.3034   12.7495 H         1 UNK         0.0792 
    130 H130      -47.3433  -21.1709   13.9359 H         1 UNK         0.0792 
    131 H131      -48.6020  -23.2714   11.3209 H         1 UNK         0.3086 
    132 H132      -51.1322  -25.7531   10.8575 H         1 UNK         0.0583 
    133 H133      -52.1382  -23.7283    9.9756 H         1 UNK         0.1020 
    134 H134      -50.5974  -23.0071    9.6283 H         1 UNK         0.1020 
    135 H135      -53.4646  -25.0412    8.5045 H         1 UNK         0.0694 
    136 H136      -53.0809  -25.5215    6.8736 H         1 UNK         0.0694 
    137 H137      -48.7426  -25.0126    9.4509 H         1 UNK         0.2989 
    138 H138      -46.5903  -27.3445   11.0747 H         1 UNK         0.1055 
    139 H139      -47.7611  -28.7670    9.4533 H         1 UNK         0.0806 
    140 H140      -46.3112  -28.1111    8.7089 H         1 UNK         0.0806 
    141 H141      -47.8974  -27.4435    8.3056 H         1 UNK         0.0806 
    142 H142      -46.2969  -25.5245    8.8421 H         1 UNK         0.3061 
    143 H143      -45.3778  -22.6917   10.7837 H         1 UNK         0.0734 
    144 H144      -43.2327  -22.8467    9.5472 H         1 UNK         0.0832 
    145 H145      -43.2681  -24.0369   10.8367 H         1 UNK         0.0832 
    146 H146      -43.5364  -24.5450    9.1752 H         1 UNK         0.0832 
    147 H147      -45.2330  -23.1407    7.9949 H         1 UNK         0.3156 
    148 H148      -48.3043  -21.6813    7.2403 H         1 UNK         0.0589 
    149 H149      -45.6273  -22.6368    6.0807 H         1 UNK         0.0808 
    150 H150      -46.7642  -21.5131    5.3537 H         1 UNK         0.0808 
    151 H151      -45.8964  -21.0518    6.8046 H         1 UNK         0.0808 
    152 H152      -49.0544  -23.3859    6.0456 H         1 UNK         0.3098 
    153 H153      -49.5094  -25.7938    5.7138 H         1 UNK         0.0720 
    154 H154      -48.9811  -25.8471    3.2455 H         1 UNK         0.0791 
    155 H155      -47.3739  -25.2008    3.5636 H         1 UNK         0.0791 
    156 H156      -48.8022  -24.2164    3.8494 H         1 UNK         0.0791 
    157 H157      -47.0482  -27.1232    6.0202 H         1 UNK         0.3028 
@<TRIPOS>BOND
     1    1    2 1    
     2    1   82 1    
     3    1   83 1    
     4    1   84 1    
     5    2    3 2    
     6    2    4 am   BACKBONE|DICT|INTERRES
     7    4    5 1    
     8    4   85 1    
     9    5    6 1    
    10    5   80 1    
    11    5   86 1    
    12    6    7 1    
    13    6   87 1    
    14    6   88 1    
    15    7    8 1    
    16    8    9 1    
    17    8   89 1    
    18    8   90 1    
    19    9   10 ar   
    20    9   14 ar   
    21   10   11 ar   
    22   10   91 1    
    23   11   12 ar   
    24   11   58 1    
    25   12   13 ar   
    26   12   92 1    
    27   13   14 ar   
    28   13   15 1    
    29   14   93 1    
    30   15   16 1    
    31   15   94 1    
    32   15   95 1    
    33   16   17 1    
    34   17   18 1    
    35   17   96 1    
    36   17   97 1    
    37   18   19 1    
    38   18   22 1    
    39   18   98 1    
    40   19   20 am   BACKBONE|DICT|INTERRES
    41   19   21 2    
    42   20   99 1    
    43   20  100 1    
    44   22   23 am   BACKBONE|DICT|INTERRES
    45   22  101 1    
    46   23   24 2    
    47   23   25 1    
    48   25   26 1    
    49   25   27 1    
    50   25  102 1    
    51   26  103 1    
    52   26  104 1    
    53   26  105 1    
    54   27   28 am   BACKBONE|DICT|INTERRES
    55   27  106 1    
    56   28   29 2    
    57   28   30 1    
    58   30   31 1    
    59   30   32 1    
    60   30  107 1    
    61   31  108 1    
    62   31  109 1    
    63   31  110 1    
    64   32   33 am   BACKBONE|DICT|INTERRES
    65   32  111 1    
    66   33   34 2    
    67   33   35 1    
    68   35   36 1    
    69   35   37 1    
    70   35  112 1    
    71   36  113 1    
    72   36  114 1    
    73   36  115 1    
    74   37   38 am   BACKBONE|DICT|INTERRES
    75   37  116 1    
    76   38   39 2    
    77   38   40 1    
    78   40   41 1    
    79   40   42 1    
    80   40  117 1    
    81   41  118 1    
    82   41  119 1    
    83   41  120 1    
    84   42   43 am   BACKBONE|DICT|INTERRES
    85   42  121 1    
    86   43   44 2    
    87   43   45 1    
    88   45   46 1    
    89   45   47 1    
    90   45  122 1    
    91   46  123 1    
    92   46  124 1    
    93   46  125 1    
    94   47   48 am   BACKBONE|DICT|INTERRES
    95   47  126 1    
    96   48   49 2    
    97   48   50 1    
    98   50   51 1    
    99   50   52 1    
   100   50  127 1    
   101   51  128 1    
   102   51  129 1    
   103   51  130 1    
   104   52   53 am   BACKBONE|DICT|INTERRES
   105   52  131 1    
   106   53   54 2    
   107   53   55 1    
   108   55   56 1    
   109   55   59 1    
   110   55  132 1    
   111   56   57 1    
   112   56  133 1    
   113   56  134 1    
   114   57   58 1    
   115   58  135 1    
   116   58  136 1    
   117   59   60 am   BACKBONE|DICT|INTERRES
   118   59  137 1    
   119   60   61 2    
   120   60   62 1    
   121   62   63 1    
   122   62   64 1    
   123   62  138 1    
   124   63  139 1    
   125   63  140 1    
   126   63  141 1    
   127   64   65 am   BACKBONE|DICT|INTERRES
   128   64  142 1    
   129   65   66 2    
   130   65   67 1    
   131   67   68 1    
   132   67   69 1    
   133   67  143 1    
   134   68  144 1    
   135   68  145 1    
   136   68  146 1    
   137   69   70 am   BACKBONE|DICT|INTERRES
   138   69  147 1    
   139   70   71 2    
   140   70   72 1    
   141   72   73 1    
   142   72   74 1    
   143   72  148 1    
   144   73  149 1    
   145   73  150 1    
   146   73  151 1    
   147   74   75 am   BACKBONE|DICT|INTERRES
   148   74  152 1    
   149   75   76 2    
   150   75   77 1    
   151   77   78 1    
   152   77   79 1    
   153   77  153 1    
   154   78  154 1    
   155   78  155 1    
   156   78  156 1    
   157   79   80 am   BACKBONE|DICT|INTERRES
   158   79  157 1    
   159   80   81 2    
@<TRIPOS>SUBSTRUCTURE
     1 UNK         1 GROUP             0       ****    0 ROOT    
