@<TRIPOS>MOLECULE
3R207
157   159    1
SMALL
USER_CHARGES


@<TRIPOS>ATOM
      1 CA        -48.1853  -27.9097    1.4909 C.3       0 UNK        -0.1975 
      2 C         -48.8025  -26.9673    2.5134 C.2       0 UNK         0.4852 
      3 O         -48.1674  -25.9889    2.9080 O.2       0 UNK        -0.5216 
      4 N         -50.0321  -27.2597    2.9590 N.am      1 UNK        -0.4461 
      5 CA        -50.7946  -26.4527    3.9222 C.3       1 UNK         0.0864 
      6 C6        -52.3210  -26.6837    3.7762 C.3       14 UNK        -0.0898 
      7 S7        -52.8753  -28.3891    4.1417 S.3       14 UNK        -0.2598 
      8 C8        -54.4920  -28.0893    4.9329 C.3       14 UNK         0.0286 
      9 C9        -54.4117  -28.0895    6.4555 C.ar      14 UNK        -0.0844 
     10 C10       -53.8287  -27.0171    7.1397 C.ar      14 UNK        -0.0881 
     11 C11       -53.7697  -27.0095    8.5366 C.ar      14 UNK        -0.0643 
     12 C12       -54.3270  -28.0708    9.2523 C.ar      14 UNK        -0.0930 
     13 C13       -54.9052  -29.1525    8.5833 C.ar      14 UNK        -0.0827 
     14 C14       -54.9438  -29.1587    7.1856 C.ar      14 UNK        -0.1249 
     15 C15       -55.4658  -30.3147    9.3853 C.3       14 UNK         0.0141 
     16 S16       -54.1122  -31.3243   10.0567 S.3       14 UNK        -0.2313 
     17 C17       -54.9327  -32.1443   11.4646 C.3       14 UNK        -0.0915 
     18 CA        -55.0685  -31.2538   12.7402 C.3       13 UNK         0.0968 
     19 C         -55.7087  -32.0285   13.9322 C.2       13 UNK         0.5732 
     20 N         -55.2781  -31.8327   15.1738 N.am      13 UNK        -0.7310 
     21 O         -56.6428  -32.8024   13.7346 O.2       13 UNK        -0.5035 
     22 N         -53.8540  -30.4960   13.0867 N.am      13 UNK        -0.4233 
     23 C         -52.6460  -31.0045   13.3644 C.2       13 UNK         0.4989 
     24 O         -52.3632  -32.2021   13.3162 O.2       13 UNK        -0.4996 
     25 CA        -51.5670  -29.9953   13.7991 C.3       12 UNK         0.0216 
     26 CB        -50.8600  -29.4201   12.5607 C.3       12 UNK        -0.1964 
     27 N         -52.0690  -28.8820   14.6138 N.am      12 UNK        -0.4276 
     28 C         -52.8055  -28.9725   15.7316 C.2       12 UNK         0.5020 
     29 O         -53.1646  -30.0405   16.2303 O.2       12 UNK        -0.5489 
     30 CA        -53.2332  -27.6553   16.4057 C.3       11 UNK         0.0294 
     31 CB        -52.4922  -27.4762   17.7403 C.3       11 UNK        -0.2019 
     32 N         -53.0486  -26.4544   15.5779 N.am      11 UNK        -0.4493 
     33 C         -53.7659  -26.1694   14.4779 C.2       11 UNK         0.4932 
     34 O         -54.6059  -26.9408   14.0114 O.2       11 UNK        -0.5029 
     35 CA        -53.4859  -24.8348   13.7504 C.3       10 UNK         0.0280 
     36 CB        -54.7502  -24.2495   13.0871 C.3       10 UNK        -0.1976 
     37 N         -52.8042  -23.8188   14.5650 N.am      10 UNK        -0.4242 
     38 C         -53.2466  -23.2493   15.6967 C.2       10 UNK         0.5072 
     39 O         -54.3475  -23.4900   16.1963 O.2       10 UNK        -0.5224 
     40 CA        -52.2876  -22.2598   16.3983 C.3       9 UNK         0.0343 
     41 CB        -52.6980  -21.9848   17.8603 C.3       9 UNK        -0.2003 
     42 N         -50.8645  -22.6323   16.3527 N.am      9 UNK        -0.4272 
     43 C         -50.3087  -23.8041   16.6966 C.2       9 UNK         0.4988 
     44 O         -50.9599  -24.8049   16.9968 O.2       9 UNK        -0.5108 
     45 CA        -48.7670  -23.8677   16.6751 C.3       8 UNK         0.0248 
     46 CB        -48.2263  -25.2339   17.1375 C.3       8 UNK        -0.2001 
     47 N         -48.2468  -23.5751   15.3386 N.am      8 UNK        -0.4140 
     48 C         -48.1059  -22.3442   14.8216 C.2       8 UNK         0.5028 
     49 O         -48.2899  -21.3133   15.4704 O.2       8 UNK        -0.5428 
     50 CA        -47.7871  -22.2356   13.3162 C.3       7 UNK         0.0264 
     51 CB        -46.2683  -22.1567   13.0945 C.3       7 UNK        -0.1988 
     52 N         -48.3346  -23.3359   12.5161 N.am      7 UNK        -0.4454 
     53 C         -49.6175  -23.7301   12.5094 C.2       7 UNK         0.5027 
     54 O         -50.5227  -23.1034   13.0617 O.2       7 UNK        -0.5083 
     55 CA        -49.9567  -25.0828   11.8529 C.3       6 UNK         0.0844 
     56 C56       -50.7783  -24.8779   10.5605 C.3       14 UNK        -0.0967 
     57 S57       -51.5138  -26.4430    9.9991 S.3       14 UNK        -0.2604 
     58 C58       -53.0822  -25.8736    9.2777 C.3       14 UNK         0.0134 
     59 N         -48.7928  -25.9567   11.6545 N.am      6 UNK        -0.4116 
     60 C         -48.0414  -26.4807   12.6352 C.2       5 UNK         0.5034 
     61 O         -48.2261  -26.2523   13.8308 O.2       5 UNK        -0.5045 
     62 CA        -46.8642  -27.3695   12.2119 C.3       5 UNK         0.0224 
     63 CB        -47.3418  -28.7798   11.8303 C.3       5 UNK        -0.1978 
     64 N         -46.1505  -26.7757   11.0821 N.am      5 UNK        -0.4737 
     65 C         -45.0845  -25.9730   11.1976 C.2       4 UNK         0.5027 
     66 O         -44.5462  -25.7002   12.2705 O.2       4 UNK        -0.5211 
     67 CA        -44.5206  -25.3624    9.9011 C.3       4 UNK         0.0297 
     68 CB        -43.3805  -26.2338    9.3501 C.3       4 UNK        -0.1993 
     69 N         -45.5287  -25.1658    8.8552 N.am      4 UNK        -0.4486 
     70 C         -46.5562  -24.3105    8.9427 C.2       3 UNK         0.4961 
     71 O         -46.7619  -23.5813    9.9127 O.2       3 UNK        -0.5105 
     72 CA        -47.5457  -24.2896    7.7657 C.3       3 UNK         0.0299 
     73 CB        -47.0618  -23.3194    6.6766 C.3       3 UNK        -0.1972 
     74 N         -47.8390  -25.5946    7.1582 N.am      3 UNK        -0.4305 
     75 C         -48.2554  -26.6963    7.8030 C.2       2 UNK         0.5006 
     76 O         -48.2319  -26.8128    9.0291 O.2       2 UNK        -0.5106 
     77 CA        -48.7678  -27.8696    6.9377 C.3       2 UNK         0.0296 
     78 CB        -49.7633  -28.7754    7.6930 C.3       2 UNK        -0.2002 
     79 N         -49.3399  -27.4856    5.6380 N.am      2 UNK        -0.4032 
     80 C         -50.3140  -26.5922    5.3864 C.2       1 UNK         0.5000 
     81 O         -50.8271  -25.8741    6.2449 O.2       1 UNK        -0.5238 
     82 H82       -47.9626  -27.3698    0.5710 H         1 UNK         0.0889 
     83 H83       -47.2544  -28.3248    1.8761 H         1 UNK         0.0889 
     84 H84       -48.8504  -28.7375    1.2453 H         1 UNK         0.0889 
     85 H85       -50.5085  -28.0828    2.6154 H         1 UNK         0.3028 
     86 H86       -50.6184  -25.4052    3.6666 H         1 UNK         0.0864 
     87 H87       -52.6256  -26.4508    2.7547 H         1 UNK         0.0720 
     88 H88       -52.8634  -25.9732    4.4007 H         1 UNK         0.0720 
     89 H89       -55.1811  -28.8654    4.5961 H         1 UNK         0.0814 
     90 H90       -54.9181  -27.1476    4.5842 H         1 UNK         0.0814 
     91 H91       -53.4043  -26.1921    6.5871 H         1 UNK         0.1469 
     92 H92       -54.2774  -28.0711   10.3329 H         1 UNK         0.1381 
     93 H93       -55.3894  -29.9965    6.6666 H         1 UNK         0.1206 
     94 H94       -56.1160  -30.9404    8.7721 H         1 UNK         0.0813 
     95 H95       -56.0827  -29.9239   10.1951 H         1 UNK         0.0813 
     96 H96       -55.9138  -32.4904   11.1346 H         1 UNK         0.0638 
     97 H97       -54.3611  -33.0449   11.6943 H         1 UNK         0.0638 
     98 H98       -55.8035  -30.4837   12.5075 H         1 UNK         0.0568 
     99 H99       -54.5097  -31.2012   15.3772 H         1 UNK         0.3450 
    100 H100      -55.7177  -32.3372   15.9264 H         1 UNK         0.3450 
    101 H101      -53.9815  -29.4993   13.1903 H         1 UNK         0.2987 
    102 H102      -50.8328  -30.5319   14.4035 H         1 UNK         0.0766 
    103 H103      -50.3705  -30.2087   11.9874 H         1 UNK         0.0798 
    104 H104      -50.0967  -28.6958   12.8402 H         1 UNK         0.0798 
    105 H105      -51.5609  -28.9199   11.8901 H         1 UNK         0.0798 
    106 H106      -51.8299  -27.9527   14.3018 H         1 UNK         0.3198 
    107 H107      -54.2999  -27.7434   16.6230 H         1 UNK         0.0843 
    108 H108      -52.8210  -26.5761   18.2606 H         1 UNK         0.0831 
    109 H109      -51.4135  -27.4050   17.5951 H         1 UNK         0.0831 
    110 H110      -52.6754  -28.3201   18.4068 H         1 UNK         0.0831 
    111 H111      -52.3747  -25.7743   15.9207 H         1 UNK         0.3133 
    112 H112      -52.7964  -25.0819   12.9447 H         1 UNK         0.0566 
    113 H113      -55.1729  -24.9466   12.3625 H         1 UNK         0.0814 
    114 H114      -55.5283  -24.0324   13.8195 H         1 UNK         0.0814 
    115 H115      -54.5258  -23.3273   12.5512 H         1 UNK         0.0814 
    116 H116      -51.8963  -23.5209   14.2103 H         1 UNK         0.3091 
    117 H117      -52.3733  -21.3219   15.8481 H         1 UNK         0.0702 
    118 H118      -52.0400  -21.2515   18.3265 H         1 UNK         0.0785 
    119 H119      -52.6671  -22.8939   18.4622 H         1 UNK         0.0785 
    120 H120      -53.7124  -21.5880   17.9184 H         1 UNK         0.0785 
    121 H121      -50.2257  -21.8968   16.0679 H         1 UNK         0.2998 
    122 H122      -48.4005  -23.1139   17.3750 H         1 UNK         0.0697 
    123 H123      -47.1364  -25.2517   17.1356 H         1 UNK         0.0825 
    124 H124      -48.5527  -25.4583   18.1538 H         1 UNK         0.0825 
    125 H125      -48.5758  -26.0455   16.4981 H         1 UNK         0.0825 
    126 H126      -48.1233  -24.3767   14.7283 H         1 UNK         0.3029 
    127 H127      -48.2399  -21.3109   12.9528 H         1 UNK         0.0897 
    128 H128      -46.0298  -21.9662   12.0479 H         1 UNK         0.0792 
    129 H129      -45.8285  -21.3464   13.6778 H         1 UNK         0.0792 
    130 H130      -45.7688  -23.0812   13.3882 H         1 UNK         0.0792 
    131 H131      -47.6731  -23.8541   11.9507 H         1 UNK         0.3086 
    132 H132      -50.5942  -25.5998   12.5721 H         1 UNK         0.0583 
    133 H133      -51.5827  -24.1571   10.7228 H         1 UNK         0.1020 
    134 H134      -50.1563  -24.4722    9.7615 H         1 UNK         0.1020 
    135 H135      -53.7339  -25.4966   10.0674 H         1 UNK         0.0694 
    136 H136      -52.8847  -25.0396    8.6020 H         1 UNK         0.0694 
    137 H137      -48.5967  -26.2266   10.6916 H         1 UNK         0.2989 
    138 H138      -46.1909  -27.4634   13.0674 H         1 UNK         0.1055 
    139 H139      -47.7910  -29.2819   12.6877 H         1 UNK         0.0806 
    140 H140      -48.0845  -28.7591   11.0312 H         1 UNK         0.0806 
    141 H141      -46.5107  -29.4012   11.4963 H         1 UNK         0.0806 
    142 H142      -46.5777  -26.8915   10.1686 H         1 UNK         0.3061 
    143 H143      -44.1097  -24.3827   10.1550 H         1 UNK         0.0734 
    144 H144      -42.9110  -25.7728    8.4809 H         1 UNK         0.0832 
    145 H145      -42.6007  -26.3743   10.1001 H         1 UNK         0.0832 
    146 H146      -43.7330  -27.2241    9.0586 H         1 UNK         0.0832 
    147 H147      -45.4496  -25.7344    8.0246 H         1 UNK         0.3156 
    148 H148      -48.4918  -23.9078    8.1524 H         1 UNK         0.0589 
    149 H149      -47.8140  -23.1883    5.8982 H         1 UNK         0.0808 
    150 H150      -46.8573  -22.3325    7.0947 H         1 UNK         0.0808 
    151 H151      -46.1441  -23.6691    6.2020 H         1 UNK         0.0808 
    152 H152      -47.8771  -25.6127    6.1493 H         1 UNK         0.3098 
    153 H153      -47.8848  -28.4705    6.7166 H         1 UNK         0.0720 
    154 H154      -49.3627  -29.1060    8.6520 H         1 UNK         0.0791 
    155 H155      -50.7029  -28.2595    7.8903 H         1 UNK         0.0791 
    156 H156      -49.9965  -29.6706    7.1170 H         1 UNK         0.0791 
    157 H157      -48.9812  -27.9923    4.8413 H         1 UNK         0.3028 
@<TRIPOS>BOND
     1    1    2 1    
     2    1   82 1    
     3    1   83 1    
     4    1   84 1    
     5    2    3 2    
     6    2    4 am   BACKBONE|DICT|INTERRES
     7    4    5 1    
     8    4   85 1    
     9    5    6 1    
    10    5   80 1    
    11    5   86 1    
    12    6    7 1    
    13    6   87 1    
    14    6   88 1    
    15    7    8 1    
    16    8    9 1    
    17    8   89 1    
    18    8   90 1    
    19    9   10 ar   
    20    9   14 ar   
    21   10   11 ar   
    22   10   91 1    
    23   11   12 ar   
    24   11   58 1    
    25   12   13 ar   
    26   12   92 1    
    27   13   14 ar   
    28   13   15 1    
    29   14   93 1    
    30   15   16 1    
    31   15   94 1    
    32   15   95 1    
    33   16   17 1    
    34   17   18 1    
    35   17   96 1    
    36   17   97 1    
    37   18   19 1    
    38   18   22 1    
    39   18   98 1    
    40   19   20 am   BACKBONE|DICT|INTERRES
    41   19   21 2    
    42   20   99 1    
    43   20  100 1    
    44   22   23 am   BACKBONE|DICT|INTERRES
    45   22  101 1    
    46   23   24 2    
    47   23   25 1    
    48   25   26 1    
    49   25   27 1    
    50   25  102 1    
    51   26  103 1    
    52   26  104 1    
    53   26  105 1    
    54   27   28 am   BACKBONE|DICT|INTERRES
    55   27  106 1    
    56   28   29 2    
    57   28   30 1    
    58   30   31 1    
    59   30   32 1    
    60   30  107 1    
    61   31  108 1    
    62   31  109 1    
    63   31  110 1    
    64   32   33 am   BACKBONE|DICT|INTERRES
    65   32  111 1    
    66   33   34 2    
    67   33   35 1    
    68   35   36 1    
    69   35   37 1    
    70   35  112 1    
    71   36  113 1    
    72   36  114 1    
    73   36  115 1    
    74   37   38 am   BACKBONE|DICT|INTERRES
    75   37  116 1    
    76   38   39 2    
    77   38   40 1    
    78   40   41 1    
    79   40   42 1    
    80   40  117 1    
    81   41  118 1    
    82   41  119 1    
    83   41  120 1    
    84   42   43 am   BACKBONE|DICT|INTERRES
    85   42  121 1    
    86   43   44 2    
    87   43   45 1    
    88   45   46 1    
    89   45   47 1    
    90   45  122 1    
    91   46  123 1    
    92   46  124 1    
    93   46  125 1    
    94   47   48 am   BACKBONE|DICT|INTERRES
    95   47  126 1    
    96   48   49 2    
    97   48   50 1    
    98   50   51 1    
    99   50   52 1    
   100   50  127 1    
   101   51  128 1    
   102   51  129 1    
   103   51  130 1    
   104   52   53 am   BACKBONE|DICT|INTERRES
   105   52  131 1    
   106   53   54 2    
   107   53   55 1    
   108   55   56 1    
   109   55   59 1    
   110   55  132 1    
   111   56   57 1    
   112   56  133 1    
   113   56  134 1    
   114   57   58 1    
   115   58  135 1    
   116   58  136 1    
   117   59   60 am   BACKBONE|DICT|INTERRES
   118   59  137 1    
   119   60   61 2    
   120   60   62 1    
   121   62   63 1    
   122   62   64 1    
   123   62  138 1    
   124   63  139 1    
   125   63  140 1    
   126   63  141 1    
   127   64   65 am   BACKBONE|DICT|INTERRES
   128   64  142 1    
   129   65   66 2    
   130   65   67 1    
   131   67   68 1    
   132   67   69 1    
   133   67  143 1    
   134   68  144 1    
   135   68  145 1    
   136   68  146 1    
   137   69   70 am   BACKBONE|DICT|INTERRES
   138   69  147 1    
   139   70   71 2    
   140   70   72 1    
   141   72   73 1    
   142   72   74 1    
   143   72  148 1    
   144   73  149 1    
   145   73  150 1    
   146   73  151 1    
   147   74   75 am   BACKBONE|DICT|INTERRES
   148   74  152 1    
   149   75   76 2    
   150   75   77 1    
   151   77   78 1    
   152   77   79 1    
   153   77  153 1    
   154   78  154 1    
   155   78  155 1    
   156   78  156 1    
   157   79   80 am   BACKBONE|DICT|INTERRES
   158   79  157 1    
   159   80   81 2    
@<TRIPOS>SUBSTRUCTURE
     1 UNK         1 GROUP             0       ****    0 ROOT    
