@<TRIPOS>MOLECULE
3R207
157   159    1
SMALL
USER_CHARGES


@<TRIPOS>ATOM
      1 CA        -50.2517  -30.0647    8.6682 C.3       0 UNK        -0.1975 
      2 C         -49.7216  -28.7457    8.1298 C.2       0 UNK         0.4852 
      3 O         -49.3357  -27.8742    8.9078 O.2       0 UNK        -0.5216 
      4 N         -49.6701  -28.6183    6.7971 N.am      1 UNK        -0.4461 
      5 CA        -49.1890  -27.4713    6.0070 C.3       1 UNK         0.0864 
      6 C6        -49.9585  -26.1494    6.2659 C.3       14 UNK        -0.0898 
      7 S7        -51.7018  -26.2877    5.7507 S.3       14 UNK        -0.2598 
      8 C8        -52.4948  -24.9977    6.7706 C.3       14 UNK         0.0286 
      9 C9        -52.5887  -25.3097    8.2650 C.ar      14 UNK        -0.0844 
     10 C10       -52.6009  -24.2487    9.1741 C.ar      14 UNK        -0.0881 
     11 C11       -52.7127  -24.4827   10.5472 C.ar      14 UNK        -0.0643 
     12 C12       -52.8176  -25.7947   11.0159 C.ar      14 UNK        -0.0930 
     13 C13       -52.8198  -26.8716   10.1222 C.ar      14 UNK        -0.0827 
     14 C14       -52.7119  -26.6178    8.7503 C.ar      14 UNK        -0.1249 
     15 C15       -52.9889  -28.3119   10.6002 C.3       14 UNK         0.0141 
     16 S16       -52.0581  -28.7206   12.1175 S.3       14 UNK        -0.2313 
     17 C17       -53.3815  -28.5668   13.3638 C.3       14 UNK        -0.0915 
     18 CA        -54.2301  -29.8649   13.4941 C.3       13 UNK         0.0968 
     19 C         -53.7474  -30.7854   14.6549 C.2       13 UNK         0.5732 
     20 N         -54.5761  -31.1230   15.6379 N.am      13 UNK        -0.7310 
     21 O         -52.5990  -31.2203   14.6567 O.2       13 UNK        -0.5035 
     22 N         -55.6635  -29.5485   13.5358 N.am      13 UNK        -0.4233 
     23 C         -56.6427  -30.3699   13.1321 C.2       13 UNK         0.4989 
     24 O         -56.4375  -31.4477   12.5709 O.2       13 UNK        -0.4996 
     25 CA        -58.0960  -29.9138   13.3960 C.3       12 UNK         0.0216 
     26 CB        -59.0636  -31.1039   13.5743 C.3       12 UNK        -0.1964 
     27 N         -58.2310  -28.9673   14.5140 N.am      12 UNK        -0.4276 
     28 C         -57.8562  -29.1688   15.7852 C.2       12 UNK         0.5020 
     29 O         -57.3747  -30.2226   16.2099 O.2       12 UNK        -0.5489 
     30 CA        -57.9994  -27.9671   16.7330 C.3       11 UNK         0.0294 
     31 CB        -59.1972  -28.1622   17.6762 C.3       11 UNK        -0.2019 
     32 N         -56.7837  -27.7604   17.5240 N.am      11 UNK        -0.4493 
     33 C         -55.5692  -27.5047   17.0182 C.2       11 UNK         0.4932 
     34 O         -55.3356  -27.3757   15.8132 O.2       11 UNK        -0.5029 
     35 CA        -54.4253  -27.4281   18.0441 C.3       10 UNK         0.0280 
     36 CB        -53.8949  -28.8363   18.3605 C.3       10 UNK        -0.1976 
     37 N         -53.3059  -26.6013   17.5946 N.am      10 UNK        -0.4242 
     38 C         -53.3364  -25.2780   17.3835 C.2       10 UNK         0.5072 
     39 O         -54.3336  -24.5788   17.5720 O.2       10 UNK        -0.5224 
     40 CA        -52.0245  -24.6063   16.9259 C.3       9 UNK         0.0343 
     41 CB        -51.5411  -23.5886   17.9741 C.3       9 UNK        -0.2003 
     42 N         -50.9434  -25.5663   16.6713 N.am      9 UNK        -0.4272 
     43 C         -50.7554  -26.2025   15.5096 C.2       9 UNK         0.4988 
     44 O         -51.4440  -26.0201   14.5043 O.2       9 UNK        -0.5108 
     45 CA        -49.6271  -27.2378   15.4801 C.3       8 UNK         0.0248 
     46 CB        -50.1009  -28.5937   16.0358 C.3       8 UNK        -0.2001 
     47 N         -49.1825  -27.3934   14.1011 N.am      8 UNK        -0.4140 
     48 C         -47.9584  -27.7650   13.7102 C.2       8 UNK         0.5028 
     49 O         -47.0623  -28.1032   14.4853 O.2       8 UNK        -0.5428 
     50 CA        -47.6758  -27.7398   12.1967 C.3       7 UNK         0.0264 
     51 CB        -47.9927  -29.1117   11.5815 C.3       7 UNK        -0.1988 
     52 N         -48.4146  -26.6836   11.4904 N.am      7 UNK        -0.4454 
     53 C         -48.2016  -25.3726   11.6818 C.2       7 UNK         0.5027 
     54 O         -47.2905  -24.9260   12.3837 O.2       7 UNK        -0.5083 
     55 CA        -49.1940  -24.3827   11.0395 C.3       6 UNK         0.0844 
     56 C56       -50.0046  -23.6632   12.1496 C.3       14 UNK        -0.0967 
     57 S57       -51.1561  -22.4002   11.5115 S.3       14 UNK        -0.2604 
     58 C58       -52.7294  -23.3143   11.5216 C.3       14 UNK         0.0134 
     59 N         -48.4953  -23.4297   10.1749 N.am      6 UNK        -0.4116 
     60 C         -47.8984  -23.7517    9.0240 C.2       5 UNK         0.5034 
     61 O         -47.8720  -24.8956    8.5712 O.2       5 UNK        -0.5045 
     62 CA        -47.2316  -22.6029    8.2524 C.3       5 UNK         0.0224 
     63 CB        -45.9505  -22.1340    8.9640 C.3       5 UNK        -0.1978 
     64 N         -46.8773  -23.0721    6.9140 N.am      5 UNK        -0.4737 
     65 C         -47.4466  -22.6732    5.7705 C.2       4 UNK         0.5027 
     66 O         -48.2704  -21.7593    5.7101 O.2       4 UNK        -0.5211 
     67 CA        -47.0763  -23.4333    4.4779 C.3       4 UNK         0.0297 
     68 CB        -46.9256  -22.4935    3.2625 C.3       4 UNK        -0.1993 
     69 N         -45.9216  -24.3312    4.6133 N.am      4 UNK        -0.4486 
     70 C         -44.6359  -23.9988    4.8131 C.2       3 UNK         0.4961 
     71 O         -44.2178  -22.8402    4.8301 O.2       3 UNK        -0.5105 
     72 CA        -43.6609  -25.1716    5.0607 C.3       3 UNK         0.0299 
     73 CB        -42.3549  -24.7285    5.7548 C.3       3 UNK        -0.1972 
     74 N         -44.2822  -26.2906    5.7850 N.am      3 UNK        -0.4305 
     75 C         -44.8628  -26.2420    6.9941 C.2       2 UNK         0.5006 
     76 O         -44.8823  -25.2382    7.7059 O.2       2 UNK        -0.5106 
     77 CA        -45.5774  -27.5241    7.4583 C.3       2 UNK         0.0296 
     78 CB        -45.3388  -27.7845    8.9560 C.3       2 UNK        -0.2002 
     79 N         -47.0236  -27.5056    7.2091 N.am      2 UNK        -0.4032 
     80 C         -47.6550  -27.2810    6.0480 C.2       1 UNK         0.5000 
     81 O         -47.0733  -26.9862    5.0010 O.2       1 UNK        -0.5238 
     82 H82       -49.5080  -30.8506    8.5402 H         1 UNK         0.0889 
     83 H83       -51.1640  -30.3599    8.1504 H         1 UNK         0.0889 
     84 H84       -50.4755  -29.9845    9.7309 H         1 UNK         0.0889 
     85 H85       -49.9846  -29.3980    6.2364 H         1 UNK         0.3028 
     86 H86       -49.3962  -27.7531    4.9731 H         1 UNK         0.0864 
     87 H87       -49.5136  -25.3213    5.7123 H         1 UNK         0.0720 
     88 H88       -49.9146  -25.8723    7.3193 H         1 UNK         0.0720 
     89 H89       -53.5057  -24.8374    6.3940 H         1 UNK         0.0814 
     90 H90       -51.9563  -24.0615    6.6143 H         1 UNK         0.0814 
     91 H91       -52.5217  -23.2310    8.8162 H         1 UNK         0.1469 
     92 H92       -52.9024  -25.9718   12.0788 H         1 UNK         0.1381 
     93 H93       -52.7304  -27.4466    8.0569 H         1 UNK         0.1206 
     94 H94       -54.0511  -28.5108   10.7482 H         1 UNK         0.0813 
     95 H95       -52.6675  -29.0010    9.8199 H         1 UNK         0.0813 
     96 H96       -54.0073  -27.7185   13.0837 H         1 UNK         0.0638 
     97 H97       -52.9394  -28.2803   14.3191 H         1 UNK         0.0638 
     98 H98       -54.0766  -30.4570   12.5901 H         1 UNK         0.0568 
     99 H99       -54.2429  -31.7336   16.3656 H         1 UNK         0.3450 
    100 H100      -55.5307  -30.7800   15.6698 H         1 UNK         0.3450 
    101 H101      -55.9047  -28.7053   14.0403 H         1 UNK         0.2987 
    102 H102      -58.4032  -29.3720   12.5003 H         1 UNK         0.0766 
    103 H103      -59.0788  -31.7358   12.6854 H         1 UNK         0.0798 
    104 H104      -60.0851  -30.7634   13.7432 H         1 UNK         0.0798 
    105 H105      -58.7772  -31.7351   14.4163 H         1 UNK         0.0798 
    106 H106      -58.6001  -28.0585   14.2667 H         1 UNK         0.3198 
    107 H107      -58.1652  -27.0627   16.1435 H         1 UNK         0.0843 
    108 H108      -59.0739  -29.0434   18.3076 H         1 UNK         0.0831 
    109 H109      -60.1210  -28.2947   17.1112 H         1 UNK         0.0831 
    110 H110      -59.3382  -27.2986   18.3264 H         1 UNK         0.0831 
    111 H111      -56.8712  -27.8925   18.5212 H         1 UNK         0.3133 
    112 H112      -54.8169  -26.9868   18.9631 H         1 UNK         0.0566 
    113 H113      -53.4236  -29.2926   17.4893 H         1 UNK         0.0814 
    114 H114      -54.6994  -29.5008   18.6793 H         1 UNK         0.0814 
    115 H115      -53.1595  -28.8126   19.1649 H         1 UNK         0.0814 
    116 H116      -52.4484  -27.0853   17.3822 H         1 UNK         0.3091 
    117 H117      -52.2464  -24.0622   16.0050 H         1 UNK         0.0702 
    118 H118      -50.6407  -23.0726   17.6398 H         1 UNK         0.0785 
    119 H119      -51.3209  -24.0658   18.9298 H         1 UNK         0.0785 
    120 H120      -52.2984  -22.8252   18.1581 H         1 UNK         0.0785 
    121 H121      -50.3281  -25.7680   17.4474 H         1 UNK         0.2998 
    122 H122      -48.7985  -26.8619   16.0842 H         1 UNK         0.0697 
    123 H123      -50.9187  -29.0076   15.4449 H         1 UNK         0.0825 
    124 H124      -50.4500  -28.5027   17.0647 H         1 UNK         0.0825 
    125 H125      -49.2922  -29.3246   16.0356 H         1 UNK         0.0825 
    126 H126      -49.8675  -27.1158   13.4083 H         1 UNK         0.3029 
    127 H127      -46.6088  -27.5468   12.0661 H         1 UNK         0.0897 
    128 H128      -49.0571  -29.3405   11.6368 H         1 UNK         0.0792 
    129 H129      -47.4605  -29.9074   12.1046 H         1 UNK         0.0792 
    130 H130      -47.6911  -29.1597   10.5366 H         1 UNK         0.0792 
    131 H131      -49.0984  -26.9841   10.8012 H         1 UNK         0.3086 
    132 H132      -49.8891  -24.9481   10.4146 H         1 UNK         0.0583 
    133 H133      -50.5670  -24.3900   12.7359 H         1 UNK         0.1020 
    134 H134      -49.3355  -23.1669   12.8557 H         1 UNK         0.1020 
    135 H135      -52.9431  -23.6516   12.5375 H         1 UNK         0.0694 
    136 H136      -53.5359  -22.6330   11.2474 H         1 UNK         0.0694 
    137 H137      -48.4745  -22.4741   10.4973 H         1 UNK         0.2989 
    138 H138      -47.9375  -21.7713    8.1977 H         1 UNK         0.1055 
    139 H139      -45.2421  -22.9521    9.1005 H         1 UNK         0.0806 
    140 H140      -46.1716  -21.7269    9.9512 H         1 UNK         0.0806 
    141 H141      -45.4483  -21.3502    8.3966 H         1 UNK         0.0806 
    142 H142      -46.2532  -23.8730    6.9041 H         1 UNK         0.3061 
    143 H143      -47.9242  -24.0877    4.2722 H         1 UNK         0.0734 
    144 H144      -47.8570  -21.9627    3.0622 H         1 UNK         0.0832 
    145 H145      -46.1554  -21.7391    3.4240 H         1 UNK         0.0832 
    146 H146      -46.6707  -23.0480    2.3595 H         1 UNK         0.0832 
    147 H147      -46.1600  -25.3208    4.6515 H         1 UNK         0.3156 
    148 H148      -43.3959  -25.5560    4.0748 H         1 UNK         0.0589 
    149 H149      -41.6815  -25.5714    5.9093 H         1 UNK         0.0808 
    150 H150      -41.8199  -23.9948    5.1507 H         1 UNK         0.0808 
    151 H151      -42.5477  -24.2704    6.7255 H         1 UNK         0.0808 
    152 H152      -44.3645  -27.1518    5.2611 H         1 UNK         0.3098 
    153 H153      -45.1605  -28.3669    6.9039 H         1 UNK         0.0720 
    154 H154      -45.8377  -27.0375    9.5760 H         1 UNK         0.0791 
    155 H155      -44.2754  -27.7524    9.1965 H         1 UNK         0.0791 
    156 H156      -45.7066  -28.7670    9.2501 H         1 UNK         0.0791 
    157 H157      -47.6256  -27.6300    8.0186 H         1 UNK         0.3028 
@<TRIPOS>BOND
     1    1    2 1    
     2    1   82 1    
     3    1   83 1    
     4    1   84 1    
     5    2    3 2    
     6    2    4 am   BACKBONE|DICT|INTERRES
     7    4    5 1    
     8    4   85 1    
     9    5    6 1    
    10    5   80 1    
    11    5   86 1    
    12    6    7 1    
    13    6   87 1    
    14    6   88 1    
    15    7    8 1    
    16    8    9 1    
    17    8   89 1    
    18    8   90 1    
    19    9   10 ar   
    20    9   14 ar   
    21   10   11 ar   
    22   10   91 1    
    23   11   12 ar   
    24   11   58 1    
    25   12   13 ar   
    26   12   92 1    
    27   13   14 ar   
    28   13   15 1    
    29   14   93 1    
    30   15   16 1    
    31   15   94 1    
    32   15   95 1    
    33   16   17 1    
    34   17   18 1    
    35   17   96 1    
    36   17   97 1    
    37   18   19 1    
    38   18   22 1    
    39   18   98 1    
    40   19   20 am   BACKBONE|DICT|INTERRES
    41   19   21 2    
    42   20   99 1    
    43   20  100 1    
    44   22   23 am   BACKBONE|DICT|INTERRES
    45   22  101 1    
    46   23   24 2    
    47   23   25 1    
    48   25   26 1    
    49   25   27 1    
    50   25  102 1    
    51   26  103 1    
    52   26  104 1    
    53   26  105 1    
    54   27   28 am   BACKBONE|DICT|INTERRES
    55   27  106 1    
    56   28   29 2    
    57   28   30 1    
    58   30   31 1    
    59   30   32 1    
    60   30  107 1    
    61   31  108 1    
    62   31  109 1    
    63   31  110 1    
    64   32   33 am   BACKBONE|DICT|INTERRES
    65   32  111 1    
    66   33   34 2    
    67   33   35 1    
    68   35   36 1    
    69   35   37 1    
    70   35  112 1    
    71   36  113 1    
    72   36  114 1    
    73   36  115 1    
    74   37   38 am   BACKBONE|DICT|INTERRES
    75   37  116 1    
    76   38   39 2    
    77   38   40 1    
    78   40   41 1    
    79   40   42 1    
    80   40  117 1    
    81   41  118 1    
    82   41  119 1    
    83   41  120 1    
    84   42   43 am   BACKBONE|DICT|INTERRES
    85   42  121 1    
    86   43   44 2    
    87   43   45 1    
    88   45   46 1    
    89   45   47 1    
    90   45  122 1    
    91   46  123 1    
    92   46  124 1    
    93   46  125 1    
    94   47   48 am   BACKBONE|DICT|INTERRES
    95   47  126 1    
    96   48   49 2    
    97   48   50 1    
    98   50   51 1    
    99   50   52 1    
   100   50  127 1    
   101   51  128 1    
   102   51  129 1    
   103   51  130 1    
   104   52   53 am   BACKBONE|DICT|INTERRES
   105   52  131 1    
   106   53   54 2    
   107   53   55 1    
   108   55   56 1    
   109   55   59 1    
   110   55  132 1    
   111   56   57 1    
   112   56  133 1    
   113   56  134 1    
   114   57   58 1    
   115   58  135 1    
   116   58  136 1    
   117   59   60 am   BACKBONE|DICT|INTERRES
   118   59  137 1    
   119   60   61 2    
   120   60   62 1    
   121   62   63 1    
   122   62   64 1    
   123   62  138 1    
   124   63  139 1    
   125   63  140 1    
   126   63  141 1    
   127   64   65 am   BACKBONE|DICT|INTERRES
   128   64  142 1    
   129   65   66 2    
   130   65   67 1    
   131   67   68 1    
   132   67   69 1    
   133   67  143 1    
   134   68  144 1    
   135   68  145 1    
   136   68  146 1    
   137   69   70 am   BACKBONE|DICT|INTERRES
   138   69  147 1    
   139   70   71 2    
   140   70   72 1    
   141   72   73 1    
   142   72   74 1    
   143   72  148 1    
   144   73  149 1    
   145   73  150 1    
   146   73  151 1    
   147   74   75 am   BACKBONE|DICT|INTERRES
   148   74  152 1    
   149   75   76 2    
   150   75   77 1    
   151   77   78 1    
   152   77   79 1    
   153   77  153 1    
   154   78  154 1    
   155   78  155 1    
   156   78  156 1    
   157   79   80 am   BACKBONE|DICT|INTERRES
   158   79  157 1    
   159   80   81 2    
@<TRIPOS>SUBSTRUCTURE
     1 UNK         1 GROUP             0       ****    0 ROOT    
