@<TRIPOS>MOLECULE
3R207
157   159    1
SMALL
USER_CHARGES


@<TRIPOS>ATOM
      1 CA        -44.7456  -31.9001    4.8767 C.3       0 UNK        -0.1975 
      2 C         -45.9691  -31.1805    4.3288 C.2       0 UNK         0.4852 
      3 O         -45.9600  -30.7538    3.1736 O.2       0 UNK        -0.5216 
      4 N         -47.0214  -31.0447    5.1489 N.am      1 UNK        -0.4461 
      5 CA        -48.2799  -30.3698    4.8003 C.3       1 UNK         0.0864 
      6 C6        -49.3899  -30.6768    5.8417 C.3       14 UNK        -0.0898 
      7 S7        -51.0327  -30.9356    5.0896 S.3       14 UNK        -0.2598 
      8 C8        -51.8343  -29.3044    5.2904 C.3       14 UNK         0.0286 
      9 C9        -52.3370  -28.9514    6.6933 C.ar      14 UNK        -0.0844 
     10 C10       -51.9471  -29.6435    7.8494 C.ar      14 UNK        -0.0881 
     11 C11       -52.3813  -29.2291    9.1110 C.ar      14 UNK        -0.0643 
     12 C12       -53.2329  -28.1293    9.2162 C.ar      14 UNK        -0.0930 
     13 C13       -53.6544  -27.4437    8.0773 C.ar      14 UNK        -0.0827 
     14 C14       -53.2023  -27.8588    6.8221 C.ar      14 UNK        -0.1249 
     15 C15       -54.5618  -26.2301    8.2106 C.3       14 UNK         0.0141 
     16 S16       -56.3219  -26.6446    7.9890 S.3       14 UNK        -0.2313 
     17 C17       -56.7326  -27.5277    9.5353 C.3       14 UNK        -0.0915 
     18 CA        -56.9693  -26.5950   10.7578 C.3       13 UNK         0.0968 
     19 C         -58.2435  -25.7225   10.6168 C.2       13 UNK         0.5732 
     20 N         -58.1246  -24.5187   10.0748 N.am      13 UNK        -0.7310 
     21 O         -59.3419  -26.1330   10.9906 O.2       13 UNK        -0.5035 
     22 N         -57.0510  -27.3484   12.0124 N.am      13 UNK        -0.4233 
     23 C         -56.0282  -27.8987   12.6711 C.2       13 UNK         0.4989 
     24 O         -54.8650  -27.9020   12.2642 O.2       13 UNK        -0.4996 
     25 CA        -56.3810  -28.5927   14.0006 C.3       12 UNK         0.0216 
     26 CB        -56.9350  -30.0033   13.7371 C.3       12 UNK        -0.1964 
     27 N         -55.2320  -28.6982   14.9051 N.am      12 UNK        -0.4276 
     28 C         -54.5780  -27.6615   15.4456 C.2       12 UNK         0.5020 
     29 O         -54.9344  -26.4869   15.3102 O.2       12 UNK        -0.5489 
     30 CA        -53.3273  -28.0108   16.2767 C.3       11 UNK         0.0294 
     31 CB        -52.3569  -28.9270   15.5056 C.3       11 UNK        -0.2019 
     32 N         -52.6031  -26.8020   16.6641 N.am      11 UNK        -0.4493 
     33 C         -52.8436  -26.0698   17.7586 C.2       11 UNK         0.4932 
     34 O         -53.6725  -26.3740   18.6193 O.2       11 UNK        -0.5029 
     35 CA        -52.0020  -24.7862   17.9096 C.3       10 UNK         0.0280 
     36 CB        -52.0831  -24.1625   19.3193 C.3       10 UNK        -0.1976 
     37 N         -50.6079  -24.9785   17.4925 N.am      10 UNK        -0.4242 
     38 C         -49.7056  -25.8204   18.0230 C.2       10 UNK         0.5072 
     39 O         -49.9116  -26.5035   19.0275 O.2       10 UNK        -0.5224 
     40 CA        -48.3450  -25.9571   17.3098 C.3       9 UNK         0.0343 
     41 CB        -48.2209  -27.3495   16.6680 C.3       9 UNK        -0.2003 
     42 N         -48.1040  -24.9396   16.2831 N.am      9 UNK        -0.4272 
     43 C         -47.8177  -23.6539   16.5307 C.2       9 UNK         0.4988 
     44 O         -47.6530  -23.1944   17.6612 O.2       9 UNK        -0.5108 
     45 CA        -47.7347  -22.7134   15.3156 C.3       8 UNK         0.0248 
     46 CB        -46.3261  -22.7497   14.7020 C.3       8 UNK        -0.2001 
     47 N         -48.7338  -23.0068   14.2813 N.am      8 UNK        -0.4140 
     48 C         -50.0625  -22.9338   14.4555 C.2       8 UNK         0.5028 
     49 O         -50.5959  -22.5891   15.5100 O.2       8 UNK        -0.5428 
     50 CA        -50.9505  -23.3743   13.2785 C.3       7 UNK         0.0264 
     51 CB        -51.0025  -22.2964   12.1845 C.3       7 UNK        -0.1988 
     52 N         -50.5264  -24.6521   12.7026 N.am      7 UNK        -0.4454 
     53 C         -50.5167  -25.8157   13.3712 C.2       7 UNK         0.5027 
     54 O         -50.9174  -25.9449   14.5286 O.2       7 UNK        -0.5083 
     55 CA        -49.9161  -27.0321   12.6430 C.3       6 UNK         0.0844 
     56 C56       -50.9671  -27.6937   11.7215 C.3       14 UNK        -0.0967 
     57 S57       -50.3689  -29.2615   11.0083 S.3       14 UNK        -0.2604 
     58 C58       -51.9204  -29.9612   10.3619 C.3       14 UNK         0.0134 
     59 N         -48.6920  -26.6662   11.9248 N.am      6 UNK        -0.4116 
     60 C         -47.5488  -26.2752   12.5049 C.2       5 UNK         0.5034 
     61 O         -47.3810  -26.2112   13.7218 O.2       5 UNK        -0.5045 
     62 CA        -46.4169  -25.8321   11.5630 C.3       5 UNK         0.0224 
     63 CB        -45.6723  -27.0502   10.9931 C.3       5 UNK        -0.1978 
     64 N         -46.8984  -24.9921   10.4632 N.am      5 UNK        -0.4737 
     65 C         -47.4511  -23.7806   10.6196 C.2       4 UNK         0.5027 
     66 O         -47.5604  -23.2150   11.7055 O.2       4 UNK        -0.5211 
     67 CA        -48.0235  -23.1090    9.3610 C.3       4 UNK         0.0297 
     68 CB        -46.9398  -22.2815    8.6534 C.3       4 UNK        -0.1993 
     69 N         -48.6088  -24.0592    8.4119 N.am      4 UNK        -0.4486 
     70 C         -49.6230  -24.8964    8.6624 C.2       3 UNK         0.4961 
     71 O         -50.2017  -24.9540    9.7480 O.2       3 UNK        -0.5105 
     72 CA        -50.0345  -25.8605    7.5337 C.3       3 UNK         0.0299 
     73 CB        -51.0093  -25.1738    6.5582 C.3       3 UNK        -0.1972 
     74 N         -48.9067  -26.4888    6.8218 N.am      3 UNK        -0.4305 
     75 C         -47.9943  -25.9206    6.0152 C.2       2 UNK         0.5006 
     76 O         -47.9651  -24.7169    5.7564 O.2       2 UNK        -0.5106 
     77 CA        -46.8897  -26.8237    5.4365 C.3       2 UNK         0.0296 
     78 CB        -45.5760  -26.6105    6.2082 C.3       2 UNK        -0.2002 
     79 N         -47.2161  -28.2521    5.4411 N.am      2 UNK        -0.4032 
     80 C         -48.0975  -28.8458    4.6214 C.2       1 UNK         0.5000 
     81 O         -48.7433  -28.2466    3.7603 O.2       1 UNK        -0.5238 
     82 H82       -44.5232  -32.7770    4.2692 H         1 UNK         0.0889 
     83 H83       -44.8911  -32.2291    5.9055 H         1 UNK         0.0889 
     84 H84       -43.8794  -31.2395    4.8513 H         1 UNK         0.0889 
     85 H85       -46.9716  -31.4357    6.0793 H         1 UNK         0.3028 
     86 H86       -48.5854  -30.7706    3.8309 H         1 UNK         0.0864 
     87 H87       -49.1658  -31.6062    6.3680 H         1 UNK         0.0720 
     88 H88       -49.4362  -29.9148    6.6213 H         1 UNK         0.0720 
     89 H89       -52.6811  -29.2757    4.6030 H         1 UNK         0.0814 
     90 H90       -51.1500  -28.5238    4.9575 H         1 UNK         0.0814 
     91 H91       -51.2932  -30.4998    7.7900 H         1 UNK         0.1469 
     92 H92       -53.5612  -27.7989   10.1895 H         1 UNK         0.1381 
     93 H93       -53.5141  -27.3147    5.9409 H         1 UNK         0.1206 
     94 H94       -54.4124  -25.7454    9.1762 H         1 UNK         0.0813 
     95 H95       -54.2866  -25.4888    7.4592 H         1 UNK         0.0813 
     96 H96       -55.9343  -28.2390    9.7428 H         1 UNK         0.0638 
     97 H97       -57.6192  -28.1370    9.3517 H         1 UNK         0.0638 
     98 H98       -56.1179  -25.9189   10.8533 H         1 UNK         0.0568 
     99 H99       -58.9464  -23.9441    9.9739 H         1 UNK         0.3450 
    100 H100      -57.2345  -24.1836    9.7418 H         1 UNK         0.3450 
    101 H101      -57.9823  -27.3844   12.4065 H         1 UNK         0.2987 
    102 H102      -57.1476  -28.0003   14.5047 H         1 UNK         0.0766 
    103 H103      -57.2297  -30.4952   14.6644 H         1 UNK         0.0798 
    104 H104      -56.2012  -30.6376   13.2377 H         1 UNK         0.0798 
    105 H105      -57.8193  -29.9669   13.0992 H         1 UNK         0.0798 
    106 H106      -54.8616  -29.6258   15.0490 H         1 UNK         0.3198 
    107 H107      -53.6586  -28.5357   17.1753 H         1 UNK         0.0843 
    108 H108      -52.0853  -28.5014   14.5403 H         1 UNK         0.0831 
    109 H109      -52.7903  -29.9099   15.3201 H         1 UNK         0.0831 
    110 H110      -51.4360  -29.0886   16.0667 H         1 UNK         0.0831 
    111 H111      -51.9477  -26.4385   15.9737 H         1 UNK         0.3133 
    112 H112      -52.4257  -24.0657   17.2086 H         1 UNK         0.0566 
    113 H113      -51.4863  -23.2527   19.3843 H         1 UNK         0.0814 
    114 H114      -53.1105  -23.8941   19.5678 H         1 UNK         0.0814 
    115 H115      -51.7330  -24.8503   20.0895 H         1 UNK         0.0814 
    116 H116      -50.3391  -24.4630   16.6624 H         1 UNK         0.3091 
    117 H117      -47.5690  -25.8632   18.0722 H         1 UNK         0.0702 
    118 H118      -47.2385  -27.4930   16.2178 H         1 UNK         0.0785 
    119 H119      -48.9712  -27.5015   15.8913 H         1 UNK         0.0785 
    120 H120      -48.3546  -28.1384   17.4095 H         1 UNK         0.0785 
    121 H121      -48.1443  -25.2537   15.3181 H         1 UNK         0.2998 
    122 H122      -47.9234  -21.6990   15.6727 H         1 UNK         0.0697 
    123 H123      -46.0911  -23.7319   14.2904 H         1 UNK         0.0825 
    124 H124      -45.5666  -22.5173   15.4497 H         1 UNK         0.0825 
    125 H125      -46.2247  -22.0190   13.8993 H         1 UNK         0.0825 
    126 H126      -48.3731  -23.2497   13.3598 H         1 UNK         0.3029 
    127 H127      -51.9632  -23.5119   13.6642 H         1 UNK         0.0897 
    128 H128      -51.6534  -22.5955   11.3625 H         1 UNK         0.0792 
    129 H129      -51.3915  -21.3584   12.5828 H         1 UNK         0.0792 
    130 H130      -50.0162  -22.0883   11.7712 H         1 UNK         0.0792 
    131 H131      -50.2236  -24.6467   11.7326 H         1 UNK         0.3086 
    132 H132      -49.6391  -27.7578   13.4109 H         1 UNK         0.0583 
    133 H133      -51.8878  -27.8963   12.2724 H         1 UNK         0.1020 
    134 H134      -51.2455  -27.0226   10.9083 H         1 UNK         0.1020 
    135 H135      -51.7633  -31.0170   10.1363 H         1 UNK         0.0694 
    136 H136      -52.6931  -29.9267   11.1322 H         1 UNK         0.0694 
    137 H137      -48.7556  -26.6521   10.9182 H         1 UNK         0.2989 
    138 H138      -45.7115  -25.2421   12.1528 H         1 UNK         0.1055 
    139 H139      -45.2900  -27.6823   11.7960 H         1 UNK         0.0806 
    140 H140      -44.8172  -26.7455   10.3893 H         1 UNK         0.0806 
    141 H141      -46.3193  -27.6700   10.3711 H         1 UNK         0.0806 
    142 H142      -46.8452  -25.3738    9.5306 H         1 UNK         0.3061 
    143 H143      -48.8186  -22.4326    9.6796 H         1 UNK         0.0734 
    144 H144      -47.3515  -21.7272    7.8098 H         1 UNK         0.0832 
    145 H145      -46.4991  -21.5521    9.3347 H         1 UNK         0.0832 
    146 H146      -46.1305  -22.9097    8.2790 H         1 UNK         0.0832 
    147 H147      -48.2215  -24.0812    7.4705 H         1 UNK         0.3156 
    148 H148      -50.5738  -26.6819    8.0089 H         1 UNK         0.0589 
    149 H149      -50.5660  -24.3009    6.0786 H         1 UNK         0.0808 
    150 H150      -51.3316  -25.8575    5.7733 H         1 UNK         0.0808 
    151 H151      -51.9028  -24.8335    7.0823 H         1 UNK         0.0808 
    152 H152      -48.8026  -27.4780    6.9925 H         1 UNK         0.3098 
    153 H153      -46.7309  -26.5157    4.4007 H         1 UNK         0.0720 
    154 H154      -45.2824  -25.5596    6.1993 H         1 UNK         0.0791 
    155 H155      -44.7574  -27.1748    5.7608 H         1 UNK         0.0791 
    156 H156      -45.6634  -26.9152    7.2520 H         1 UNK         0.0791 
    157 H157      -46.7125  -28.8314    6.0972 H         1 UNK         0.3028 
@<TRIPOS>BOND
     1    1    2 1    
     2    1   82 1    
     3    1   83 1    
     4    1   84 1    
     5    2    3 2    
     6    2    4 am   BACKBONE|DICT|INTERRES
     7    4    5 1    
     8    4   85 1    
     9    5    6 1    
    10    5   80 1    
    11    5   86 1    
    12    6    7 1    
    13    6   87 1    
    14    6   88 1    
    15    7    8 1    
    16    8    9 1    
    17    8   89 1    
    18    8   90 1    
    19    9   10 ar   
    20    9   14 ar   
    21   10   11 ar   
    22   10   91 1    
    23   11   12 ar   
    24   11   58 1    
    25   12   13 ar   
    26   12   92 1    
    27   13   14 ar   
    28   13   15 1    
    29   14   93 1    
    30   15   16 1    
    31   15   94 1    
    32   15   95 1    
    33   16   17 1    
    34   17   18 1    
    35   17   96 1    
    36   17   97 1    
    37   18   19 1    
    38   18   22 1    
    39   18   98 1    
    40   19   20 am   BACKBONE|DICT|INTERRES
    41   19   21 2    
    42   20   99 1    
    43   20  100 1    
    44   22   23 am   BACKBONE|DICT|INTERRES
    45   22  101 1    
    46   23   24 2    
    47   23   25 1    
    48   25   26 1    
    49   25   27 1    
    50   25  102 1    
    51   26  103 1    
    52   26  104 1    
    53   26  105 1    
    54   27   28 am   BACKBONE|DICT|INTERRES
    55   27  106 1    
    56   28   29 2    
    57   28   30 1    
    58   30   31 1    
    59   30   32 1    
    60   30  107 1    
    61   31  108 1    
    62   31  109 1    
    63   31  110 1    
    64   32   33 am   BACKBONE|DICT|INTERRES
    65   32  111 1    
    66   33   34 2    
    67   33   35 1    
    68   35   36 1    
    69   35   37 1    
    70   35  112 1    
    71   36  113 1    
    72   36  114 1    
    73   36  115 1    
    74   37   38 am   BACKBONE|DICT|INTERRES
    75   37  116 1    
    76   38   39 2    
    77   38   40 1    
    78   40   41 1    
    79   40   42 1    
    80   40  117 1    
    81   41  118 1    
    82   41  119 1    
    83   41  120 1    
    84   42   43 am   BACKBONE|DICT|INTERRES
    85   42  121 1    
    86   43   44 2    
    87   43   45 1    
    88   45   46 1    
    89   45   47 1    
    90   45  122 1    
    91   46  123 1    
    92   46  124 1    
    93   46  125 1    
    94   47   48 am   BACKBONE|DICT|INTERRES
    95   47  126 1    
    96   48   49 2    
    97   48   50 1    
    98   50   51 1    
    99   50   52 1    
   100   50  127 1    
   101   51  128 1    
   102   51  129 1    
   103   51  130 1    
   104   52   53 am   BACKBONE|DICT|INTERRES
   105   52  131 1    
   106   53   54 2    
   107   53   55 1    
   108   55   56 1    
   109   55   59 1    
   110   55  132 1    
   111   56   57 1    
   112   56  133 1    
   113   56  134 1    
   114   57   58 1    
   115   58  135 1    
   116   58  136 1    
   117   59   60 am   BACKBONE|DICT|INTERRES
   118   59  137 1    
   119   60   61 2    
   120   60   62 1    
   121   62   63 1    
   122   62   64 1    
   123   62  138 1    
   124   63  139 1    
   125   63  140 1    
   126   63  141 1    
   127   64   65 am   BACKBONE|DICT|INTERRES
   128   64  142 1    
   129   65   66 2    
   130   65   67 1    
   131   67   68 1    
   132   67   69 1    
   133   67  143 1    
   134   68  144 1    
   135   68  145 1    
   136   68  146 1    
   137   69   70 am   BACKBONE|DICT|INTERRES
   138   69  147 1    
   139   70   71 2    
   140   70   72 1    
   141   72   73 1    
   142   72   74 1    
   143   72  148 1    
   144   73  149 1    
   145   73  150 1    
   146   73  151 1    
   147   74   75 am   BACKBONE|DICT|INTERRES
   148   74  152 1    
   149   75   76 2    
   150   75   77 1    
   151   77   78 1    
   152   77   79 1    
   153   77  153 1    
   154   78  154 1    
   155   78  155 1    
   156   78  156 1    
   157   79   80 am   BACKBONE|DICT|INTERRES
   158   79  157 1    
   159   80   81 2    
@<TRIPOS>SUBSTRUCTURE
     1 UNK         1 GROUP             0       ****    0 ROOT    
