@<TRIPOS>MOLECULE
3R207
157   159    1
SMALL
USER_CHARGES


@<TRIPOS>ATOM
      1 CA        -48.0959  -28.3888   11.4951 C.3       0 UNK        -0.1975 
      2 C         -48.3840  -28.5893   10.0160 C.2       0 UNK         0.4852 
      3 O         -48.2208  -29.6985    9.5055 O.2       0 UNK        -0.5216 
      4 N         -48.8278  -27.5279    9.3320 N.am      1 UNK        -0.4461 
      5 CA        -49.1289  -27.5367    7.8961 C.3       1 UNK         0.0864 
      6 C6        -50.0851  -26.3765    7.5219 C.3       14 UNK        -0.0898 
      7 S7        -51.1492  -26.7182    6.0741 S.3       14 UNK        -0.2598 
      8 C8        -52.1857  -28.1332    6.5960 C.3       14 UNK         0.0286 
      9 C9        -52.6893  -28.0077    8.0267 C.ar      14 UNK        -0.0844 
     10 C10       -53.6103  -27.0139    8.3651 C.ar      14 UNK        -0.0881 
     11 C11       -54.0218  -26.8521    9.6902 C.ar      14 UNK        -0.0643 
     12 C12       -53.5146  -27.7004   10.6777 C.ar      14 UNK        -0.0930 
     13 C13       -52.6225  -28.7272   10.3461 C.ar      14 UNK        -0.0827 
     14 C14       -52.2136  -28.8708    9.0180 C.ar      14 UNK        -0.1249 
     15 C15       -52.0522  -29.6655   11.4051 C.3       14 UNK         0.0141 
     16 S16       -53.2412  -30.1415   12.7046 S.3       14 UNK        -0.2313 
     17 C17       -54.4185  -31.1955   11.7896 C.3       14 UNK        -0.0915 
     18 CA        -55.6588  -30.4341   11.2445 C.3       13 UNK         0.0968 
     19 C         -56.6342  -31.4085   10.5219 C.2       13 UNK         0.5732 
     20 N         -57.8704  -31.5760   10.9772 N.am      13 UNK        -0.7310 
     21 O         -56.2627  -32.0228    9.5247 O.2       13 UNK        -0.5035 
     22 N         -56.2809  -29.5791   12.2706 N.am      13 UNK        -0.4233 
     23 C         -57.0689  -28.5271   12.0133 C.2       13 UNK         0.4989 
     24 O         -57.3951  -28.1782   10.8785 O.2       13 UNK        -0.4996 
     25 CA        -57.5996  -27.7229   13.2154 C.3       12 UNK         0.0216 
     26 CB        -59.0828  -28.0472   13.4620 C.3       12 UNK        -0.1964 
     27 N         -56.8522  -27.9262   14.4622 N.am      12 UNK        -0.4276 
     28 C         -55.6279  -27.4414   14.7061 C.2       12 UNK         0.5020 
     29 O         -54.9698  -26.7886   13.8922 O.2       12 UNK        -0.5489 
     30 CA        -55.0470  -27.7359   16.0951 C.3       11 UNK         0.0294 
     31 CB        -54.6637  -29.2196   16.2498 C.3       11 UNK        -0.2019 
     32 N         -53.8640  -26.9061   16.2917 N.am      11 UNK        -0.4493 
     33 C         -53.3949  -26.4674   17.4649 C.2       11 UNK         0.4932 
     34 O         -53.9235  -26.7111   18.5512 O.2       11 UNK        -0.5029 
     35 CA        -52.1063  -25.6269   17.3928 C.3       10 UNK         0.0280 
     36 CB        -51.5306  -25.2496   18.7741 C.3       10 UNK        -0.1976 
     37 N         -51.0983  -26.2726   16.5460 N.am      10 UNK        -0.4242 
     38 C         -50.4817  -27.4479   16.7505 C.2       10 UNK         0.5072 
     39 O         -50.5987  -28.1298   17.7692 O.2       10 UNK        -0.5224 
     40 CA        -49.5920  -27.9630   15.6083 C.3       9 UNK         0.0343 
     41 CB        -50.4400  -28.7692   14.6141 C.3       9 UNK        -0.2003 
     42 N         -48.9270  -26.8636   14.9043 N.am      9 UNK        -0.4272 
     43 C         -47.6882  -26.4283   15.1787 C.2       9 UNK         0.4988 
     44 O         -46.9184  -26.9936   15.9561 O.2       9 UNK        -0.5108 
     45 CA        -47.2309  -25.1252   14.4948 C.3       8 UNK         0.0248 
     46 CB        -46.4555  -25.4125   13.1996 C.3       8 UNK        -0.2001 
     47 N         -48.3407  -24.2120   14.2112 N.am      8 UNK        -0.4140 
     48 C         -49.0257  -23.5485   15.1552 C.2       8 UNK         0.5028 
     49 O         -48.7271  -23.5611   16.3494 O.2       8 UNK        -0.5428 
     50 CA        -50.2664  -22.7519   14.7116 C.3       7 UNK         0.0264 
     51 CB        -49.9415  -21.2507   14.6467 C.3       7 UNK        -0.1988 
     52 N         -50.8445  -23.1680   13.4295 N.am      7 UNK        -0.4454 
     53 C         -51.3514  -24.3775   13.1431 C.2       7 UNK         0.5027 
     54 O         -51.3403  -25.3260   13.9284 O.2       7 UNK        -0.5083 
     55 CA        -51.9327  -24.5562   11.7253 C.3       6 UNK         0.0844 
     56 C56       -53.4237  -24.1306   11.7275 C.3       14 UNK        -0.0967 
     57 S57       -54.2078  -24.1260   10.0798 S.3       14 UNK        -0.2604 
     58 C58       -55.0122  -25.7566   10.0461 C.3       14 UNK         0.0134 
     59 N         -51.1383  -23.8527   10.7088 N.am      6 UNK        -0.4116 
     60 C         -49.8480  -24.0930   10.4406 C.2       5 UNK         0.5034 
     61 O         -49.1824  -24.9731   10.9970 O.2       5 UNK        -0.5045 
     62 CA        -49.1834  -23.1849    9.3978 C.3       5 UNK         0.0224 
     63 CB        -49.2415  -21.7022    9.8146 C.3       5 UNK        -0.1978 
     64 N         -47.7861  -23.5847    9.2547 N.am      5 UNK        -0.4737 
     65 C         -47.0579  -23.5348    8.1365 C.2       4 UNK         0.5027 
     66 O         -47.5002  -23.1305    7.0598 O.2       4 UNK        -0.5211 
     67 CA        -45.5870  -23.9827    8.2467 C.3       4 UNK         0.0297 
     68 CB        -45.2799  -24.8175    9.5094 C.3       4 UNK        -0.1993 
     69 N         -45.2061  -24.7540    7.0645 N.am      4 UNK        -0.4486 
     70 C         -44.5454  -24.2674    6.0042 C.2       3 UNK         0.4961 
     71 O         -44.1464  -23.1043    5.9242 O.2       3 UNK        -0.5105 
     72 CA        -44.2404  -25.2296    4.8381 C.3       3 UNK         0.0299 
     73 CB        -42.7398  -25.5653    4.7982 C.3       3 UNK        -0.1972 
     74 N         -45.0002  -26.4800    4.8914 N.am      3 UNK        -0.4305 
     75 C         -46.2827  -26.6151    4.5306 C.2       2 UNK         0.5006 
     76 O         -46.9621  -25.7037    4.0566 O.2       2 UNK        -0.5106 
     77 CA        -46.9325  -27.9965    4.7457 C.3       2 UNK         0.0296 
     78 CB        -45.9305  -29.1325    5.0595 C.3       2 UNK        -0.2002 
     79 N         -47.9809  -27.9391    5.7701 N.am      2 UNK        -0.4032 
     80 C         -47.8443  -27.5295    7.0407 C.2       1 UNK         0.5000 
     81 O         -46.7764  -27.1445    7.5262 O.2       1 UNK        -0.5238 
     82 H82       -48.7149  -27.5974   11.9178 H         1 UNK         0.0889 
     83 H83       -47.0474  -28.1313   11.6406 H         1 UNK         0.0889 
     84 H84       -48.2976  -29.3064   12.0460 H         1 UNK         0.0889 
     85 H85       -48.9184  -26.6368    9.8072 H         1 UNK         0.3028 
     86 H86       -49.6322  -28.4828    7.6937 H         1 UNK         0.0864 
     87 H87       -50.7465  -26.1426    8.3574 H         1 UNK         0.0720 
     88 H88       -49.5278  -25.4578    7.3312 H         1 UNK         0.0720 
     89 H89       -51.6195  -29.0566    6.4667 H         1 UNK         0.0814 
     90 H90       -53.0394  -28.2104    5.9213 H         1 UNK         0.0814 
     91 H91       -53.9834  -26.3451    7.6014 H         1 UNK         0.1469 
     92 H92       -53.8244  -27.5653   11.7044 H         1 UNK         0.1381 
     93 H93       -51.5042  -29.6452    8.7601 H         1 UNK         0.1206 
     94 H94       -51.6577  -30.5729   10.9453 H         1 UNK         0.0813 
     95 H95       -51.2032  -29.1660   11.8693 H         1 UNK         0.0813 
     96 H96       -54.7360  -31.9887   12.4687 H         1 UNK         0.0638 
     97 H97       -53.8860  -31.6907   10.9755 H         1 UNK         0.0638 
     98 H98       -55.3031  -29.7701   10.4562 H         1 UNK         0.0568 
     99 H99       -58.4915  -32.2078   10.4969 H         1 UNK         0.3450 
    100 H100      -58.1874  -31.0760   11.7913 H         1 UNK         0.3450 
    101 H101      -56.0518  -29.7962   13.2278 H         1 UNK         0.2987 
    102 H102      -57.5240  -26.6665   12.9477 H         1 UNK         0.0766 
    103 H103      -59.6756  -27.8772   12.5619 H         1 UNK         0.0798 
    104 H104      -59.5026  -27.4154   14.2451 H         1 UNK         0.0798 
    105 H105      -59.2273  -29.0878   13.7551 H         1 UNK         0.0798 
    106 H106      -57.3217  -28.4472   15.1896 H         1 UNK         0.3198 
    107 H107      -55.8029  -27.4714   16.8380 H         1 UNK         0.0843 
    108 H108      -53.8852  -29.5076   15.5433 H         1 UNK         0.0831 
    109 H109      -55.5188  -29.8755   16.0842 H         1 UNK         0.0831 
    110 H110      -54.2904  -29.4270   17.2529 H         1 UNK         0.0831 
    111 H111      -53.4274  -26.6066   15.4269 H         1 UNK         0.3133 
    112 H112      -52.3751  -24.6983   16.8874 H         1 UNK         0.0566 
    113 H113      -51.2894  -26.1294   19.3712 H         1 UNK         0.0814 
    114 H114      -52.2475  -24.6586   19.3451 H         1 UNK         0.0814 
    115 H115      -50.6239  -24.6526   18.6737 H         1 UNK         0.0814 
    116 H116      -50.9952  -25.8542   15.6246 H         1 UNK         0.3091 
    117 H117      -48.8494  -28.6370   16.0409 H         1 UNK         0.0702 
    118 H118      -49.8152  -29.2461   13.8613 H         1 UNK         0.0785 
    119 H119      -51.1721  -28.1415   14.1040 H         1 UNK         0.0785 
    120 H120      -50.9910  -29.5628   15.1212 H         1 UNK         0.0785 
    121 H121      -49.5020  -26.3233   14.2698 H         1 UNK         0.2998 
    122 H122      -46.5493  -24.6235   15.1853 H         1 UNK         0.0697 
    123 H123      -47.0987  -25.8204   12.4220 H         1 UNK         0.0825 
    124 H124      -45.6528  -26.1308   13.3728 H         1 UNK         0.0825 
    125 H125      -45.9961  -24.5042   12.8104 H         1 UNK         0.0825 
    126 H126      -48.6525  -24.1544   13.2513 H         1 UNK         0.3029 
    127 H127      -51.0298  -22.9035   15.4777 H         1 UNK         0.0897 
    128 H128      -49.2031  -21.0300   13.8746 H         1 UNK         0.0792 
    129 H129      -49.5354  -20.8969   15.5957 H         1 UNK         0.0792 
    130 H130      -50.8332  -20.6585   14.4400 H         1 UNK         0.0792 
    131 H131      -50.8932  -22.4573   12.7141 H         1 UNK         0.3086 
    132 H132      -51.8778  -25.6199   11.4890 H         1 UNK         0.0583 
    133 H133      -53.9973  -24.7751   12.3967 H         1 UNK         0.1020 
    134 H134      -53.5334  -23.1210   12.1290 H         1 UNK         0.1020 
    135 H135      -55.4938  -25.9586   11.0042 H         1 UNK         0.0694 
    136 H136      -55.8114  -25.7412    9.3038 H         1 UNK         0.0694 
    137 H137      -51.6300  -23.1450   10.1823 H         1 UNK         0.2989 
    138 H138      -49.7090  -23.3204    8.4501 H         1 UNK         0.1055 
    139 H139      -48.7273  -21.0699    9.0904 H         1 UNK         0.0806 
    140 H140      -48.7754  -21.5374   10.7870 H         1 UNK         0.0806 
    141 H141      -50.2684  -21.3404    9.8753 H         1 UNK         0.0806 
    142 H142      -47.3880  -24.0117   10.0809 H         1 UNK         0.3061 
    143 H143      -44.9870  -23.0724    8.3043 H         1 UNK         0.0734 
    144 H144      -45.9279  -25.6910    9.5942 H         1 UNK         0.0832 
    145 H145      -44.2497  -25.1739    9.5018 H         1 UNK         0.0832 
    146 H146      -45.3967  -24.2227   10.4155 H         1 UNK         0.0832 
    147 H147      -45.5728  -25.7020    7.0305 H         1 UNK         0.3156 
    148 H148      -44.4945  -24.7085    3.9126 H         1 UNK         0.0589 
    149 H149      -42.4183  -26.0872    5.7005 H         1 UNK         0.0808 
    150 H150      -42.1384  -24.6588    4.7154 H         1 UNK         0.0808 
    151 H151      -42.4949  -26.1922    3.9405 H         1 UNK         0.0808 
    152 H152      -44.5312  -27.2805    5.2906 H         1 UNK         0.3098 
    153 H153      -47.4285  -28.2468    3.8067 H         1 UNK         0.0720 
    154 H154      -45.1700  -29.2156    4.2818 H         1 UNK         0.0791 
    155 H155      -46.4400  -30.0950    5.1063 H         1 UNK         0.0791 
    156 H156      -45.4212  -28.9895    6.0133 H         1 UNK         0.0791 
    157 H157      -48.9115  -28.1660    5.4472 H         1 UNK         0.3028 
@<TRIPOS>BOND
     1    1    2 1    
     2    1   82 1    
     3    1   83 1    
     4    1   84 1    
     5    2    3 2    
     6    2    4 am   BACKBONE|DICT|INTERRES
     7    4    5 1    
     8    4   85 1    
     9    5    6 1    
    10    5   80 1    
    11    5   86 1    
    12    6    7 1    
    13    6   87 1    
    14    6   88 1    
    15    7    8 1    
    16    8    9 1    
    17    8   89 1    
    18    8   90 1    
    19    9   10 ar   
    20    9   14 ar   
    21   10   11 ar   
    22   10   91 1    
    23   11   12 ar   
    24   11   58 1    
    25   12   13 ar   
    26   12   92 1    
    27   13   14 ar   
    28   13   15 1    
    29   14   93 1    
    30   15   16 1    
    31   15   94 1    
    32   15   95 1    
    33   16   17 1    
    34   17   18 1    
    35   17   96 1    
    36   17   97 1    
    37   18   19 1    
    38   18   22 1    
    39   18   98 1    
    40   19   20 am   BACKBONE|DICT|INTERRES
    41   19   21 2    
    42   20   99 1    
    43   20  100 1    
    44   22   23 am   BACKBONE|DICT|INTERRES
    45   22  101 1    
    46   23   24 2    
    47   23   25 1    
    48   25   26 1    
    49   25   27 1    
    50   25  102 1    
    51   26  103 1    
    52   26  104 1    
    53   26  105 1    
    54   27   28 am   BACKBONE|DICT|INTERRES
    55   27  106 1    
    56   28   29 2    
    57   28   30 1    
    58   30   31 1    
    59   30   32 1    
    60   30  107 1    
    61   31  108 1    
    62   31  109 1    
    63   31  110 1    
    64   32   33 am   BACKBONE|DICT|INTERRES
    65   32  111 1    
    66   33   34 2    
    67   33   35 1    
    68   35   36 1    
    69   35   37 1    
    70   35  112 1    
    71   36  113 1    
    72   36  114 1    
    73   36  115 1    
    74   37   38 am   BACKBONE|DICT|INTERRES
    75   37  116 1    
    76   38   39 2    
    77   38   40 1    
    78   40   41 1    
    79   40   42 1    
    80   40  117 1    
    81   41  118 1    
    82   41  119 1    
    83   41  120 1    
    84   42   43 am   BACKBONE|DICT|INTERRES
    85   42  121 1    
    86   43   44 2    
    87   43   45 1    
    88   45   46 1    
    89   45   47 1    
    90   45  122 1    
    91   46  123 1    
    92   46  124 1    
    93   46  125 1    
    94   47   48 am   BACKBONE|DICT|INTERRES
    95   47  126 1    
    96   48   49 2    
    97   48   50 1    
    98   50   51 1    
    99   50   52 1    
   100   50  127 1    
   101   51  128 1    
   102   51  129 1    
   103   51  130 1    
   104   52   53 am   BACKBONE|DICT|INTERRES
   105   52  131 1    
   106   53   54 2    
   107   53   55 1    
   108   55   56 1    
   109   55   59 1    
   110   55  132 1    
   111   56   57 1    
   112   56  133 1    
   113   56  134 1    
   114   57   58 1    
   115   58  135 1    
   116   58  136 1    
   117   59   60 am   BACKBONE|DICT|INTERRES
   118   59  137 1    
   119   60   61 2    
   120   60   62 1    
   121   62   63 1    
   122   62   64 1    
   123   62  138 1    
   124   63  139 1    
   125   63  140 1    
   126   63  141 1    
   127   64   65 am   BACKBONE|DICT|INTERRES
   128   64  142 1    
   129   65   66 2    
   130   65   67 1    
   131   67   68 1    
   132   67   69 1    
   133   67  143 1    
   134   68  144 1    
   135   68  145 1    
   136   68  146 1    
   137   69   70 am   BACKBONE|DICT|INTERRES
   138   69  147 1    
   139   70   71 2    
   140   70   72 1    
   141   72   73 1    
   142   72   74 1    
   143   72  148 1    
   144   73  149 1    
   145   73  150 1    
   146   73  151 1    
   147   74   75 am   BACKBONE|DICT|INTERRES
   148   74  152 1    
   149   75   76 2    
   150   75   77 1    
   151   77   78 1    
   152   77   79 1    
   153   77  153 1    
   154   78  154 1    
   155   78  155 1    
   156   78  156 1    
   157   79   80 am   BACKBONE|DICT|INTERRES
   158   79  157 1    
   159   80   81 2    
@<TRIPOS>SUBSTRUCTURE
     1 UNK         1 GROUP             0       ****    0 ROOT    
