@<TRIPOS>MOLECULE
3R207
157   159    1
SMALL
USER_CHARGES


@<TRIPOS>ATOM
      1 CA        -49.3202  -30.4367    4.5059 C.3       0 UNK        -0.1975 
      2 C         -49.2377  -28.9321    4.7095 C.2       0 UNK         0.4852 
      3 O         -48.4104  -28.4757    5.4978 O.2       0 UNK        -0.5216 
      4 N         -50.0787  -28.1683    3.9916 N.am      1 UNK        -0.4461 
      5 CA        -50.2747  -26.7054    4.0547 C.3       1 UNK         0.0864 
      6 C6        -51.3327  -26.2637    5.1086 C.3       14 UNK        -0.0898 
      7 S7        -50.9363  -26.6621    6.8450 S.3       14 UNK        -0.2598 
      8 C8        -51.9396  -28.1691    7.0773 C.3       14 UNK         0.0286 
      9 C9        -51.6205  -28.8842    8.3831 C.ar      14 UNK        -0.0844 
     10 C10       -50.3027  -29.2313    8.6918 C.ar      14 UNK        -0.0881 
     11 C11       -49.9983  -29.8822    9.8894 C.ar      14 UNK        -0.0643 
     12 C12       -51.0265  -30.1966   10.7837 C.ar      14 UNK        -0.0930 
     13 C13       -52.3548  -29.8827   10.4739 C.ar      14 UNK        -0.0827 
     14 C14       -52.6440  -29.2267    9.2723 C.ar      14 UNK        -0.1249 
     15 C15       -53.4809  -30.2986   11.4127 C.3       14 UNK         0.0141 
     16 S16       -53.8879  -29.0123   12.6333 S.3       14 UNK        -0.2313 
     17 C17       -54.8460  -27.8459   11.6120 C.3       14 UNK        -0.0915 
     18 CA        -55.4120  -26.6485   12.4283 C.3       13 UNK         0.0968 
     19 C         -56.0015  -25.5214   11.5248 C.2       13 UNK         0.5732 
     20 N         -56.9751  -24.7458   11.9889 N.am      13 UNK        -0.7310 
     21 O         -55.5628  -25.3243   10.3942 O.2       13 UNK        -0.5035 
     22 N         -56.2815  -27.0456   13.5500 N.am      13 UNK        -0.4233 
     23 C         -57.4659  -27.6677   13.4623 C.2       13 UNK         0.4989 
     24 O         -57.9636  -28.0406   12.3988 O.2       13 UNK        -0.4996 
     25 CA        -58.2705  -27.8586   14.7675 C.3       12 UNK         0.0216 
     26 CB        -58.9370  -29.2496   14.8470 C.3       12 UNK        -0.1964 
     27 N         -57.5297  -27.5416   15.9998 N.am      12 UNK        -0.4276 
     28 C         -56.4923  -28.2106   16.5219 C.2       12 UNK         0.5020 
     29 O         -56.0317  -29.2562   16.0585 O.2       12 UNK        -0.5489 
     30 CA        -55.8653  -27.6027   17.7882 C.3       11 UNK         0.0294 
     31 CB        -56.4602  -28.2491   19.0498 C.3       11 UNK        -0.2019 
     32 N         -54.4138  -27.7874   17.7887 N.am      11 UNK        -0.4493 
     33 C         -53.5687  -27.1545   16.9650 C.2       11 UNK         0.4932 
     34 O         -53.9069  -26.2593   16.1872 O.2       11 UNK        -0.5029 
     35 CA        -52.1193  -27.6620   16.9913 C.3       10 UNK         0.0280 
     36 CB        -51.9609  -28.8597   16.0411 C.3       10 UNK        -0.1976 
     37 N         -51.1463  -26.6290   16.6301 N.am      10 UNK        -0.4242 
     38 C         -50.7395  -25.6559   17.4560 C.2       10 UNK         0.5072 
     39 O         -51.1999  -25.4810   18.5860 O.2       10 UNK        -0.5224 
     40 CA        -49.5816  -24.7635   16.9770 C.3       9 UNK         0.0343 
     41 CB        -48.2507  -25.5326   17.0287 C.3       9 UNK        -0.2003 
     42 N         -49.7737  -24.2163   15.6344 N.am      9 UNK        -0.4272 
     43 C         -50.5972  -23.2015   15.3366 C.2       9 UNK         0.4988 
     44 O         -51.3047  -22.6252   16.1639 O.2       9 UNK        -0.5108 
     45 CA        -50.6238  -22.7341   13.8692 C.3       8 UNK         0.0248 
     46 CB        -49.4598  -21.7739   13.5741 C.3       8 UNK        -0.2001 
     47 N         -50.5928  -23.8533   12.9267 N.am      8 UNK        -0.4140 
     48 C         -51.6081  -24.7103   12.7562 C.2       8 UNK         0.5028 
     49 O         -52.7094  -24.5656   13.2836 O.2       8 UNK        -0.5428 
     50 CA        -51.3548  -25.9367   11.8633 C.3       7 UNK         0.0264 
     51 CB        -51.7168  -25.6290   10.4039 C.3       7 UNK        -0.1988 
     52 N         -49.9766  -26.4305   11.9436 N.am      7 UNK        -0.4454 
     53 C         -49.4511  -27.0076   13.0341 C.2       7 UNK         0.5027 
     54 O         -50.0823  -27.2024   14.0710 O.2       7 UNK        -0.5083 
     55 CA        -47.9527  -27.3665   13.0058 C.3       6 UNK         0.0844 
     56 C56       -47.6853  -28.7797   12.4294 C.3       14 UNK        -0.0967 
     57 S57       -47.5400  -28.8327   10.6089 S.3       14 UNK        -0.2604 
     58 C58       -48.5592  -30.2754   10.1788 C.3       14 UNK         0.0134 
     59 N         -47.1461  -26.3273   12.3649 N.am      6 UNK        -0.4116 
     60 C         -46.9816  -25.0859   12.8357 C.2       5 UNK         0.5034 
     61 O         -47.4380  -24.6926   13.9083 O.2       5 UNK        -0.5045 
     62 CA        -46.2241  -24.1059   11.9279 C.3       5 UNK         0.0224 
     63 CB        -44.7064  -24.2533   12.1157 C.3       5 UNK        -0.1978 
     64 N         -46.5589  -24.2544   10.5073 N.am      5 UNK        -0.4737 
     65 C         -47.7710  -24.0695    9.9723 C.2       4 UNK         0.5027 
     66 O         -48.7629  -23.7976   10.6470 O.2       4 UNK        -0.5211 
     67 CA        -47.9202  -24.1957    8.4430 C.3       4 UNK         0.0297 
     68 CB        -47.5534  -22.8674    7.7566 C.3       4 UNK        -0.1993 
     69 N         -47.2233  -25.3200    7.7979 N.am      4 UNK        -0.4486 
     70 C         -45.9112  -25.5982    7.7436 C.2       3 UNK         0.4961 
     71 O         -45.0365  -24.9704    8.3413 O.2       3 UNK        -0.5105 
     72 CA        -45.5029  -26.7652    6.8316 C.3       3 UNK         0.0299 
     73 CB        -45.8195  -28.1180    7.4873 C.3       3 UNK        -0.1972 
     74 N         -46.1466  -26.6780    5.5180 N.am      3 UNK        -0.4305 
     75 C         -45.8193  -25.7680    4.5851 C.2       2 UNK         0.5006 
     76 O         -44.9060  -24.9527    4.7227 O.2       2 UNK        -0.5106 
     77 CA        -46.6144  -25.7561    3.2651 C.3       2 UNK         0.0296 
     78 CB        -45.8202  -26.4654    2.1556 C.3       2 UNK        -0.2002 
     79 N         -47.9438  -26.3596    3.3584 N.am      2 UNK        -0.4032 
     80 C         -48.9773  -25.8578    4.0501 C.2       1 UNK         0.5000 
     81 O         -48.9310  -24.7803    4.6471 O.2       1 UNK        -0.5238 
     82 H82       -48.3602  -30.8216    4.1631 H         1 UNK         0.0889 
     83 H83       -50.0788  -30.7104    3.7730 H         1 UNK         0.0889 
     84 H84       -49.5664  -30.9253    5.4483 H         1 UNK         0.0889 
     85 H85       -50.6976  -28.6364    3.3438 H         1 UNK         0.3028 
     86 H86       -50.7203  -26.4635    3.0883 H         1 UNK         0.0864 
     87 H87       -52.2947  -26.7139    4.8596 H         1 UNK         0.0720 
     88 H88       -51.5051  -25.1878    5.0445 H         1 UNK         0.0720 
     89 H89       -51.7668  -28.8605    6.2528 H         1 UNK         0.0814 
     90 H90       -52.9946  -27.8940    7.0359 H         1 UNK         0.0814 
     91 H91       -49.5081  -28.9871    7.9991 H         1 UNK         0.1469 
     92 H92       -50.7977  -30.7077   11.7087 H         1 UNK         0.1381 
     93 H93       -53.6698  -28.9874    9.0282 H         1 UNK         0.1206 
     94 H94       -54.3741  -30.5583   10.8426 H         1 UNK         0.0813 
     95 H95       -53.1953  -31.2047   11.9490 H         1 UNK         0.0813 
     96 H96       -55.6465  -28.3847   11.1037 H         1 UNK         0.0638 
     97 H97       -54.1767  -27.4799   10.8331 H         1 UNK         0.0638 
     98 H98       -54.5591  -26.1799   12.9114 H         1 UNK         0.0568 
     99 H99       -57.3436  -24.0158   11.4002 H         1 UNK         0.3450 
    100 H100      -57.3381  -24.8766   12.9187 H         1 UNK         0.3450 
    101 H101      -55.9425  -26.7854   14.4649 H         1 UNK         0.2987 
    102 H102      -59.0751  -27.1234   14.7176 H         1 UNK         0.0766 
    103 H103      -59.5104  -29.3643   15.7669 H         1 UNK         0.0798 
    104 H104      -58.2039  -30.0554   14.8044 H         1 UNK         0.0798 
    105 H105      -59.6277  -29.4004   14.0164 H         1 UNK         0.0798 
    106 H106      -57.8292  -26.6977   16.4707 H         1 UNK         0.3198 
    107 H107      -56.0723  -26.5303   17.8133 H         1 UNK         0.0843 
    108 H108      -56.2784  -29.3244   19.0771 H         1 UNK         0.0831 
    109 H109      -57.5403  -28.1017   19.0918 H         1 UNK         0.0831 
    110 H110      -56.0399  -27.8134   19.9565 H         1 UNK         0.0831 
    111 H111      -54.0592  -28.5449   18.3544 H         1 UNK         0.3133 
    112 H112      -51.8907  -28.0026   18.0036 H         1 UNK         0.0566 
    113 H113      -52.1733  -28.5782   15.0096 H         1 UNK         0.0814 
    114 H114      -50.9496  -29.2653   16.0747 H         1 UNK         0.0814 
    115 H115      -52.6461  -29.6671   16.3028 H         1 UNK         0.0814 
    116 H116      -50.7419  -26.6992   15.6976 H         1 UNK         0.3091 
    117 H117      -49.5038  -23.9255   17.6732 H         1 UNK         0.0702 
    118 H118      -47.4088  -24.8820   16.7910 H         1 UNK         0.0785 
    119 H119      -48.2369  -26.3650   16.3241 H         1 UNK         0.0785 
    120 H120      -48.0733  -25.9424   18.0239 H         1 UNK         0.0785 
    121 H121      -49.1736  -24.5838   14.9029 H         1 UNK         0.2998 
    122 H122      -51.5561  -22.1877   13.7111 H         1 UNK         0.0697 
    123 H123      -48.4910  -22.2482   13.7296 H         1 UNK         0.0825 
    124 H124      -49.5022  -20.9007   14.2263 H         1 UNK         0.0825 
    125 H125      -49.4938  -21.4139   12.5456 H         1 UNK         0.0825 
    126 H126      -49.7532  -23.9776   12.3687 H         1 UNK         0.3029 
    127 H127      -52.0111  -26.7356   12.2132 H         1 UNK         0.0897 
    128 H128      -51.6048  -26.5134    9.7809 H         1 UNK         0.0792 
    129 H129      -51.0945  -24.8402    9.9822 H         1 UNK         0.0792 
    130 H130      -52.7546  -25.3050   10.3199 H         1 UNK         0.0792 
    131 H131      -49.3872  -26.2771   11.1388 H         1 UNK         0.3086 
    132 H132      -47.6378  -27.3967   14.0514 H         1 UNK         0.0583 
    133 H133      -46.7421  -29.1523   12.8319 H         1 UNK         0.1020 
    134 H134      -48.4415  -29.4881   12.7740 H         1 UNK         0.1020 
    135 H135      -48.1358  -30.7413    9.2876 H         1 UNK         0.0694 
    136 H136      -48.5037  -31.0289   10.9658 H         1 UNK         0.0694 
    137 H137      -46.7513  -26.5643   11.4661 H         1 UNK         0.2989 
    138 H138      -46.5114  -23.0965   12.2301 H         1 UNK         0.1055 
    139 H139      -44.4287  -24.1347   13.1641 H         1 UNK         0.0806 
    140 H140      -44.1625  -23.4964   11.5501 H         1 UNK         0.0806 
    141 H141      -44.3511  -25.2323   11.7912 H         1 UNK         0.0806 
    142 H142      -45.8013  -24.4742    9.8610 H         1 UNK         0.3061 
    143 H143      -48.9807  -24.3737    8.2555 H         1 UNK         0.0734 
    144 H144      -47.7704  -22.9036    6.6887 H         1 UNK         0.0832 
    145 H145      -48.1265  -22.0395    8.1762 H         1 UNK         0.0832 
    146 H146      -46.4967  -22.6260    7.8761 H         1 UNK         0.0832 
    147 H147      -47.8305  -25.9306    7.2669 H         1 UNK         0.3156 
    148 H148      -44.4219  -26.7135    6.6842 H         1 UNK         0.0589 
    149 H149      -46.8865  -28.2392    7.6764 H         1 UNK         0.0808 
    150 H150      -45.4970  -28.9487    6.8598 H         1 UNK         0.0808 
    151 H151      -45.3062  -28.2158    8.4448 H         1 UNK         0.0808 
    152 H152      -46.9282  -27.3095    5.3516 H         1 UNK         0.3098 
    153 H153      -46.7438  -24.7108    2.9764 H         1 UNK         0.0720 
    154 H154      -46.3270  -26.3904    1.1932 H         1 UNK         0.0791 
    155 H155      -45.6727  -27.5231    2.3780 H         1 UNK         0.0791 
    156 H156      -44.8328  -26.0174    2.0346 H         1 UNK         0.0791 
    157 H157      -48.0692  -27.2533    2.9056 H         1 UNK         0.3028 
@<TRIPOS>BOND
     1    1    2 1    
     2    1   82 1    
     3    1   83 1    
     4    1   84 1    
     5    2    3 2    
     6    2    4 am   BACKBONE|DICT|INTERRES
     7    4    5 1    
     8    4   85 1    
     9    5    6 1    
    10    5   80 1    
    11    5   86 1    
    12    6    7 1    
    13    6   87 1    
    14    6   88 1    
    15    7    8 1    
    16    8    9 1    
    17    8   89 1    
    18    8   90 1    
    19    9   10 ar   
    20    9   14 ar   
    21   10   11 ar   
    22   10   91 1    
    23   11   12 ar   
    24   11   58 1    
    25   12   13 ar   
    26   12   92 1    
    27   13   14 ar   
    28   13   15 1    
    29   14   93 1    
    30   15   16 1    
    31   15   94 1    
    32   15   95 1    
    33   16   17 1    
    34   17   18 1    
    35   17   96 1    
    36   17   97 1    
    37   18   19 1    
    38   18   22 1    
    39   18   98 1    
    40   19   20 am   BACKBONE|DICT|INTERRES
    41   19   21 2    
    42   20   99 1    
    43   20  100 1    
    44   22   23 am   BACKBONE|DICT|INTERRES
    45   22  101 1    
    46   23   24 2    
    47   23   25 1    
    48   25   26 1    
    49   25   27 1    
    50   25  102 1    
    51   26  103 1    
    52   26  104 1    
    53   26  105 1    
    54   27   28 am   BACKBONE|DICT|INTERRES
    55   27  106 1    
    56   28   29 2    
    57   28   30 1    
    58   30   31 1    
    59   30   32 1    
    60   30  107 1    
    61   31  108 1    
    62   31  109 1    
    63   31  110 1    
    64   32   33 am   BACKBONE|DICT|INTERRES
    65   32  111 1    
    66   33   34 2    
    67   33   35 1    
    68   35   36 1    
    69   35   37 1    
    70   35  112 1    
    71   36  113 1    
    72   36  114 1    
    73   36  115 1    
    74   37   38 am   BACKBONE|DICT|INTERRES
    75   37  116 1    
    76   38   39 2    
    77   38   40 1    
    78   40   41 1    
    79   40   42 1    
    80   40  117 1    
    81   41  118 1    
    82   41  119 1    
    83   41  120 1    
    84   42   43 am   BACKBONE|DICT|INTERRES
    85   42  121 1    
    86   43   44 2    
    87   43   45 1    
    88   45   46 1    
    89   45   47 1    
    90   45  122 1    
    91   46  123 1    
    92   46  124 1    
    93   46  125 1    
    94   47   48 am   BACKBONE|DICT|INTERRES
    95   47  126 1    
    96   48   49 2    
    97   48   50 1    
    98   50   51 1    
    99   50   52 1    
   100   50  127 1    
   101   51  128 1    
   102   51  129 1    
   103   51  130 1    
   104   52   53 am   BACKBONE|DICT|INTERRES
   105   52  131 1    
   106   53   54 2    
   107   53   55 1    
   108   55   56 1    
   109   55   59 1    
   110   55  132 1    
   111   56   57 1    
   112   56  133 1    
   113   56  134 1    
   114   57   58 1    
   115   58  135 1    
   116   58  136 1    
   117   59   60 am   BACKBONE|DICT|INTERRES
   118   59  137 1    
   119   60   61 2    
   120   60   62 1    
   121   62   63 1    
   122   62   64 1    
   123   62  138 1    
   124   63  139 1    
   125   63  140 1    
   126   63  141 1    
   127   64   65 am   BACKBONE|DICT|INTERRES
   128   64  142 1    
   129   65   66 2    
   130   65   67 1    
   131   67   68 1    
   132   67   69 1    
   133   67  143 1    
   134   68  144 1    
   135   68  145 1    
   136   68  146 1    
   137   69   70 am   BACKBONE|DICT|INTERRES
   138   69  147 1    
   139   70   71 2    
   140   70   72 1    
   141   72   73 1    
   142   72   74 1    
   143   72  148 1    
   144   73  149 1    
   145   73  150 1    
   146   73  151 1    
   147   74   75 am   BACKBONE|DICT|INTERRES
   148   74  152 1    
   149   75   76 2    
   150   75   77 1    
   151   77   78 1    
   152   77   79 1    
   153   77  153 1    
   154   78  154 1    
   155   78  155 1    
   156   78  156 1    
   157   79   80 am   BACKBONE|DICT|INTERRES
   158   79  157 1    
   159   80   81 2    
@<TRIPOS>SUBSTRUCTURE
     1 UNK         1 GROUP             0       ****    0 ROOT    
