@<TRIPOS>MOLECULE
3R207
157   159    1
SMALL
USER_CHARGES


@<TRIPOS>ATOM
      1 CA        -49.4761  -22.8441    7.4718 C.3       0 UNK        -0.1975 
      2 C         -49.7240  -23.9712    6.4790 C.2       0 UNK         0.4852 
      3 O         -49.4800  -23.7980    5.2851 O.2       0 UNK        -0.5216 
      4 N         -50.1942  -25.1229    6.9780 N.am      1 UNK        -0.4461 
      5 CA        -50.3868  -26.3849    6.2490 C.3       1 UNK         0.0864 
      6 C6        -51.3483  -26.2719    5.0323 C.3       14 UNK        -0.0898 
      7 S7        -52.1215  -27.8696    4.5969 S.3       14 UNK        -0.2598 
      8 C8        -53.9006  -27.5347    4.8040 C.3       14 UNK         0.0286 
      9 C9        -54.3135  -27.4544    6.2672 C.ar      14 UNK        -0.0844 
     10 C10       -54.7382  -26.2409    6.8163 C.ar      14 UNK        -0.0881 
     11 C11       -55.1256  -26.1675    8.1582 C.ar      14 UNK        -0.0643 
     12 C12       -55.1165  -27.3245    8.9425 C.ar      14 UNK        -0.0930 
     13 C13       -54.6978  -28.5441    8.4048 C.ar      14 UNK        -0.0827 
     14 C14       -54.2961  -28.6022    7.0666 C.ar      14 UNK        -0.1249 
     15 C15       -54.6945  -29.7992    9.2654 C.3       14 UNK         0.0141 
     16 S16       -53.5090  -29.6714   10.6388 S.3       14 UNK        -0.2313 
     17 C17       -53.4728  -31.4117   11.1955 C.3       14 UNK        -0.0915 
     18 CA        -52.8811  -31.6011   12.6172 C.3       13 UNK         0.0968 
     19 C         -51.3539  -31.2925   12.6502 C.2       13 UNK         0.5732 
     20 N         -50.8987  -30.2374   13.3160 N.am      13 UNK        -0.7310 
     21 O         -50.5731  -32.0309   12.0546 O.2       13 UNK        -0.5035 
     22 N         -53.6818  -30.8852   13.6174 N.am      13 UNK        -0.4233 
     23 C         -53.6183  -31.0722   14.9411 C.2       13 UNK         0.4989 
     24 O         -52.9982  -31.9979   15.4675 O.2       13 UNK        -0.4996 
     25 CA        -54.3741  -30.0556   15.8266 C.3       12 UNK         0.0216 
     26 CB        -53.6454  -29.8028   17.1641 C.3       12 UNK        -0.1964 
     27 N         -54.6800  -28.7733   15.1679 N.am      12 UNK        -0.4276 
     28 C         -53.8060  -27.9104   14.6263 C.2       12 UNK         0.5020 
     29 O         -52.5942  -28.1210   14.5460 O.2       12 UNK        -0.5489 
     30 CA        -54.3684  -26.6211   14.0047 C.3       11 UNK         0.0294 
     31 CB        -55.9060  -26.4691   14.0663 C.3       11 UNK        -0.2019 
     32 N         -53.6765  -25.4513   14.5481 N.am      11 UNK        -0.4493 
     33 C         -53.7372  -24.9579   15.7932 C.2       11 UNK         0.4932 
     34 O         -54.5043  -25.3642   16.6679 O.2       11 UNK        -0.5029 
     35 CA        -52.7429  -23.8170   16.0945 C.3       10 UNK         0.0280 
     36 CB        -52.7886  -23.3327   17.5595 C.3       10 UNK        -0.1976 
     37 N         -51.3756  -24.1710   15.6903 N.am      10 UNK        -0.4242 
     38 C         -50.6404  -25.2024   16.1371 C.2       10 UNK         0.5072 
     39 O         -50.9646  -25.9119   17.0906 O.2       10 UNK        -0.5224 
     40 CA        -49.3198  -25.5045   15.4051 C.3       9 UNK         0.0343 
     41 CB        -49.2292  -26.9881   15.0086 C.3       9 UNK        -0.2003 
     42 N         -49.1286  -24.6792   14.2057 N.am      9 UNK        -0.4272 
     43 C         -48.0366  -23.9428   13.9503 C.2       9 UNK         0.4988 
     44 O         -47.0544  -23.8980   14.6915 O.2       9 UNK        -0.5108 
     45 CA        -48.0194  -23.1057   12.6546 C.3       8 UNK         0.0248 
     46 CB        -47.2587  -23.8512   11.5463 C.3       8 UNK        -0.2001 
     47 N         -49.3469  -22.7354   12.1580 N.am      8 UNK        -0.4140 
     48 C         -50.2192  -21.9422   12.7980 C.2       8 UNK         0.5028 
     49 O         -49.9778  -21.3857   13.8688 O.2       8 UNK        -0.5428 
     50 CA        -51.6192  -21.7766   12.1725 C.3       7 UNK         0.0264 
     51 CB        -51.6962  -20.4610   11.3813 C.3       7 UNK        -0.1988 
     52 N         -52.0558  -22.8798   11.3060 N.am      7 UNK        -0.4454 
     53 C         -52.0901  -24.1787   11.6344 C.2       7 UNK         0.5027 
     54 O         -51.7273  -24.6033   12.7345 O.2       7 UNK        -0.5083 
     55 CA        -52.5892  -25.1824   10.5716 C.3       6 UNK         0.0844 
     56 C56       -52.6701  -24.6094    9.1292 C.3       14 UNK        -0.0967 
     57 S57       -54.1628  -23.6101    8.7956 S.3       14 UNK        -0.2604 
     58 C58       -55.5214  -24.8337    8.7766 C.3       14 UNK         0.0134 
     59 N         -51.8089  -26.4233   10.6531 N.am      6 UNK        -0.4116 
     60 C         -50.5121  -26.5503   10.3432 C.2       5 UNK         0.5034 
     61 O         -49.8484  -25.6743    9.7813 O.2       5 UNK        -0.5045 
     62 CA        -49.8479  -27.8810   10.7021 C.3       5 UNK         0.0224 
     63 CB        -49.9520  -28.8939    9.5500 C.3       5 UNK        -0.1978 
     64 N         -48.4442  -27.6443   11.0451 N.am      5 UNK        -0.4737 
     65 C         -47.7781  -28.3100   11.9978 C.2       4 UNK         0.5027 
     66 O         -48.2473  -29.2721   12.6063 O.2       4 UNK        -0.5211 
     67 CA        -46.3596  -27.8195   12.3319 C.3       4 UNK         0.0297 
     68 CB        -45.5968  -28.7628   13.2840 C.3       4 UNK        -0.1993 
     69 N         -45.5935  -27.6164   11.1060 N.am      4 UNK        -0.4486 
     70 C         -44.6246  -26.7071   10.9416 C.2       3 UNK         0.4961 
     71 O         -44.2117  -25.9784   11.8441 O.2       3 UNK        -0.5105 
     72 CA        -44.0059  -26.5714    9.5336 C.3       3 UNK         0.0299 
     73 CB        -42.6168  -27.2299    9.4959 C.3       3 UNK        -0.1972 
     74 N         -44.8221  -27.1134    8.4383 N.am      3 UNK        -0.4305 
     75 C         -46.0593  -26.7074    8.1235 C.2       2 UNK         0.5006 
     76 O         -46.6662  -25.8271    8.7415 O.2       2 UNK        -0.5106 
     77 CA        -46.7535  -27.4344    6.9621 C.3       2 UNK         0.0296 
     78 CB        -46.7296  -28.9686    7.1339 C.3       2 UNK        -0.2002 
     79 N         -48.1256  -26.9511    6.9361 N.am      2 UNK        -0.4032 
     80 C         -49.0164  -27.0346    5.9434 C.2       1 UNK         0.5000 
     81 O         -48.7834  -27.5697    4.8575 O.2       1 UNK        -0.5238 
     82 H82       -48.5360  -22.3424    7.2437 H         1 UNK         0.0889 
     83 H83       -49.4145  -23.2117    8.4960 H         1 UNK         0.0889 
     84 H84       -50.2782  -22.1087    7.4150 H         1 UNK         0.0889 
     85 H85       -50.2773  -25.2026    7.9878 H         1 UNK         0.3028 
     86 H86       -50.8661  -27.0469    6.9726 H         1 UNK         0.0864 
     87 H87       -52.1397  -25.5554    5.2565 H         1 UNK         0.0720 
     88 H88       -50.8311  -25.8777    4.1560 H         1 UNK         0.0720 
     89 H89       -54.4633  -28.3371    4.3248 H         1 UNK         0.0814 
     90 H90       -54.1633  -26.6210    4.2682 H         1 UNK         0.0814 
     91 H91       -54.7480  -25.3453    6.2100 H         1 UNK         0.1469 
     92 H92       -55.4196  -27.2777    9.9794 H         1 UNK         0.1381 
     93 H93       -53.9713  -29.5417    6.6404 H         1 UNK         0.1206 
     94 H94       -54.4482  -30.6742    8.6617 H         1 UNK         0.0813 
     95 H95       -55.6951  -29.9691    9.6652 H         1 UNK         0.0813 
     96 H96       -54.4908  -31.8040   11.1742 H         1 UNK         0.0638 
     97 H97       -52.9136  -31.9989   10.4646 H         1 UNK         0.0638 
     98 H98       -52.9659  -32.6630   12.8548 H         1 UNK         0.0568 
     99 H99       -49.9072  -30.0260   13.2655 H         1 UNK         0.3450 
    100 H100      -51.5288  -29.6055   13.8002 H         1 UNK         0.3450 
    101 H101      -54.2011  -30.0940   13.2705 H         1 UNK         0.2987 
    102 H102      -55.3354  -30.5176   16.0557 H         1 UNK         0.0766 
    103 H103      -54.1980  -29.1028   17.7908 H         1 UNK         0.0798 
    104 H104      -52.6469  -29.3926   17.0068 H         1 UNK         0.0798 
    105 H105      -53.5327  -30.7256   17.7344 H         1 UNK         0.0798 
    106 H106      -55.6562  -28.5109   15.1611 H         1 UNK         0.3198 
    107 H107      -54.0950  -26.6661   12.9504 H         1 UNK         0.0843 
    108 H108      -56.2864  -26.4633   15.0881 H         1 UNK         0.0831 
    109 H109      -56.4046  -27.2773   13.5295 H         1 UNK         0.0831 
    110 H110      -56.2224  -25.5381   13.5957 H         1 UNK         0.0831 
    111 H111      -52.9387  -25.0860   13.9479 H         1 UNK         0.3133 
    112 H112      -53.0392  -22.9777   15.4634 H         1 UNK         0.0566 
    113 H113      -52.0861  -22.5170   17.7297 H         1 UNK         0.0814 
    114 H114      -53.7825  -22.9635   17.8152 H         1 UNK         0.0814 
    115 H115      -52.5513  -24.1322   18.2619 H         1 UNK         0.0814 
    116 H116      -50.9996  -23.6367   14.9201 H         1 UNK         0.3091 
    117 H117      -48.5327  -25.3032   16.1343 H         1 UNK         0.0702 
    118 H118      -49.4428  -27.6456   15.8522 H         1 UNK         0.0785 
    119 H119      -49.9360  -27.2380   14.2162 H         1 UNK         0.0785 
    120 H120      -48.2269  -27.2355   14.6641 H         1 UNK         0.0785 
    121 H121      -49.8977  -24.6714   13.5423 H         1 UNK         0.2998 
    122 H122      -47.4815  -22.1809   12.8736 H         1 UNK         0.0697 
    123 H123      -47.7478  -24.7870   11.2780 H         1 UNK         0.0825 
    124 H124      -46.2453  -24.0953   11.8669 H         1 UNK         0.0825 
    125 H125      -47.1725  -23.2492   10.6415 H         1 UNK         0.0825 
    126 H126      -49.6373  -23.1599   11.2893 H         1 UNK         0.3029 
    127 H127      -52.3300  -21.7193   12.9996 H         1 UNK         0.0897 
    128 H128      -52.7097  -20.2666   11.0296 H         1 UNK         0.0792 
    129 H129      -51.0349  -20.4723   10.5139 H         1 UNK         0.0792 
    130 H130      -51.4043  -19.6128   12.0026 H         1 UNK         0.0792 
    131 H131      -52.4163  -22.6181   10.3979 H         1 UNK         0.3086 
    132 H132      -53.5959  -25.4626   10.8813 H         1 UNK         0.0583 
    133 H133      -51.7983  -23.9988    8.8978 H         1 UNK         0.1020 
    134 H134      -52.6329  -25.4214    8.4037 H         1 UNK         0.1020 
    135 H135      -55.8725  -24.9745    9.8000 H         1 UNK         0.0694 
    136 H136      -56.3636  -24.4172    8.2225 H         1 UNK         0.0694 
    137 H137      -52.2765  -27.2035   11.0921 H         1 UNK         0.2989 
    138 H138      -50.3728  -28.2784   11.5722 H         1 UNK         0.1055 
    139 H139      -50.9845  -29.0208    9.2235 H         1 UNK         0.0806 
    140 H140      -49.5895  -29.8746    9.8591 H         1 UNK         0.0806 
    141 H141      -49.3751  -28.5832    8.6824 H         1 UNK         0.0806 
    142 H142      -48.0225  -26.8377   10.5978 H         1 UNK         0.3061 
    143 H143      -46.4851  -26.8577   12.8346 H         1 UNK         0.0734 
    144 H144      -44.6178  -28.3602   13.5439 H         1 UNK         0.0832 
    145 H145      -46.1436  -28.9044   14.2172 H         1 UNK         0.0832 
    146 H146      -45.4482  -29.7470   12.8385 H         1 UNK         0.0832 
    147 H147      -45.8728  -28.1731   10.3106 H         1 UNK         0.3156 
    148 H148      -43.8809  -25.5031    9.3449 H         1 UNK         0.0589 
    149 H149      -42.6770  -28.3080    9.6506 H         1 UNK         0.0808 
    150 H150      -42.1171  -27.0526    8.5434 H         1 UNK         0.0808 
    151 H151      -41.9708  -26.8252   10.2766 H         1 UNK         0.0808 
    152 H152      -44.3980  -27.8431    7.8835 H         1 UNK         0.3098 
    153 H153      -46.2586  -27.1522    6.0310 H         1 UNK         0.0720 
    154 H154      -47.3195  -29.4658    6.3638 H         1 UNK         0.0791 
    155 H155      -47.1254  -29.2748    8.1028 H         1 UNK         0.0791 
    156 H156      -45.7164  -29.3631    7.0541 H         1 UNK         0.0791 
    157 H157      -48.3557  -26.4004    7.7570 H         1 UNK         0.3028 
@<TRIPOS>BOND
     1    1    2 1    
     2    1   82 1    
     3    1   83 1    
     4    1   84 1    
     5    2    3 2    
     6    2    4 am   BACKBONE|DICT|INTERRES
     7    4    5 1    
     8    4   85 1    
     9    5    6 1    
    10    5   80 1    
    11    5   86 1    
    12    6    7 1    
    13    6   87 1    
    14    6   88 1    
    15    7    8 1    
    16    8    9 1    
    17    8   89 1    
    18    8   90 1    
    19    9   10 ar   
    20    9   14 ar   
    21   10   11 ar   
    22   10   91 1    
    23   11   12 ar   
    24   11   58 1    
    25   12   13 ar   
    26   12   92 1    
    27   13   14 ar   
    28   13   15 1    
    29   14   93 1    
    30   15   16 1    
    31   15   94 1    
    32   15   95 1    
    33   16   17 1    
    34   17   18 1    
    35   17   96 1    
    36   17   97 1    
    37   18   19 1    
    38   18   22 1    
    39   18   98 1    
    40   19   20 am   BACKBONE|DICT|INTERRES
    41   19   21 2    
    42   20   99 1    
    43   20  100 1    
    44   22   23 am   BACKBONE|DICT|INTERRES
    45   22  101 1    
    46   23   24 2    
    47   23   25 1    
    48   25   26 1    
    49   25   27 1    
    50   25  102 1    
    51   26  103 1    
    52   26  104 1    
    53   26  105 1    
    54   27   28 am   BACKBONE|DICT|INTERRES
    55   27  106 1    
    56   28   29 2    
    57   28   30 1    
    58   30   31 1    
    59   30   32 1    
    60   30  107 1    
    61   31  108 1    
    62   31  109 1    
    63   31  110 1    
    64   32   33 am   BACKBONE|DICT|INTERRES
    65   32  111 1    
    66   33   34 2    
    67   33   35 1    
    68   35   36 1    
    69   35   37 1    
    70   35  112 1    
    71   36  113 1    
    72   36  114 1    
    73   36  115 1    
    74   37   38 am   BACKBONE|DICT|INTERRES
    75   37  116 1    
    76   38   39 2    
    77   38   40 1    
    78   40   41 1    
    79   40   42 1    
    80   40  117 1    
    81   41  118 1    
    82   41  119 1    
    83   41  120 1    
    84   42   43 am   BACKBONE|DICT|INTERRES
    85   42  121 1    
    86   43   44 2    
    87   43   45 1    
    88   45   46 1    
    89   45   47 1    
    90   45  122 1    
    91   46  123 1    
    92   46  124 1    
    93   46  125 1    
    94   47   48 am   BACKBONE|DICT|INTERRES
    95   47  126 1    
    96   48   49 2    
    97   48   50 1    
    98   50   51 1    
    99   50   52 1    
   100   50  127 1    
   101   51  128 1    
   102   51  129 1    
   103   51  130 1    
   104   52   53 am   BACKBONE|DICT|INTERRES
   105   52  131 1    
   106   53   54 2    
   107   53   55 1    
   108   55   56 1    
   109   55   59 1    
   110   55  132 1    
   111   56   57 1    
   112   56  133 1    
   113   56  134 1    
   114   57   58 1    
   115   58  135 1    
   116   58  136 1    
   117   59   60 am   BACKBONE|DICT|INTERRES
   118   59  137 1    
   119   60   61 2    
   120   60   62 1    
   121   62   63 1    
   122   62   64 1    
   123   62  138 1    
   124   63  139 1    
   125   63  140 1    
   126   63  141 1    
   127   64   65 am   BACKBONE|DICT|INTERRES
   128   64  142 1    
   129   65   66 2    
   130   65   67 1    
   131   67   68 1    
   132   67   69 1    
   133   67  143 1    
   134   68  144 1    
   135   68  145 1    
   136   68  146 1    
   137   69   70 am   BACKBONE|DICT|INTERRES
   138   69  147 1    
   139   70   71 2    
   140   70   72 1    
   141   72   73 1    
   142   72   74 1    
   143   72  148 1    
   144   73  149 1    
   145   73  150 1    
   146   73  151 1    
   147   74   75 am   BACKBONE|DICT|INTERRES
   148   74  152 1    
   149   75   76 2    
   150   75   77 1    
   151   77   78 1    
   152   77   79 1    
   153   77  153 1    
   154   78  154 1    
   155   78  155 1    
   156   78  156 1    
   157   79   80 am   BACKBONE|DICT|INTERRES
   158   79  157 1    
   159   80   81 2    
@<TRIPOS>SUBSTRUCTURE
     1 UNK         1 GROUP             0       ****    0 ROOT    
