@<TRIPOS>MOLECULE
3R207
157   159    1
SMALL
USER_CHARGES


@<TRIPOS>ATOM
      1 CA        -47.6410  -29.5758    5.1114 C.3       0 UNK        -0.1975 
      2 C         -48.2402  -28.1793    5.0591 C.2       0 UNK         0.4852 
      3 O         -47.6876  -27.2565    5.6577 O.2       0 UNK        -0.5216 
      4 N         -49.3578  -28.0169    4.3366 N.am      1 UNK        -0.4461 
      5 CA        -50.1193  -26.7675    4.1738 C.3       1 UNK         0.0864 
      6 C6        -50.7791  -26.2674    5.4891 C.3       14 UNK        -0.0898 
      7 S7        -51.8399  -27.5375    6.2613 S.3       14 UNK        -0.2598 
      8 C8        -51.0027  -27.7917    7.8582 C.3       14 UNK         0.0286 
      9 C9        -51.5656  -26.8746    8.9342 C.ar      14 UNK        -0.0844 
     10 C10       -51.1649  -25.5369    9.0106 C.ar      14 UNK        -0.0881 
     11 C11       -51.6536  -24.7046   10.0233 C.ar      14 UNK        -0.0643 
     12 C12       -52.5557  -25.2171   10.9588 C.ar      14 UNK        -0.0930 
     13 C13       -52.9687  -26.5498   10.8877 C.ar      14 UNK        -0.0827 
     14 C14       -52.4752  -27.3730    9.8721 C.ar      14 UNK        -0.1249 
     15 C15       -53.9290  -27.0997   11.9266 C.3       14 UNK         0.0141 
     16 S16       -53.0093  -27.9145   13.2665 S.3       14 UNK        -0.2313 
     17 C17       -53.0964  -29.6761   12.7877 C.3       14 UNK        -0.0915 
     18 CA        -53.7062  -30.5838   13.8912 C.3       13 UNK         0.0968 
     19 C         -52.6659  -30.9474   14.9885 C.2       13 UNK         0.5732 
     20 N         -52.7488  -30.3831   16.1884 N.am      13 UNK        -0.7310 
     21 O         -51.7847  -31.7698   14.7508 O.2       13 UNK        -0.5035 
     22 N         -54.9546  -30.0299   14.4339 N.am      13 UNK        -0.4233 
     23 C         -55.9145  -30.7457   15.0314 C.2       13 UNK         0.4989 
     24 O         -55.9378  -31.9773   15.0430 O.2       13 UNK        -0.4996 
     25 CA        -57.0238  -29.9731   15.7706 C.3       12 UNK         0.0216 
     26 CB        -56.9644  -30.2712   17.2790 C.3       12 UNK        -0.1964 
     27 N         -56.9510  -28.5210   15.5831 N.am      12 UNK        -0.4276 
     28 C         -57.4561  -27.8551   14.5348 C.2       12 UNK         0.5020 
     29 O         -58.0442  -28.3943   13.5977 O.2       12 UNK        -0.5489 
     30 CA        -57.2497  -26.3356   14.5227 C.3       11 UNK         0.0294 
     31 CB        -58.3211  -25.6328   15.3787 C.3       11 UNK        -0.2019 
     32 N         -55.9031  -26.0043   14.9864 N.am      11 UNK        -0.4493 
     33 C         -55.2668  -24.8425   14.8350 C.2       11 UNK         0.4932 
     34 O         -55.7769  -23.8509   14.3113 O.2       11 UNK        -0.5029 
     35 CA        -53.8062  -24.7951   15.3357 C.3       10 UNK         0.0280 
     36 CB        -53.2016  -23.3819   15.2339 C.3       10 UNK        -0.1976 
     37 N         -53.6019  -25.2957   16.7014 N.am      10 UNK        -0.4242 
     38 C         -53.7332  -26.5506   17.1567 C.2       10 UNK         0.5072 
     39 O         -54.1573  -27.4986   16.4863 O.2       10 UNK        -0.5224 
     40 CA        -53.2647  -26.7800   18.6036 C.3       9 UNK         0.0343 
     41 CB        -53.6612  -28.1644   19.1479 C.3       9 UNK        -0.2003 
     42 N         -51.8101  -26.6354   18.6666 N.am      9 UNK        -0.4272 
     43 C         -51.1593  -25.4733   18.8209 C.2       9 UNK         0.4988 
     44 O         -51.7209  -24.4009   19.0482 O.2       9 UNK        -0.5108 
     45 CA        -49.6319  -25.5081   18.6299 C.3       8 UNK         0.0248 
     46 CB        -48.9305  -25.9643   19.9197 C.3       8 UNK        -0.2001 
     47 N         -49.2274  -26.3686   17.5114 N.am      8 UNK        -0.4140 
     48 C         -49.5261  -26.1237   16.2271 C.2       8 UNK         0.5028 
     49 O         -50.0967  -25.1008   15.8407 O.2       8 UNK        -0.5428 
     50 CA        -49.1657  -27.2303   15.2221 C.3       7 UNK         0.0264 
     51 CB        -50.0682  -28.4555   15.4354 C.3       7 UNK        -0.1988 
     52 N         -49.3368  -26.7538   13.8479 N.am      7 UNK        -0.4454 
     53 C         -48.3929  -26.1036   13.1579 C.2       7 UNK         0.5027 
     54 O         -47.2390  -25.9360   13.5634 O.2       7 UNK        -0.5083 
     55 CA        -48.8140  -25.5043   11.8032 C.3       6 UNK         0.0844 
     56 C56       -49.1415  -23.9929   11.9558 C.3       14 UNK        -0.0967 
     57 S57       -49.3951  -23.1224   10.3662 S.3       14 UNK        -0.2604 
     58 C58       -51.1937  -23.2576   10.1228 C.3       14 UNK         0.0134 
     59 N         -47.7865  -25.7501   10.7921 N.am      6 UNK        -0.4116 
     60 C         -47.5129  -26.9294   10.2253 C.2       5 UNK         0.5034 
     61 O         -48.1004  -27.9758   10.5066 O.2       5 UNK        -0.5045 
     62 CA        -46.4173  -26.9236    9.1386 C.3       5 UNK         0.0224 
     63 CB        -46.1766  -28.3190    8.5335 C.3       5 UNK        -0.1978 
     64 N         -46.7214  -25.9873    8.0512 N.am      5 UNK        -0.4737 
     65 C         -46.5772  -24.6561    8.1074 C.2       4 UNK         0.5027 
     66 O         -46.1548  -24.0646    9.1031 O.2       4 UNK        -0.5211 
     67 CA        -46.9703  -23.8714    6.8415 C.3       4 UNK         0.0297 
     68 CB        -46.6161  -22.3716    6.9181 C.3       4 UNK        -0.1993 
     69 N         -46.4276  -24.4851    5.6256 N.am      4 UNK        -0.4486 
     70 C         -45.1366  -24.6957    5.3202 C.2       3 UNK         0.4961 
     71 O         -44.1920  -24.2829    5.9939 O.2       3 UNK        -0.5105 
     72 CA        -44.8328  -25.5339    4.0635 C.3       3 UNK         0.0299 
     73 CB        -44.2864  -26.9147    4.4657 C.3       3 UNK        -0.1972 
     74 N         -46.0020  -25.7218    3.2020 N.am      3 UNK        -0.4305 
     75 C         -46.4456  -24.8278    2.3072 C.2       2 UNK         0.5006 
     76 O         -45.8729  -23.7671    2.0559 O.2       2 UNK        -0.5106 
     77 CA        -47.7583  -25.1661    1.5748 C.3       2 UNK         0.0296 
     78 CB        -47.4613  -25.8228    0.2167 C.3       2 UNK        -0.2002 
     79 N         -48.6599  -26.0312    2.3455 N.am      2 UNK        -0.4032 
     80 C         -49.2666  -25.6768    3.4888 C.2       1 UNK         0.5000 
     81 O         -49.1246  -24.5717    4.0164 O.2       1 UNK        -0.5238 
     82 H82       -46.5691  -29.5335    4.9210 H         1 UNK         0.0889 
     83 H83       -48.0896  -30.2384    4.3716 H         1 UNK         0.0889 
     84 H84       -47.7955  -30.0124    6.0973 H         1 UNK         0.0889 
     85 H85       -49.7595  -28.8224    3.8767 H         1 UNK         0.3028 
     86 H86       -50.9266  -26.9923    3.4747 H         1 UNK         0.0864 
     87 H87       -50.0146  -25.9379    6.1933 H         1 UNK         0.0720 
     88 H88       -51.4030  -25.3936    5.2927 H         1 UNK         0.0720 
     89 H89       -49.9258  -27.6439    7.7597 H         1 UNK         0.0814 
     90 H90       -51.1312  -28.8344    8.1526 H         1 UNK         0.0814 
     91 H91       -50.4548  -25.1430    8.2979 H         1 UNK         0.1469 
     92 H92       -52.9291  -24.5821   11.7507 H         1 UNK         0.1381 
     93 H93       -52.7874  -28.4071    9.8241 H         1 UNK         0.1206 
     94 H94       -54.5220  -26.2884   12.3487 H         1 UNK         0.0813 
     95 H95       -54.6467  -27.7803   11.4672 H         1 UNK         0.0813 
     96 H96       -53.6933  -29.7763   11.8811 H         1 UNK         0.0638 
     97 H97       -52.0952  -30.0100   12.5086 H         1 UNK         0.0638 
     98 H98       -53.9550  -31.5305   13.4078 H         1 UNK         0.0568 
     99 H99       -52.0843  -30.6435   16.8979 H         1 UNK         0.3450 
    100 H100      -53.4256  -29.6538   16.3613 H         1 UNK         0.3450 
    101 H101      -54.9870  -29.0239   14.4956 H         1 UNK         0.2987 
    102 H102      -57.9813  -30.3334   15.3882 H         1 UNK         0.0766 
    103 H103      -57.0773  -31.3389   17.4725 H         1 UNK         0.0798 
    104 H104      -57.7637  -29.7618   17.8177 H         1 UNK         0.0798 
    105 H105      -56.0133  -29.9617   17.7139 H         1 UNK         0.0798 
    106 H106      -56.4822  -28.0036   16.3139 H         1 UNK         0.3198 
    107 H107      -57.3476  -25.9982   13.4885 H         1 UNK         0.0843 
    108 H108      -58.2269  -25.8886   16.4346 H         1 UNK         0.0831 
    109 H109      -59.3243  -25.9198   15.0603 H         1 UNK         0.0831 
    110 H110      -58.2561  -24.5484   15.2909 H         1 UNK         0.0831 
    111 H111      -55.3589  -26.7503   15.4172 H         1 UNK         0.3133 
    112 H112      -53.2259  -25.4350   14.6713 H         1 UNK         0.0566 
    113 H113      -52.1513  -23.3760   15.5253 H         1 UNK         0.0814 
    114 H114      -53.7304  -22.6711   15.8700 H         1 UNK         0.0814 
    115 H115      -53.2495  -23.0060   14.2109 H         1 UNK         0.0814 
    116 H116      -53.2233  -24.6218   17.3554 H         1 UNK         0.3091 
    117 H117      -53.7420  -26.0266   19.2340 H         1 UNK         0.0702 
    118 H118      -53.3657  -28.2760   20.1912 H         1 UNK         0.0785 
    119 H119      -53.1993  -28.9741   18.5840 H         1 UNK         0.0785 
    120 H120      -54.7416  -28.3059   19.1024 H         1 UNK         0.0785 
    121 H121      -51.2692  -27.4596   18.4510 H         1 UNK         0.2998 
    122 H122      -49.3036  -24.4908   18.4057 H         1 UNK         0.0697 
    123 H123      -49.1973  -26.9869   20.1894 H         1 UNK         0.0825 
    124 H124      -49.2059  -25.3242   20.7592 H         1 UNK         0.0825 
    125 H125      -47.8460  -25.9148   19.8203 H         1 UNK         0.0825 
    126 H126      -48.7427  -27.2232   17.7461 H         1 UNK         0.3029 
    127 H127      -48.1263  -27.5263   15.3812 H         1 UNK         0.0897 
    128 H128      -51.1216  -28.1757   15.4589 H         1 UNK         0.0792 
    129 H129      -49.8459  -28.9521   16.3802 H         1 UNK         0.0792 
    130 H130      -49.9348  -29.1959   14.6461 H         1 UNK         0.0792 
    131 H131      -50.2729  -26.8075   13.4709 H         1 UNK         0.3086 
    132 H132      -49.7171  -26.0215   11.4757 H         1 UNK         0.0583 
    133 H133      -50.0228  -23.8577   12.5863 H         1 UNK         0.1020 
    134 H134      -48.3268  -23.4793   12.4707 H         1 UNK         0.1020 
    135 H135      -51.7022  -22.7369   10.9358 H         1 UNK         0.0694 
    136 H136      -51.4653  -22.7356    9.2045 H         1 UNK         0.0694 
    137 H137      -47.2632  -24.9406   10.4739 H         1 UNK         0.2989 
    138 H138      -45.4899  -26.6065    9.6209 H         1 UNK         0.1055 
    139 H139      -45.3913  -28.2958    7.7777 H         1 UNK         0.0806 
    140 H140      -47.0797  -28.7123    8.0666 H         1 UNK         0.0806 
    141 H141      -45.8690  -29.0306    9.3007 H         1 UNK         0.0806 
    142 H142      -47.0787  -26.3989    7.1895 H         1 UNK         0.3061 
    143 H143      -48.0560  -23.9485    6.7618 H         1 UNK         0.0734 
    144 H144      -45.5457  -22.2123    7.0505 H         1 UNK         0.0832 
    145 H145      -46.9264  -21.8447    6.0160 H         1 UNK         0.0832 
    146 H146      -47.1208  -21.8976    7.7609 H         1 UNK         0.0832 
    147 H147      -47.1250  -24.8823    5.0076 H         1 UNK         0.3156 
    148 H148      -44.0567  -25.0131    3.4988 H         1 UNK         0.0589 
    149 H149      -44.0423  -27.5179    3.5911 H         1 UNK         0.0808 
    150 H150      -43.3731  -26.8154    5.0539 H         1 UNK         0.0808 
    151 H151      -45.0011  -27.4716    5.0723 H         1 UNK         0.0808 
    152 H152      -46.5431  -26.5602    3.3543 H         1 UNK         0.3098 
    153 H153      -48.2787  -24.2237    1.3910 H         1 UNK         0.0720 
    154 H154      -46.8138  -25.1881   -0.3902 H         1 UNK         0.0791 
    155 H155      -48.3757  -25.9873   -0.3538 H         1 UNK         0.0791 
    156 H156      -46.9587  -26.7840    0.3327 H         1 UNK         0.0791 
    157 H157      -48.8167  -26.9618    1.9853 H         1 UNK         0.3028 
@<TRIPOS>BOND
     1    1    2 1    
     2    1   82 1    
     3    1   83 1    
     4    1   84 1    
     5    2    3 2    
     6    2    4 am   BACKBONE|DICT|INTERRES
     7    4    5 1    
     8    4   85 1    
     9    5    6 1    
    10    5   80 1    
    11    5   86 1    
    12    6    7 1    
    13    6   87 1    
    14    6   88 1    
    15    7    8 1    
    16    8    9 1    
    17    8   89 1    
    18    8   90 1    
    19    9   10 ar   
    20    9   14 ar   
    21   10   11 ar   
    22   10   91 1    
    23   11   12 ar   
    24   11   58 1    
    25   12   13 ar   
    26   12   92 1    
    27   13   14 ar   
    28   13   15 1    
    29   14   93 1    
    30   15   16 1    
    31   15   94 1    
    32   15   95 1    
    33   16   17 1    
    34   17   18 1    
    35   17   96 1    
    36   17   97 1    
    37   18   19 1    
    38   18   22 1    
    39   18   98 1    
    40   19   20 am   BACKBONE|DICT|INTERRES
    41   19   21 2    
    42   20   99 1    
    43   20  100 1    
    44   22   23 am   BACKBONE|DICT|INTERRES
    45   22  101 1    
    46   23   24 2    
    47   23   25 1    
    48   25   26 1    
    49   25   27 1    
    50   25  102 1    
    51   26  103 1    
    52   26  104 1    
    53   26  105 1    
    54   27   28 am   BACKBONE|DICT|INTERRES
    55   27  106 1    
    56   28   29 2    
    57   28   30 1    
    58   30   31 1    
    59   30   32 1    
    60   30  107 1    
    61   31  108 1    
    62   31  109 1    
    63   31  110 1    
    64   32   33 am   BACKBONE|DICT|INTERRES
    65   32  111 1    
    66   33   34 2    
    67   33   35 1    
    68   35   36 1    
    69   35   37 1    
    70   35  112 1    
    71   36  113 1    
    72   36  114 1    
    73   36  115 1    
    74   37   38 am   BACKBONE|DICT|INTERRES
    75   37  116 1    
    76   38   39 2    
    77   38   40 1    
    78   40   41 1    
    79   40   42 1    
    80   40  117 1    
    81   41  118 1    
    82   41  119 1    
    83   41  120 1    
    84   42   43 am   BACKBONE|DICT|INTERRES
    85   42  121 1    
    86   43   44 2    
    87   43   45 1    
    88   45   46 1    
    89   45   47 1    
    90   45  122 1    
    91   46  123 1    
    92   46  124 1    
    93   46  125 1    
    94   47   48 am   BACKBONE|DICT|INTERRES
    95   47  126 1    
    96   48   49 2    
    97   48   50 1    
    98   50   51 1    
    99   50   52 1    
   100   50  127 1    
   101   51  128 1    
   102   51  129 1    
   103   51  130 1    
   104   52   53 am   BACKBONE|DICT|INTERRES
   105   52  131 1    
   106   53   54 2    
   107   53   55 1    
   108   55   56 1    
   109   55   59 1    
   110   55  132 1    
   111   56   57 1    
   112   56  133 1    
   113   56  134 1    
   114   57   58 1    
   115   58  135 1    
   116   58  136 1    
   117   59   60 am   BACKBONE|DICT|INTERRES
   118   59  137 1    
   119   60   61 2    
   120   60   62 1    
   121   62   63 1    
   122   62   64 1    
   123   62  138 1    
   124   63  139 1    
   125   63  140 1    
   126   63  141 1    
   127   64   65 am   BACKBONE|DICT|INTERRES
   128   64  142 1    
   129   65   66 2    
   130   65   67 1    
   131   67   68 1    
   132   67   69 1    
   133   67  143 1    
   134   68  144 1    
   135   68  145 1    
   136   68  146 1    
   137   69   70 am   BACKBONE|DICT|INTERRES
   138   69  147 1    
   139   70   71 2    
   140   70   72 1    
   141   72   73 1    
   142   72   74 1    
   143   72  148 1    
   144   73  149 1    
   145   73  150 1    
   146   73  151 1    
   147   74   75 am   BACKBONE|DICT|INTERRES
   148   74  152 1    
   149   75   76 2    
   150   75   77 1    
   151   77   78 1    
   152   77   79 1    
   153   77  153 1    
   154   78  154 1    
   155   78  155 1    
   156   78  156 1    
   157   79   80 am   BACKBONE|DICT|INTERRES
   158   79  157 1    
   159   80   81 2    
@<TRIPOS>SUBSTRUCTURE
     1 UNK         1 GROUP             0       ****    0 ROOT    
