@<TRIPOS>MOLECULE
3R207
157   159    1
SMALL
USER_CHARGES


@<TRIPOS>ATOM
      1 CA        -47.5031  -32.7688    2.1507 C.3       0 UNK        -0.1975 
      2 C         -47.8037  -31.4780    2.8986 C.2       0 UNK         0.4852 
      3 O         -47.0697  -30.4998    2.7495 O.2       0 UNK        -0.5216 
      4 N         -48.8804  -31.4654    3.6954 N.am      1 UNK        -0.4461 
      5 CA        -49.2826  -30.3368    4.5407 C.3       1 UNK         0.0864 
      6 C6        -50.7534  -30.4888    5.0100 C.3       14 UNK        -0.0898 
      7 S7        -51.5939  -28.8854    5.2098 S.3       14 UNK        -0.2598 
      8 C8        -51.5696  -28.6801    7.0181 C.3       14 UNK         0.0286 
      9 C9        -52.3398  -27.4365    7.4354 C.ar      14 UNK        -0.0844 
     10 C10       -51.8482  -26.1667    7.1171 C.ar      14 UNK        -0.0881 
     11 C11       -52.5617  -25.0193    7.4746 C.ar      14 UNK        -0.0643 
     12 C12       -53.7642  -25.1463    8.1746 C.ar      14 UNK        -0.0930 
     13 C13       -54.2581  -26.4091    8.5121 C.ar      14 UNK        -0.0827 
     14 C14       -53.5464  -27.5516    8.1330 C.ar      14 UNK        -0.1249 
     15 C15       -55.5666  -26.5277    9.2781 C.3       14 UNK         0.0141 
     16 S16       -55.3051  -26.3000   11.0634 S.3       14 UNK        -0.2313 
     17 C17       -54.6515  -27.9319   11.5541 C.3       14 UNK        -0.0915 
     18 CA        -55.5373  -28.6156   12.6287 C.3       13 UNK         0.0968 
     19 C         -55.1033  -30.0899   12.8787 C.2       13 UNK         0.5732 
     20 N         -54.8325  -30.5214   14.1060 N.am      13 UNK        -0.7310 
     21 O         -55.0278  -30.8728   11.9347 O.2       13 UNK        -0.5035 
     22 N         -55.5935  -27.8117   13.8561 N.am      13 UNK        -0.4233 
     23 C         -56.6681  -27.6659   14.6394 C.2       13 UNK         0.4989 
     24 O         -57.7777  -28.1289   14.3683 O.2       13 UNK        -0.4996 
     25 CA        -56.4708  -26.8671   15.9470 C.3       12 UNK         0.0216 
     26 CB        -57.5059  -27.2371   17.0305 C.3       12 UNK        -0.1964 
     27 N         -55.1083  -26.9453   16.4918 N.am      12 UNK        -0.4276 
     28 C         -54.4360  -28.0524   16.8372 C.2       12 UNK         0.5020 
     29 O         -54.8835  -29.1979   16.7467 O.2       12 UNK        -0.5489 
     30 CA        -52.9895  -27.8399   17.3105 C.3       11 UNK         0.0294 
     31 CB        -52.7239  -28.5903   18.6265 C.3       11 UNK        -0.2019 
     32 N         -51.9814  -28.2381   16.3230 N.am      11 UNK        -0.4493 
     33 C         -51.9476  -27.9306   15.0180 C.2       11 UNK         0.4932 
     34 O         -52.8421  -27.3432   14.4102 O.2       11 UNK        -0.5029 
     35 CA        -50.6272  -28.2458   14.3003 C.3       10 UNK         0.0280 
     36 CB        -50.7659  -28.2316   12.7662 C.3       10 UNK        -0.1976 
     37 N         -49.6601  -27.2302   14.7069 N.am      10 UNK        -0.4242 
     38 C         -48.9500  -27.2609   15.8425 C.2       10 UNK         0.5072 
     39 O         -48.8676  -28.2496   16.5729 O.2       10 UNK        -0.5224 
     40 CA        -48.2923  -25.9430   16.2744 C.3       9 UNK         0.0343 
     41 CB        -46.9534  -25.7137   15.5573 C.3       9 UNK        -0.2003 
     42 N         -49.1846  -24.8029   16.0463 N.am      9 UNK        -0.4272 
     43 C         -50.1956  -24.4646   16.8593 C.2       9 UNK         0.4988 
     44 O         -50.4728  -25.0644   17.8984 O.2       9 UNK        -0.5108 
     45 CA        -51.0217  -23.2359   16.4543 C.3       8 UNK         0.0248 
     46 CB        -50.1351  -21.9975   16.2279 C.3       8 UNK        -0.2001 
     47 N         -51.8171  -23.4895   15.2563 N.am      8 UNK        -0.4140 
     48 C         -52.9931  -24.1247   15.2224 C.2       8 UNK         0.5028 
     49 O         -53.5463  -24.5927   16.2196 O.2       8 UNK        -0.5428 
     50 CA        -53.7104  -24.2465   13.8627 C.3       7 UNK         0.0264 
     51 CB        -54.7328  -23.1086   13.6831 C.3       7 UNK        -0.1988 
     52 N         -52.8533  -24.3745   12.6727 N.am      7 UNK        -0.4454 
     53 C         -51.9867  -23.4939   12.1522 C.2       7 UNK         0.5027 
     54 O         -51.7038  -22.4117   12.6705 O.2       7 UNK        -0.5083 
     55 CA        -51.3168  -23.8935   10.8219 C.3       6 UNK         0.0844 
     56 C56       -51.5661  -22.7976    9.7499 C.3       14 UNK        -0.0967 
     57 S57       -50.6910  -23.1038    8.1723 S.3       14 UNK        -0.2604 
     58 C58       -52.0418  -23.6453    7.0850 C.3       14 UNK         0.0134 
     59 N         -49.8858  -24.1911   10.9273 N.am      6 UNK        -0.4116 
     60 C         -49.1455  -24.6911   11.9250 C.2       5 UNK         0.5034 
     61 O         -49.5552  -24.9373   13.0606 O.2       5 UNK        -0.5045 
     62 CA        -47.6793  -25.0204   11.5773 C.3       5 UNK         0.0224 
     63 CB        -47.4392  -26.5357   11.6858 C.3       5 UNK        -0.1978 
     64 N         -47.2756  -24.5824   10.2334 N.am      5 UNK        -0.4737 
     65 C         -46.9676  -23.3230    9.8934 C.2       4 UNK         0.5027 
     66 O         -46.9795  -22.3860   10.6921 O.2       4 UNK        -0.5211 
     67 CA        -46.6235  -23.0737    8.4096 C.3       4 UNK         0.0297 
     68 CB        -45.8282  -21.7686    8.1928 C.3       4 UNK        -0.1993 
     69 N         -45.9559  -24.2091    7.7560 N.am      4 UNK        -0.4486 
     70 C         -44.7670  -24.7445    8.0678 C.2       3 UNK         0.4961 
     71 O         -44.0649  -24.3685    9.0078 O.2       3 UNK        -0.5105 
     72 CA        -44.3018  -25.9132    7.1780 C.3       3 UNK         0.0299 
     73 CB        -42.8287  -26.2916    7.4232 C.3       3 UNK        -0.1972 
     74 N         -45.1333  -27.1046    7.3651 N.am      3 UNK        -0.4305 
     75 C         -46.3472  -27.2950    6.8348 C.2       2 UNK         0.5006 
     76 O         -46.9368  -26.4601    6.1425 O.2       2 UNK        -0.5106 
     77 CA        -47.0266  -28.6279    7.1600 C.3       2 UNK         0.0296 
     78 CB        -47.7616  -28.5570    8.5100 C.3       2 UNK        -0.2002 
     79 N         -47.9671  -28.9534    6.0915 N.am      2 UNK        -0.4032 
     80 C         -48.3186  -30.1945    5.7374 C.2       1 UNK         0.5000 
     81 O         -47.9298  -31.2094    6.3240 O.2       1 UNK        -0.5238 
     82 H82       -47.5221  -32.5923    1.0753 H         1 UNK         0.0889 
     83 H83       -48.2274  -33.5510    2.3790 H         1 UNK         0.0889 
     84 H84       -46.5123  -33.1354    2.4192 H         1 UNK         0.0889 
     85 H85       -49.4237  -32.3098    3.8048 H         1 UNK         0.3028 
     86 H86       -49.2015  -29.4390    3.9231 H         1 UNK         0.0864 
     87 H87       -50.8372  -31.0870    5.9200 H         1 UNK         0.0720 
     88 H88       -51.3302  -31.0290    4.2573 H         1 UNK         0.0720 
     89 H89       -50.5402  -28.6031    7.3672 H         1 UNK         0.0814 
     90 H90       -51.9923  -29.5689    7.4892 H         1 UNK         0.0814 
     91 H91       -50.9171  -26.0716    6.5748 H         1 UNK         0.1469 
     92 H92       -54.3191  -24.2624    8.4580 H         1 UNK         0.1381 
     93 H93       -53.9326  -28.5310    8.3797 H         1 UNK         0.1206 
     94 H94       -56.0466  -27.4891    9.0888 H         1 UNK         0.0813 
     95 H95       -56.2654  -25.7672    8.9265 H         1 UNK         0.0813 
     96 H96       -53.6331  -27.7981   11.9181 H         1 UNK         0.0638 
     97 H97       -54.5723  -28.5645   10.6698 H         1 UNK         0.0638 
     98 H98       -56.5440  -28.6848   12.2130 H         1 UNK         0.0568 
     99 H99       -54.5649  -31.4836   14.2339 H         1 UNK         0.3450 
    100 H100      -54.9111  -29.9135   14.9154 H         1 UNK         0.3450 
    101 H101      -54.6933  -27.4625   14.1752 H         1 UNK         0.2987 
    102 H102      -56.6279  -25.8204   15.6825 H         1 UNK         0.0766 
    103 H103      -58.5230  -27.0505   16.6836 H         1 UNK         0.0798 
    104 H104      -57.3617  -26.6463   17.9350 H         1 UNK         0.0798 
    105 H105      -57.4435  -28.2908   17.3044 H         1 UNK         0.0798 
    106 H106      -54.5971  -26.0613   16.5206 H         1 UNK         0.3198 
    107 H107      -52.8389  -26.7767   17.5054 H         1 UNK         0.0843 
    108 H108      -52.7816  -29.6715   18.4931 H         1 UNK         0.0831 
    109 H109      -53.4569  -28.3162   19.3865 H         1 UNK         0.0831 
    110 H110      -51.7386  -28.3519   19.0279 H         1 UNK         0.0831 
    111 H111      -51.1538  -28.6808   16.7011 H         1 UNK         0.3133 
    112 H112      -50.2872  -29.2379   14.6047 H         1 UNK         0.0566 
    113 H113      -49.8220  -28.4816   12.2828 H         1 UNK         0.0814 
    114 H114      -51.0850  -27.2575   12.3933 H         1 UNK         0.0814 
    115 H115      -51.5018  -28.9662   12.4374 H         1 UNK         0.0814 
    116 H116      -49.6859  -26.3578   14.1816 H         1 UNK         0.3091 
    117 H117      -48.0843  -26.0164   17.3442 H         1 UNK         0.0702 
    118 H118      -46.2970  -26.5783   15.6656 H         1 UNK         0.0785 
    119 H119      -46.4278  -24.8543   15.9740 H         1 UNK         0.0785 
    120 H120      -47.0878  -25.5339   14.4929 H         1 UNK         0.0785 
    121 H121      -49.0775  -24.3066   15.1713 H         1 UNK         0.2998 
    122 H122      -51.6997  -23.0087   17.2801 H         1 UNK         0.0697 
    123 H123      -49.4922  -22.1033   15.3532 H         1 UNK         0.0825 
    124 H124      -49.4914  -21.8137   17.0893 H         1 UNK         0.0825 
    125 H125      -50.7420  -21.1036   16.0831 H         1 UNK         0.0825 
    126 H126      -51.4777  -23.1067   14.3775 H         1 UNK         0.3029 
    127 H127      -54.2774  -25.1766   13.9062 H         1 UNK         0.0897 
    128 H128      -54.2503  -22.1326   13.6238 H         1 UNK         0.0792 
    129 H129      -55.4297  -23.0753   14.5218 H         1 UNK         0.0792 
    130 H130      -55.3236  -23.2482   12.7777 H         1 UNK         0.0792 
    131 H131      -52.9682  -25.2525   12.1846 H         1 UNK         0.3086 
    132 H132      -51.7857  -24.8145   10.4699 H         1 UNK         0.0583 
    133 H133      -52.6350  -22.6818    9.5621 H         1 UNK         0.1020 
    134 H134      -51.2242  -21.8263   10.1142 H         1 UNK         0.1020 
    135 H135      -52.8431  -22.9047    7.0975 H         1 UNK         0.0694 
    136 H136      -51.6742  -23.6767    6.0583 H         1 UNK         0.0694 
    137 H137      -49.3898  -24.0305   10.0635 H         1 UNK         0.2989 
    138 H138      -47.0490  -24.5116   12.3097 H         1 UNK         0.1055 
    139 H139      -48.0964  -27.0911   11.0173 H         1 UNK         0.0806 
    140 H140      -47.6336  -26.9011   12.6937 H         1 UNK         0.0806 
    141 H141      -46.4082  -26.7959   11.4449 H         1 UNK         0.0806 
    142 H142      -47.2279  -25.2913    9.5162 H         1 UNK         0.3061 
    143 H143      -47.5805  -22.9568    7.8993 H         1 UNK         0.0734 
    144 H144      -44.8784  -21.7792    8.7285 H         1 UNK         0.0832 
    145 H145      -45.6167  -21.6026    7.1366 H         1 UNK         0.0832 
    146 H146      -46.3905  -20.9040    8.5478 H         1 UNK         0.0832 
    147 H147      -46.4675  -24.6515    6.9972 H         1 UNK         0.3156 
    148 H148      -44.3865  -25.5852    6.1395 H         1 UNK         0.0589 
    149 H149      -42.4983  -27.0687    6.7337 H         1 UNK         0.0808 
    150 H150      -42.1751  -25.4309    7.2744 H         1 UNK         0.0808 
    151 H151      -42.6654  -26.6527    8.4395 H         1 UNK         0.0808 
    152 H152      -44.7454  -27.8274    7.9548 H         1 UNK         0.3098 
    153 H153      -46.2559  -29.4008    7.2061 H         1 UNK         0.0720 
    154 H154      -48.4924  -27.7474    8.5313 H         1 UNK         0.0791 
    155 H155      -47.0552  -28.3897    9.3232 H         1 UNK         0.0791 
    156 H156      -48.2857  -29.4875    8.7289 H         1 UNK         0.0791 
    157 H157      -48.2789  -28.1566    5.5493 H         1 UNK         0.3028 
@<TRIPOS>BOND
     1    1    2 1    
     2    1   82 1    
     3    1   83 1    
     4    1   84 1    
     5    2    3 2    
     6    2    4 am   BACKBONE|DICT|INTERRES
     7    4    5 1    
     8    4   85 1    
     9    5    6 1    
    10    5   80 1    
    11    5   86 1    
    12    6    7 1    
    13    6   87 1    
    14    6   88 1    
    15    7    8 1    
    16    8    9 1    
    17    8   89 1    
    18    8   90 1    
    19    9   10 ar   
    20    9   14 ar   
    21   10   11 ar   
    22   10   91 1    
    23   11   12 ar   
    24   11   58 1    
    25   12   13 ar   
    26   12   92 1    
    27   13   14 ar   
    28   13   15 1    
    29   14   93 1    
    30   15   16 1    
    31   15   94 1    
    32   15   95 1    
    33   16   17 1    
    34   17   18 1    
    35   17   96 1    
    36   17   97 1    
    37   18   19 1    
    38   18   22 1    
    39   18   98 1    
    40   19   20 am   BACKBONE|DICT|INTERRES
    41   19   21 2    
    42   20   99 1    
    43   20  100 1    
    44   22   23 am   BACKBONE|DICT|INTERRES
    45   22  101 1    
    46   23   24 2    
    47   23   25 1    
    48   25   26 1    
    49   25   27 1    
    50   25  102 1    
    51   26  103 1    
    52   26  104 1    
    53   26  105 1    
    54   27   28 am   BACKBONE|DICT|INTERRES
    55   27  106 1    
    56   28   29 2    
    57   28   30 1    
    58   30   31 1    
    59   30   32 1    
    60   30  107 1    
    61   31  108 1    
    62   31  109 1    
    63   31  110 1    
    64   32   33 am   BACKBONE|DICT|INTERRES
    65   32  111 1    
    66   33   34 2    
    67   33   35 1    
    68   35   36 1    
    69   35   37 1    
    70   35  112 1    
    71   36  113 1    
    72   36  114 1    
    73   36  115 1    
    74   37   38 am   BACKBONE|DICT|INTERRES
    75   37  116 1    
    76   38   39 2    
    77   38   40 1    
    78   40   41 1    
    79   40   42 1    
    80   40  117 1    
    81   41  118 1    
    82   41  119 1    
    83   41  120 1    
    84   42   43 am   BACKBONE|DICT|INTERRES
    85   42  121 1    
    86   43   44 2    
    87   43   45 1    
    88   45   46 1    
    89   45   47 1    
    90   45  122 1    
    91   46  123 1    
    92   46  124 1    
    93   46  125 1    
    94   47   48 am   BACKBONE|DICT|INTERRES
    95   47  126 1    
    96   48   49 2    
    97   48   50 1    
    98   50   51 1    
    99   50   52 1    
   100   50  127 1    
   101   51  128 1    
   102   51  129 1    
   103   51  130 1    
   104   52   53 am   BACKBONE|DICT|INTERRES
   105   52  131 1    
   106   53   54 2    
   107   53   55 1    
   108   55   56 1    
   109   55   59 1    
   110   55  132 1    
   111   56   57 1    
   112   56  133 1    
   113   56  134 1    
   114   57   58 1    
   115   58  135 1    
   116   58  136 1    
   117   59   60 am   BACKBONE|DICT|INTERRES
   118   59  137 1    
   119   60   61 2    
   120   60   62 1    
   121   62   63 1    
   122   62   64 1    
   123   62  138 1    
   124   63  139 1    
   125   63  140 1    
   126   63  141 1    
   127   64   65 am   BACKBONE|DICT|INTERRES
   128   64  142 1    
   129   65   66 2    
   130   65   67 1    
   131   67   68 1    
   132   67   69 1    
   133   67  143 1    
   134   68  144 1    
   135   68  145 1    
   136   68  146 1    
   137   69   70 am   BACKBONE|DICT|INTERRES
   138   69  147 1    
   139   70   71 2    
   140   70   72 1    
   141   72   73 1    
   142   72   74 1    
   143   72  148 1    
   144   73  149 1    
   145   73  150 1    
   146   73  151 1    
   147   74   75 am   BACKBONE|DICT|INTERRES
   148   74  152 1    
   149   75   76 2    
   150   75   77 1    
   151   77   78 1    
   152   77   79 1    
   153   77  153 1    
   154   78  154 1    
   155   78  155 1    
   156   78  156 1    
   157   79   80 am   BACKBONE|DICT|INTERRES
   158   79  157 1    
   159   80   81 2    
@<TRIPOS>SUBSTRUCTURE
     1 UNK         1 GROUP             0       ****    0 ROOT    
