@<TRIPOS>MOLECULE
3R207
157   159    1
SMALL
USER_CHARGES


@<TRIPOS>ATOM
      1 CA        -46.1149  -29.9883   11.4519 C.3       0 UNK        -0.1975 
      2 C         -46.2956  -30.2127    9.9581 C.2       0 UNK         0.4852 
      3 O         -45.5825  -31.0245    9.3669 O.2       0 UNK        -0.5216 
      4 N         -47.2350  -29.4880    9.3463 N.am      1 UNK        -0.4461 
      5 CA        -47.5555  -29.5222    7.9219 C.3       1 UNK         0.0864 
      6 C6        -48.3930  -30.7696    7.5181 C.3       14 UNK        -0.0898 
      7 S7        -49.9088  -31.0301    8.5142 S.3       14 UNK        -0.2598 
      8 C8        -51.2348  -30.6011    7.3419 C.3       14 UNK         0.0286 
      9 C9        -52.2597  -29.6819    7.9886 C.ar      14 UNK        -0.0844 
     10 C10       -52.1171  -28.2973    7.8797 C.ar      14 UNK        -0.0881 
     11 C11       -53.0486  -27.4300    8.4597 C.ar      14 UNK        -0.0643 
     12 C12       -54.1373  -27.9673    9.1537 C.ar      14 UNK        -0.0930 
     13 C13       -54.3034  -29.3532    9.2548 C.ar      14 UNK        -0.0827 
     14 C14       -53.3583  -30.2064    8.6755 C.ar      14 UNK        -0.1249 
     15 C15       -55.5110  -29.9246    9.9808 C.3       14 UNK         0.0141 
     16 S16       -57.0146  -29.7845    8.9630 S.3       14 UNK        -0.2313 
     17 C17       -58.2729  -30.5235   10.0603 C.3       14 UNK        -0.0915 
     18 CA        -59.2687  -29.4759   10.6477 C.3       13 UNK         0.0968 
     19 C         -60.4633  -30.1398   11.4007 C.2       13 UNK         0.5732 
     20 N         -61.0012  -29.5337   12.4526 N.am      13 UNK        -0.7310 
     21 O         -60.9376  -31.2036   11.0079 O.2       13 UNK        -0.5035 
     22 N         -58.5979  -28.3887   11.3875 N.am      13 UNK        -0.4233 
     23 C         -57.8519  -28.5412   12.4876 C.2       13 UNK         0.4989 
     24 O         -57.6750  -29.6155   13.0684 O.2       13 UNK        -0.4996 
     25 CA        -57.1550  -27.2878   13.0222 C.3       12 UNK         0.0216 
     26 CB        -57.9628  -26.6334   14.1566 C.3       12 UNK        -0.1964 
     27 N         -55.8472  -27.7104   13.5080 N.am      12 UNK        -0.4276 
     28 C         -54.7419  -26.9635   13.5408 C.2       12 UNK         0.5020 
     29 O         -54.7047  -25.7667   13.2437 O.2       12 UNK        -0.5489 
     30 CA        -53.4496  -27.7044   13.9114 C.3       11 UNK         0.0294 
     31 CB        -52.7006  -28.1436   12.6414 C.3       11 UNK        -0.2019 
     32 N         -52.5660  -26.8661   14.7150 N.am      11 UNK        -0.4493 
     33 C         -52.7059  -26.6300   16.0252 C.2       11 UNK         0.4932 
     34 O         -53.6270  -27.0802   16.7097 O.2       11 UNK        -0.5029 
     35 CA        -51.5934  -25.7787   16.6712 C.3       10 UNK         0.0280 
     36 CB        -51.6674  -25.7347   18.2120 C.3       10 UNK        -0.1976 
     37 N         -50.2628  -26.1966   16.2110 N.am      10 UNK        -0.4242 
     38 C         -49.6871  -27.4008   16.3559 C.2       10 UNK         0.5072 
     39 O         -50.1432  -28.3060   17.0560 O.2       10 UNK        -0.5224 
     40 CA        -48.4021  -27.6684   15.5500 C.3       9 UNK         0.0343 
     41 CB        -48.7188  -28.5669   14.3434 C.3       9 UNK        -0.2003 
     42 N         -47.7423  -26.4501   15.0724 N.am      9 UNK        -0.4272 
     43 C         -47.0022  -25.6409   15.8445 C.2       9 UNK         0.4988 
     44 O         -46.7460  -25.8671   17.0275 O.2       9 UNK        -0.5108 
     45 CA        -46.4789  -24.3473   15.1946 C.3       8 UNK         0.0248 
     46 CB        -45.2150  -24.6334   14.3691 C.3       8 UNK        -0.2001 
     47 N         -47.4850  -23.6780   14.3622 N.am      8 UNK        -0.4140 
     48 C         -48.6407  -23.1798   14.8294 C.2       8 UNK         0.5028 
     49 O         -48.9684  -23.1980   16.0154 O.2       8 UNK        -0.5428 
     50 CA        -49.6201  -22.5993   13.7999 C.3       7 UNK         0.0264 
     51 CB        -49.2717  -21.1389   13.4708 C.3       7 UNK        -0.1988 
     52 N         -49.6666  -23.3863   12.5685 N.am      7 UNK        -0.4454 
     53 C         -50.1774  -24.6235   12.4695 C.2       7 UNK         0.5027 
     54 O         -50.6694  -25.2432   13.4114 O.2       7 UNK        -0.5083 
     55 CA        -50.0960  -25.2795   11.0789 C.3       6 UNK         0.0844 
     56 C56       -51.2112  -24.6745   10.1831 C.3       14 UNK        -0.0967 
     57 S57       -51.2340  -25.2830    8.4668 S.3       14 UNK        -0.2604 
     58 C58       -52.9321  -25.9214    8.2657 C.3       14 UNK         0.0134 
     59 N         -48.7363  -25.1437   10.5364 N.am      6 UNK        -0.4116 
     60 C         -47.6404  -25.6835   11.1039 C.2       5 UNK         0.5034 
     61 O         -47.6777  -26.4271   12.0848 O.2       5 UNK        -0.5045 
     62 CA        -46.2549  -25.2823   10.5603 C.3       5 UNK         0.0224 
     63 CB        -45.6327  -26.3813    9.6912 C.3       5 UNK        -0.1978 
     64 N         -46.2545  -24.0164    9.8332 N.am      5 UNK        -0.4737 
     65 C         -46.4690  -22.8248   10.4070 C.2       4 UNK         0.5027 
     66 O         -46.6429  -22.6776   11.6179 O.2       4 UNK        -0.5211 
     67 CA        -46.5497  -21.6039    9.4726 C.3       4 UNK         0.0297 
     68 CB        -45.2092  -20.8532    9.4586 C.3       4 UNK        -0.1993 
     69 N         -46.9408  -21.9305    8.0942 N.am      4 UNK        -0.4486 
     70 C         -48.0970  -22.5113    7.7418 C.2       3 UNK         0.4961 
     71 O         -48.9606  -22.8335    8.5578 O.2       3 UNK        -0.5105 
     72 CA        -48.3466  -22.7742    6.2445 C.3       3 UNK         0.0299 
     73 CB        -47.1670  -22.3941    5.3187 C.3       3 UNK        -0.1972 
     74 N         -48.7876  -24.1523    5.9958 N.am      3 UNK        -0.4305 
     75 C         -48.0934  -25.2833    6.1949 C.2       2 UNK         0.5006 
     76 O         -46.9393  -25.3208    6.6284 O.2       2 UNK        -0.5106 
     77 CA        -48.8066  -26.5800    5.7584 C.3       2 UNK         0.0296 
     78 CB        -48.8377  -26.6849    4.2233 C.3       2 UNK        -0.2002 
     79 N         -48.1965  -27.8030    6.2910 N.am      2 UNK        -0.4032 
     80 C         -48.2472  -28.1938    7.5710 C.2       1 UNK         0.5000 
     81 O         -48.8128  -27.5593    8.4624 O.2       1 UNK        -0.5238 
     82 H82       -46.6398  -29.0946   11.7883 H         1 UNK         0.0889 
     83 H83       -45.0588  -29.8664   11.6910 H         1 UNK         0.0889 
     84 H84       -46.4970  -30.8423   12.0103 H         1 UNK         0.0889 
     85 H85       -47.7953  -28.8134    9.8550 H         1 UNK         0.3028 
     86 H86       -46.6131  -29.5436    7.3701 H         1 UNK         0.0864 
     87 H87       -48.6369  -30.7433    6.4552 H         1 UNK         0.0720 
     88 H88       -47.7768  -31.6614    7.6411 H         1 UNK         0.0720 
     89 H89       -51.7147  -31.5172    6.9946 H         1 UNK         0.0814 
     90 H90       -50.8247  -30.1185    6.4539 H         1 UNK         0.0814 
     91 H91       -51.2769  -27.8926    7.3356 H         1 UNK         0.1469 
     92 H92       -54.8755  -27.3092    9.5916 H         1 UNK         0.1381 
     93 H93       -53.4793  -31.2784    8.7526 H         1 UNK         0.1206 
     94 H94       -55.6469  -29.3940   10.9219 H         1 UNK         0.0813 
     95 H95       -55.3445  -30.9720   10.2376 H         1 UNK         0.0813 
     96 H96       -57.7866  -31.0894   10.8561 H         1 UNK         0.0638 
     97 H97       -58.8106  -31.2601    9.4611 H         1 UNK         0.0638 
     98 H98       -59.7407  -28.9838    9.7967 H         1 UNK         0.0568 
     99 H99       -61.7800  -29.9652   12.9248 H         1 UNK         0.3450 
    100 H100      -60.6336  -28.6559   12.7813 H         1 UNK         0.3450 
    101 H101      -58.7029  -27.4667   10.9895 H         1 UNK         0.2987 
    102 H102      -57.0249  -26.5753   12.2044 H         1 UNK         0.0766 
    103 H103      -57.4561  -25.7491   14.5436 H         1 UNK         0.0798 
    104 H104      -58.1175  -27.3208   14.9895 H         1 UNK         0.0798 
    105 H105      -58.9454  -26.3161   13.8053 H         1 UNK         0.0798 
    106 H106      -55.7997  -28.6971   13.7349 H         1 UNK         0.3198 
    107 H107      -53.6986  -28.5952   14.4926 H         1 UNK         0.0843 
    108 H108      -53.3024  -28.8357   12.0518 H         1 UNK         0.0831 
    109 H109      -51.7684  -28.6540   12.8831 H         1 UNK         0.0831 
    110 H110      -52.4621  -27.2947   11.9995 H         1 UNK         0.0831 
    111 H111      -51.8276  -26.3708   14.2170 H         1 UNK         0.3133 
    112 H112      -51.7338  -24.7607   16.3046 H         1 UNK         0.0566 
    113 H113      -50.8703  -25.1186   18.6281 H         1 UNK         0.0814 
    114 H114      -52.6145  -25.3073   18.5433 H         1 UNK         0.0814 
    115 H115      -51.5892  -26.7288   18.6529 H         1 UNK         0.0814 
    116 H116      -49.8059  -25.5433   15.5883 H         1 UNK         0.3091 
    117 H117      -47.7121  -28.2066   16.2032 H         1 UNK         0.0702 
    118 H118      -47.8083  -28.8526   13.8191 H         1 UNK         0.0785 
    119 H119      -49.3749  -28.0661   13.6300 H         1 UNK         0.0785 
    120 H120      -49.2147  -29.4872   14.6551 H         1 UNK         0.0785 
    121 H121      -47.8564  -26.2301   14.0872 H         1 UNK         0.2998 
    122 H122      -46.2104  -23.6547   15.9952 H         1 UNK         0.0697 
    123 H123      -45.3801  -25.4299   13.6445 H         1 UNK         0.0825 
    124 H124      -44.3986  -24.9562   15.0164 H         1 UNK         0.0825 
    125 H125      -44.8737  -23.7478   13.8323 H         1 UNK         0.0825 
    126 H126      -47.2695  -23.5551   13.3777 H         1 UNK         0.3029 
    127 H127      -50.6170  -22.6185   14.2464 H         1 UNK         0.0897 
    128 H128      -50.0024  -20.6999   12.7913 H         1 UNK         0.0792 
    129 H129      -49.2643  -20.5285   14.3749 H         1 UNK         0.0792 
    130 H130      -48.2875  -21.0480   13.0099 H         1 UNK         0.0792 
    131 H131      -49.2402  -22.9734   11.7505 H         1 UNK         0.3086 
    132 H132      -50.2931  -26.3474   11.1945 H         1 UNK         0.0583 
    133 H133      -52.1855  -24.8614   10.6393 H         1 UNK         0.1020 
    134 H134      -51.1144  -23.5884   10.1262 H         1 UNK         0.1020 
    135 H135      -53.6142  -25.3849    8.9265 H         1 UNK         0.0694 
    136 H136      -53.2575  -25.6923    7.2503 H         1 UNK         0.0694 
    137 H137      -48.6389  -24.5435    9.7250 H         1 UNK         0.2989 
    138 H138      -45.6024  -25.1516   11.4237 H         1 UNK         0.1055 
    139 H139      -45.5420  -27.3107   10.2515 H         1 UNK         0.0806 
    140 H140      -44.6306  -26.1076    9.3610 H         1 UNK         0.0806 
    141 H141      -46.2316  -26.5827    8.8059 H         1 UNK         0.0806 
    142 H142      -46.1604  -24.0636    8.8271 H         1 UNK         0.3061 
    143 H143      -47.3117  -20.9373    9.8817 H         1 UNK         0.0734 
    144 H144      -44.9071  -20.5772   10.4701 H         1 UNK         0.0832 
    145 H145      -44.4092  -21.4620    9.0353 H         1 UNK         0.0832 
    146 H146      -45.2745  -19.9314    8.8804 H         1 UNK         0.0832 
    147 H147      -46.2804  -21.6998    7.3658 H         1 UNK         0.3156 
    148 H148      -49.1894  -22.1377    5.9714 H         1 UNK         0.0589 
    149 H149      -46.2611  -22.9568    5.5476 H         1 UNK         0.0808 
    150 H150      -47.4148  -22.5870    4.2748 H         1 UNK         0.0808 
    151 H151      -46.9296  -21.3321    5.3930 H         1 UNK         0.0808 
    152 H152      -49.7426  -24.2404    5.6778 H         1 UNK         0.3098 
    153 H153      -49.8347  -26.5325    6.1196 H         1 UNK         0.0720 
    154 H154      -49.3355  -25.8241    3.7752 H         1 UNK         0.0791 
    155 H155      -49.3810  -27.5720    3.8968 H         1 UNK         0.0791 
    156 H156      -47.8321  -26.7327    3.8030 H         1 UNK         0.0791 
    157 H157      -47.6733  -28.3609    5.6323 H         1 UNK         0.3028 
@<TRIPOS>BOND
     1    1    2 1    
     2    1   82 1    
     3    1   83 1    
     4    1   84 1    
     5    2    3 2    
     6    2    4 am   BACKBONE|DICT|INTERRES
     7    4    5 1    
     8    4   85 1    
     9    5    6 1    
    10    5   80 1    
    11    5   86 1    
    12    6    7 1    
    13    6   87 1    
    14    6   88 1    
    15    7    8 1    
    16    8    9 1    
    17    8   89 1    
    18    8   90 1    
    19    9   10 ar   
    20    9   14 ar   
    21   10   11 ar   
    22   10   91 1    
    23   11   12 ar   
    24   11   58 1    
    25   12   13 ar   
    26   12   92 1    
    27   13   14 ar   
    28   13   15 1    
    29   14   93 1    
    30   15   16 1    
    31   15   94 1    
    32   15   95 1    
    33   16   17 1    
    34   17   18 1    
    35   17   96 1    
    36   17   97 1    
    37   18   19 1    
    38   18   22 1    
    39   18   98 1    
    40   19   20 am   BACKBONE|DICT|INTERRES
    41   19   21 2    
    42   20   99 1    
    43   20  100 1    
    44   22   23 am   BACKBONE|DICT|INTERRES
    45   22  101 1    
    46   23   24 2    
    47   23   25 1    
    48   25   26 1    
    49   25   27 1    
    50   25  102 1    
    51   26  103 1    
    52   26  104 1    
    53   26  105 1    
    54   27   28 am   BACKBONE|DICT|INTERRES
    55   27  106 1    
    56   28   29 2    
    57   28   30 1    
    58   30   31 1    
    59   30   32 1    
    60   30  107 1    
    61   31  108 1    
    62   31  109 1    
    63   31  110 1    
    64   32   33 am   BACKBONE|DICT|INTERRES
    65   32  111 1    
    66   33   34 2    
    67   33   35 1    
    68   35   36 1    
    69   35   37 1    
    70   35  112 1    
    71   36  113 1    
    72   36  114 1    
    73   36  115 1    
    74   37   38 am   BACKBONE|DICT|INTERRES
    75   37  116 1    
    76   38   39 2    
    77   38   40 1    
    78   40   41 1    
    79   40   42 1    
    80   40  117 1    
    81   41  118 1    
    82   41  119 1    
    83   41  120 1    
    84   42   43 am   BACKBONE|DICT|INTERRES
    85   42  121 1    
    86   43   44 2    
    87   43   45 1    
    88   45   46 1    
    89   45   47 1    
    90   45  122 1    
    91   46  123 1    
    92   46  124 1    
    93   46  125 1    
    94   47   48 am   BACKBONE|DICT|INTERRES
    95   47  126 1    
    96   48   49 2    
    97   48   50 1    
    98   50   51 1    
    99   50   52 1    
   100   50  127 1    
   101   51  128 1    
   102   51  129 1    
   103   51  130 1    
   104   52   53 am   BACKBONE|DICT|INTERRES
   105   52  131 1    
   106   53   54 2    
   107   53   55 1    
   108   55   56 1    
   109   55   59 1    
   110   55  132 1    
   111   56   57 1    
   112   56  133 1    
   113   56  134 1    
   114   57   58 1    
   115   58  135 1    
   116   58  136 1    
   117   59   60 am   BACKBONE|DICT|INTERRES
   118   59  137 1    
   119   60   61 2    
   120   60   62 1    
   121   62   63 1    
   122   62   64 1    
   123   62  138 1    
   124   63  139 1    
   125   63  140 1    
   126   63  141 1    
   127   64   65 am   BACKBONE|DICT|INTERRES
   128   64  142 1    
   129   65   66 2    
   130   65   67 1    
   131   67   68 1    
   132   67   69 1    
   133   67  143 1    
   134   68  144 1    
   135   68  145 1    
   136   68  146 1    
   137   69   70 am   BACKBONE|DICT|INTERRES
   138   69  147 1    
   139   70   71 2    
   140   70   72 1    
   141   72   73 1    
   142   72   74 1    
   143   72  148 1    
   144   73  149 1    
   145   73  150 1    
   146   73  151 1    
   147   74   75 am   BACKBONE|DICT|INTERRES
   148   74  152 1    
   149   75   76 2    
   150   75   77 1    
   151   77   78 1    
   152   77   79 1    
   153   77  153 1    
   154   78  154 1    
   155   78  155 1    
   156   78  156 1    
   157   79   80 am   BACKBONE|DICT|INTERRES
   158   79  157 1    
   159   80   81 2    
@<TRIPOS>SUBSTRUCTURE
     1 UNK         1 GROUP             0       ****    0 ROOT    
