@<TRIPOS>MOLECULE
3R207
157   159    1
SMALL
USER_CHARGES


@<TRIPOS>ATOM
      1 CA        -44.5907  -29.7159    2.7130 C.3       0 UNK        -0.1975 
      2 C         -45.4198  -28.9118    3.7030 C.2       0 UNK         0.4852 
      3 O         -44.8715  -28.0643    4.4097 O.2       0 UNK        -0.5216 
      4 N         -46.7370  -29.1625    3.7491 N.am      1 UNK        -0.4461 
      5 CA        -47.7491  -28.5369    4.6138 C.3       1 UNK         0.0864 
      6 C6        -47.4721  -28.7464    6.1311 C.3       14 UNK        -0.0898 
      7 S7        -48.7687  -28.1070    7.2473 S.3       14 UNK        -0.2598 
      8 C8        -49.9826  -29.4657    7.2040 C.3       14 UNK         0.0286 
      9 C9        -51.0941  -29.2358    8.2182 C.ar      14 UNK        -0.0844 
     10 C10       -51.9857  -28.1743    8.0483 C.ar      14 UNK        -0.0881 
     11 C11       -52.9682  -27.9149    9.0068 C.ar      14 UNK        -0.0643 
     12 C12       -53.0707  -28.7422   10.1271 C.ar      14 UNK        -0.0930 
     13 C13       -52.2003  -29.8242   10.3066 C.ar      14 UNK        -0.0827 
     14 C14       -51.2201  -30.0652    9.3376 C.ar      14 UNK        -0.1249 
     15 C15       -52.2535  -30.7446   11.5292 C.3       14 UNK         0.0141 
     16 S16       -53.2651  -30.1627   12.9380 S.3       14 UNK        -0.2313 
     17 C17       -54.9337  -30.8046   12.5495 C.3       14 UNK        -0.0915 
     18 CA        -56.0224  -29.6986   12.3974 C.3       13 UNK         0.0968 
     19 C         -57.4267  -30.2757   12.0406 C.2       13 UNK         0.5732 
     20 N         -58.5205  -29.6223   12.4150 N.am      13 UNK        -0.7310 
     21 O         -57.5331  -31.3105   11.3860 O.2       13 UNK        -0.5035 
     22 N         -56.0179  -28.7195   13.5006 N.am      13 UNK        -0.4233 
     23 C         -56.3248  -28.9547   14.7837 C.2       13 UNK         0.4989 
     24 O         -56.6797  -30.0570   15.2046 O.2       13 UNK        -0.4996 
     25 CA        -56.2233  -27.7731   15.7758 C.3       12 UNK         0.0216 
     26 CB        -55.6232  -28.2208   17.1204 C.3       12 UNK        -0.1964 
     27 N         -55.4642  -26.6177   15.2747 N.am      12 UNK        -0.4276 
     28 C         -55.9339  -25.6974   14.4199 C.2       12 UNK         0.5020 
     29 O         -57.0690  -25.7479   13.9442 O.2       12 UNK        -0.5489 
     30 CA        -54.9768  -24.5738   13.9709 C.3       11 UNK         0.0294 
     31 CB        -55.7140  -23.2544   13.6586 C.3       11 UNK        -0.2019 
     32 N         -53.8376  -24.3436   14.8668 N.am      11 UNK        -0.4493 
     33 C         -53.8546  -23.8877   16.1281 C.2       11 UNK         0.4932 
     34 O         -54.8819  -23.5932   16.7410 O.2       11 UNK        -0.5029 
     35 CA        -52.4767  -23.7568   16.8116 C.3       10 UNK         0.0280 
     36 CB        -52.5744  -23.4825   18.3274 C.3       10 UNK        -0.1976 
     37 N         -51.6006  -24.9048   16.5430 N.am      10 UNK        -0.4242 
     38 C         -51.8493  -26.1926   16.8303 C.2       10 UNK         0.5072 
     39 O         -52.8553  -26.5698   17.4301 O.2       10 UNK        -0.5224 
     40 CA        -50.8528  -27.2587   16.3373 C.3       9 UNK         0.0343 
     41 CB        -51.5465  -28.2078   15.3467 C.3       9 UNK        -0.2003 
     42 N         -49.6574  -26.7053   15.6979 N.am      9 UNK        -0.4272 
     43 C         -48.5981  -26.2088   16.3511 C.2       9 UNK         0.4988 
     44 O         -48.4887  -26.2071   17.5775 O.2       9 UNK        -0.5108 
     45 CA        -47.4858  -25.5767   15.4935 C.3       8 UNK         0.0248 
     46 CB        -46.5158  -26.6559   14.9889 C.3       8 UNK        -0.2001 
     47 N         -47.9953  -24.7943   14.3605 N.am      8 UNK        -0.4140 
     48 C         -48.7829  -23.7137   14.4802 C.2       8 UNK         0.5028 
     49 O         -49.1543  -23.2510   15.5589 O.2       8 UNK        -0.5428 
     50 CA        -49.2927  -23.0708   13.1816 C.3       7 UNK         0.0264 
     51 CB        -48.2018  -22.2117   12.5228 C.3       7 UNK        -0.1988 
     52 N         -49.7880  -24.0576   12.2233 N.am      7 UNK        -0.4454 
     53 C         -50.8232  -24.8839   12.4340 C.2       7 UNK         0.5027 
     54 O         -51.5074  -24.8844   13.4573 O.2       7 UNK        -0.5083 
     55 CA        -51.1070  -25.9131   11.3254 C.3       6 UNK         0.0844 
     56 C56       -51.8040  -25.2476   10.1048 C.3       14 UNK        -0.0967 
     57 S57       -53.6151  -25.4645   10.1638 S.3       14 UNK        -0.2604 
     58 C58       -53.8873  -26.7097    8.8576 C.3       14 UNK         0.0134 
     59 N         -49.8881  -26.6405   10.9582 N.am      6 UNK        -0.4116 
     60 C         -49.1754  -27.4162   11.7902 C.2       5 UNK         0.5034 
     61 O         -49.5042  -27.6691   12.9474 O.2       5 UNK        -0.5045 
     62 CA        -47.8270  -27.9448   11.2748 C.3       5 UNK         0.0224 
     63 CB        -47.9571  -29.3618   10.7002 C.3       5 UNK        -0.1978 
     64 N         -47.2152  -27.0484   10.2907 N.am      5 UNK        -0.4737 
     65 C         -46.6880  -25.8591   10.6133 C.2       4 UNK         0.5027 
     66 O         -46.6352  -25.4247   11.7649 O.2       4 UNK        -0.5211 
     67 CA        -46.1855  -24.9936    9.4488 C.3       4 UNK         0.0297 
     68 CB        -44.8674  -25.5458    8.8825 C.3       4 UNK        -0.1993 
     69 N         -47.1639  -24.8543    8.3663 N.am      4 UNK        -0.4486 
     70 C         -48.3757  -24.2932    8.4819 C.2       3 UNK         0.4961 
     71 O         -48.8394  -23.9120    9.5564 O.2       3 UNK        -0.5105 
     72 CA        -49.2420  -24.1494    7.2121 C.3       3 UNK         0.0299 
     73 CB        -49.8304  -22.7296    7.0880 C.3       3 UNK        -0.1972 
     74 N         -48.6017  -24.5622    5.9554 N.am      3 UNK        -0.4305 
     75 C         -47.5268  -24.0458    5.3405 C.2       2 UNK         0.5006 
     76 O         -46.8901  -23.0838    5.7712 O.2       2 UNK        -0.5106 
     77 CA        -47.0632  -24.7659    4.0539 C.3       2 UNK         0.0296 
     78 CB        -45.6984  -24.2609    3.5493 C.3       2 UNK        -0.2002 
     79 N         -46.9899  -26.2204    4.2322 N.am      2 UNK        -0.4032 
     80 C         -48.0302  -27.0626    4.2521 C.2       1 UNK         0.5000 
     81 O         -49.1897  -26.7009    4.0426 O.2       1 UNK        -0.5238 
     82 H82       -44.1081  -29.0484    1.9996 H         1 UNK         0.0889 
     83 H83       -45.1977  -30.4283    2.1546 H         1 UNK         0.0889 
     84 H84       -43.8146  -30.2710    3.2393 H         1 UNK         0.0889 
     85 H85       -47.1092  -29.8532    3.1112 H         1 UNK         0.3028 
     86 H86       -48.6715  -29.0741    4.3875 H         1 UNK         0.0864 
     87 H87       -47.3277  -29.8078    6.3380 H         1 UNK         0.0720 
     88 H88       -46.5380  -28.2629    6.4197 H         1 UNK         0.0720 
     89 H89       -50.4122  -29.5406    6.2042 H         1 UNK         0.0814 
     90 H90       -49.4757  -30.4120    7.3990 H         1 UNK         0.0814 
     91 H91       -51.8869  -27.5291    7.1859 H         1 UNK         0.1469 
     92 H92       -53.8108  -28.5024   10.8712 H         1 UNK         0.1381 
     93 H93       -50.5343  -30.8909    9.4703 H         1 UNK         0.1206 
     94 H94       -51.2360  -30.8700   11.9025 H         1 UNK         0.0813 
     95 H95       -52.5864  -31.7366   11.2216 H         1 UNK         0.0813 
     96 H96       -55.2126  -31.4995   13.3430 H         1 UNK         0.0638 
     97 H97       -54.8773  -31.3996   11.6367 H         1 UNK         0.0638 
     98 H98       -55.7699  -29.1189   11.5123 H         1 UNK         0.0568 
     99 H99       -58.4499  -28.7638   12.9377 H         1 UNK         0.3450 
    100 H100      -59.4249  -29.9945   12.1722 H         1 UNK         0.3450 
    101 H101      -55.7825  -27.7736   13.2428 H         1 UNK         0.2987 
    102 H102      -57.2468  -27.4450   15.9689 H         1 UNK         0.0766 
    103 H103      -55.5590  -27.3904   17.8241 H         1 UNK         0.0798 
    104 H104      -54.6214  -28.6327   16.9956 H         1 UNK         0.0798 
    105 H105      -56.2355  -28.9915   17.5903 H         1 UNK         0.0798 
    106 H106      -54.5274  -26.5021   15.6392 H         1 UNK         0.3198 
    107 H107      -54.5386  -24.9250   13.0358 H         1 UNK         0.0843 
    108 H108      -55.0220  -22.4847   13.3170 H         1 UNK         0.0831 
    109 H109      -56.2435  -22.8695   14.5305 H         1 UNK         0.0831 
    110 H110      -56.4521  -23.3958   12.8682 H         1 UNK         0.0831 
    111 H111      -52.9264  -24.5554   14.4549 H         1 UNK         0.3133 
    112 H112      -51.9912  -22.8946   16.3522 H         1 UNK         0.0566 
    113 H113      -51.5863  -23.3739   18.7743 H         1 UNK         0.0814 
    114 H114      -53.1211  -22.5592   18.5225 H         1 UNK         0.0814 
    115 H115      -53.0944  -24.2844   18.8524 H         1 UNK         0.0814 
    116 H116      -50.7519  -24.6876   16.0332 H         1 UNK         0.3091 
    117 H117      -50.5459  -27.8421   17.2077 H         1 UNK         0.0702 
    118 H118      -52.4131  -28.6917   15.7985 H         1 UNK         0.0785 
    119 H119      -50.8738  -28.9997   15.0172 H         1 UNK         0.0785 
    120 H120      -51.8944  -27.6772   14.4590 H         1 UNK         0.0785 
    121 H121      -49.6413  -26.7333   14.6820 H         1 UNK         0.2998 
    122 H122      -46.9260  -24.8909   16.1327 H         1 UNK         0.0697 
    123 H123      -47.0267  -27.4015   14.3805 H         1 UNK         0.0825 
    124 H124      -46.0522  -27.1823   15.8242 H         1 UNK         0.0825 
    125 H125      -45.7128  -26.2244   14.3907 H         1 UNK         0.0825 
    126 H126      -47.7005  -25.0817   13.4311 H         1 UNK         0.3029 
    127 H127      -50.1288  -22.4185   13.4427 H         1 UNK         0.0897 
    128 H128      -48.5857  -21.6905   11.6455 H         1 UNK         0.0792 
    129 H129      -47.8297  -21.4545   13.2142 H         1 UNK         0.0792 
    130 H130      -47.3491  -22.8124   12.2044 H         1 UNK         0.0792 
    131 H131      -49.3101  -24.0984   11.3239 H         1 UNK         0.3086 
    132 H132      -51.7749  -26.6646   11.7527 H         1 UNK         0.0583 
    133 H133      -51.5860  -24.1800   10.0288 H         1 UNK         0.1020 
    134 H134      -51.4313  -25.6656    9.1707 H         1 UNK         0.1020 
    135 H135      -54.9259  -27.0414    8.8933 H         1 UNK         0.0694 
    136 H136      -53.7489  -26.2347    7.8851 H         1 UNK         0.0694 
    137 H137      -49.5176  -26.4737   10.0357 H         1 UNK         0.2989 
    138 H138      -47.1568  -28.0049   12.1342 H         1 UNK         0.1055 
    139 H139      -48.4106  -30.0372   11.4272 H         1 UNK         0.0806 
    140 H140      -46.9831  -29.7742   10.4368 H         1 UNK         0.0806 
    141 H141      -48.5789  -29.3803    9.8095 H         1 UNK         0.0806 
    142 H142      -47.2457  -27.3296    9.3202 H         1 UNK         0.3061 
    143 H143      -45.9927  -23.9943    9.8451 H         1 UNK         0.0734 
    144 H144      -44.4476  -24.8759    8.1317 H         1 UNK         0.0832 
    145 H145      -44.1203  -25.6545    9.6701 H         1 UNK         0.0832 
    146 H146      -44.9994  -26.5254    8.4211 H         1 UNK         0.0832 
    147 H147      -46.8652  -25.1308    7.4435 H         1 UNK         0.3156 
    148 H148      -50.0768  -24.8378    7.3467 H         1 UNK         0.0589 
    149 H149      -49.0491  -21.9745    6.9967 H         1 UNK         0.0808 
    150 H150      -50.4832  -22.6449    6.2193 H         1 UNK         0.0808 
    151 H151      -50.4269  -22.4730    7.9645 H         1 UNK         0.0808 
    152 H152      -49.0365  -25.3551    5.4907 H         1 UNK         0.3098 
    153 H153      -47.8043  -24.5462    3.2825 H         1 UNK         0.0720 
    154 H154      -45.4119  -24.7547    2.6206 H         1 UNK         0.0791 
    155 H155      -44.9082  -24.4380    4.2802 H         1 UNK         0.0791 
    156 H156      -45.7254  -23.1890    3.3485 H         1 UNK         0.0791 
    157 H157      -46.0718  -26.6242    4.4065 H         1 UNK         0.3028 
@<TRIPOS>BOND
     1    1    2 1    
     2    1   82 1    
     3    1   83 1    
     4    1   84 1    
     5    2    3 2    
     6    2    4 am   BACKBONE|DICT|INTERRES
     7    4    5 1    
     8    4   85 1    
     9    5    6 1    
    10    5   80 1    
    11    5   86 1    
    12    6    7 1    
    13    6   87 1    
    14    6   88 1    
    15    7    8 1    
    16    8    9 1    
    17    8   89 1    
    18    8   90 1    
    19    9   10 ar   
    20    9   14 ar   
    21   10   11 ar   
    22   10   91 1    
    23   11   12 ar   
    24   11   58 1    
    25   12   13 ar   
    26   12   92 1    
    27   13   14 ar   
    28   13   15 1    
    29   14   93 1    
    30   15   16 1    
    31   15   94 1    
    32   15   95 1    
    33   16   17 1    
    34   17   18 1    
    35   17   96 1    
    36   17   97 1    
    37   18   19 1    
    38   18   22 1    
    39   18   98 1    
    40   19   20 am   BACKBONE|DICT|INTERRES
    41   19   21 2    
    42   20   99 1    
    43   20  100 1    
    44   22   23 am   BACKBONE|DICT|INTERRES
    45   22  101 1    
    46   23   24 2    
    47   23   25 1    
    48   25   26 1    
    49   25   27 1    
    50   25  102 1    
    51   26  103 1    
    52   26  104 1    
    53   26  105 1    
    54   27   28 am   BACKBONE|DICT|INTERRES
    55   27  106 1    
    56   28   29 2    
    57   28   30 1    
    58   30   31 1    
    59   30   32 1    
    60   30  107 1    
    61   31  108 1    
    62   31  109 1    
    63   31  110 1    
    64   32   33 am   BACKBONE|DICT|INTERRES
    65   32  111 1    
    66   33   34 2    
    67   33   35 1    
    68   35   36 1    
    69   35   37 1    
    70   35  112 1    
    71   36  113 1    
    72   36  114 1    
    73   36  115 1    
    74   37   38 am   BACKBONE|DICT|INTERRES
    75   37  116 1    
    76   38   39 2    
    77   38   40 1    
    78   40   41 1    
    79   40   42 1    
    80   40  117 1    
    81   41  118 1    
    82   41  119 1    
    83   41  120 1    
    84   42   43 am   BACKBONE|DICT|INTERRES
    85   42  121 1    
    86   43   44 2    
    87   43   45 1    
    88   45   46 1    
    89   45   47 1    
    90   45  122 1    
    91   46  123 1    
    92   46  124 1    
    93   46  125 1    
    94   47   48 am   BACKBONE|DICT|INTERRES
    95   47  126 1    
    96   48   49 2    
    97   48   50 1    
    98   50   51 1    
    99   50   52 1    
   100   50  127 1    
   101   51  128 1    
   102   51  129 1    
   103   51  130 1    
   104   52   53 am   BACKBONE|DICT|INTERRES
   105   52  131 1    
   106   53   54 2    
   107   53   55 1    
   108   55   56 1    
   109   55   59 1    
   110   55  132 1    
   111   56   57 1    
   112   56  133 1    
   113   56  134 1    
   114   57   58 1    
   115   58  135 1    
   116   58  136 1    
   117   59   60 am   BACKBONE|DICT|INTERRES
   118   59  137 1    
   119   60   61 2    
   120   60   62 1    
   121   62   63 1    
   122   62   64 1    
   123   62  138 1    
   124   63  139 1    
   125   63  140 1    
   126   63  141 1    
   127   64   65 am   BACKBONE|DICT|INTERRES
   128   64  142 1    
   129   65   66 2    
   130   65   67 1    
   131   67   68 1    
   132   67   69 1    
   133   67  143 1    
   134   68  144 1    
   135   68  145 1    
   136   68  146 1    
   137   69   70 am   BACKBONE|DICT|INTERRES
   138   69  147 1    
   139   70   71 2    
   140   70   72 1    
   141   72   73 1    
   142   72   74 1    
   143   72  148 1    
   144   73  149 1    
   145   73  150 1    
   146   73  151 1    
   147   74   75 am   BACKBONE|DICT|INTERRES
   148   74  152 1    
   149   75   76 2    
   150   75   77 1    
   151   77   78 1    
   152   77   79 1    
   153   77  153 1    
   154   78  154 1    
   155   78  155 1    
   156   78  156 1    
   157   79   80 am   BACKBONE|DICT|INTERRES
   158   79  157 1    
   159   80   81 2    
@<TRIPOS>SUBSTRUCTURE
     1 UNK         1 GROUP             0       ****    0 ROOT    
