@<TRIPOS>MOLECULE
3R207
157   159    1
SMALL
USER_CHARGES


@<TRIPOS>ATOM
      1 CA        -49.5134  -27.7561   10.0678 C.3       0 UNK        -0.1975 
      2 C         -48.7259  -28.4710    8.9810 C.2       0 UNK         0.4852 
      3 O         -47.5156  -28.6486    9.1260 O.2       0 UNK        -0.5216 
      4 N         -49.3955  -28.8873    7.8963 N.am      1 UNK        -0.4461 
      5 CA        -48.7966  -29.5775    6.7475 C.3       1 UNK         0.0864 
      6 C6        -49.8589  -30.0212    5.7120 C.3       14 UNK        -0.0898 
      7 S7        -50.8615  -31.4141    6.3237 S.3       14 UNK        -0.2598 
      8 C8        -52.5533  -30.7416    6.2436 C.3       14 UNK         0.0286 
      9 C9        -52.8494  -29.7307    7.3446 C.ar      14 UNK        -0.0844 
     10 C10       -53.3730  -28.4725    7.0255 C.ar      14 UNK        -0.0881 
     11 C11       -53.7139  -27.5665    8.0357 C.ar      14 UNK        -0.0643 
     12 C12       -53.5063  -27.9235    9.3698 C.ar      14 UNK        -0.0930 
     13 C13       -52.9744  -29.1699    9.7034 C.ar      14 UNK        -0.0827 
     14 C14       -52.6527  -30.0717    8.6869 C.ar      14 UNK        -0.1249 
     15 C15       -52.6857  -29.5056   11.1582 C.3       14 UNK         0.0141 
     16 S16       -53.5580  -30.9838   11.7772 S.3       14 UNK        -0.2313 
     17 C17       -55.3450  -30.6054   11.9406 C.3       14 UNK        -0.0915 
     18 CA        -55.8452  -29.1393   11.8293 C.3       13 UNK         0.0968 
     19 C         -57.4023  -29.1038   11.9040 C.2       13 UNK         0.5732 
     20 N         -58.0099  -28.6278   12.9871 N.am      13 UNK        -0.7310 
     21 O         -58.0702  -29.5160   10.9587 O.2       13 UNK        -0.5035 
     22 N         -55.1986  -28.2503   12.8043 N.am      13 UNK        -0.4233 
     23 C         -55.2354  -26.9122   12.7427 C.2       13 UNK         0.4989 
     24 O         -55.6819  -26.2899   11.7780 O.2       13 UNK        -0.4996 
     25 CA        -54.6733  -26.1296   13.9454 C.3       12 UNK         0.0216 
     26 CB        -55.4961  -24.8606   14.2495 C.3       12 UNK        -0.1964 
     27 N         -54.4767  -26.9198   15.1669 N.am      12 UNK        -0.4276 
     28 C         -55.3961  -27.5699   15.8969 C.2       12 UNK         0.5020 
     29 O         -56.5795  -27.6758   15.5706 O.2       12 UNK        -0.5489 
     30 CA        -54.8997  -28.2529   17.1882 C.3       11 UNK         0.0294 
     31 CB        -54.9635  -29.7824   17.0409 C.3       11 UNK        -0.2019 
     32 N         -53.5292  -27.8708   17.5498 N.am      11 UNK        -0.4493 
     33 C         -53.1545  -26.6919   18.0633 C.2       11 UNK         0.4932 
     34 O         -53.9488  -25.8233   18.4220 O.2       11 UNK        -0.5029 
     35 CA        -51.6426  -26.4026   18.1240 C.3       10 UNK         0.0280 
     36 CB        -51.0048  -26.9893   19.3984 C.3       10 UNK        -0.1976 
     37 N         -50.9109  -26.7901   16.9042 N.am      10 UNK        -0.4242 
     38 C         -50.6520  -28.0238   16.4365 C.2       10 UNK         0.5072 
     39 O         -51.0095  -29.0509   17.0147 O.2       10 UNK        -0.5224 
     40 CA        -49.9511  -28.1638   15.0700 C.3       9 UNK         0.0343 
     41 CB        -50.8953  -28.8312   14.0593 C.3       9 UNK        -0.2003 
     42 N         -49.4885  -26.8990   14.4982 N.am      9 UNK        -0.4272 
     43 C         -48.3979  -26.2285   14.8955 C.2       9 UNK         0.4988 
     44 O         -47.6108  -26.6460   15.7451 O.2       9 UNK        -0.5108 
     45 CA        -48.1569  -24.8437   14.2621 C.3       8 UNK         0.0248 
     46 CB        -47.1188  -24.9523   13.1353 C.3       8 UNK        -0.2001 
     47 N         -49.3673  -24.1954   13.7394 N.am      8 UNK        -0.4140 
     48 C         -50.4629  -23.9027   14.4593 C.2       8 UNK         0.5028 
     49 O         -50.5676  -24.1459   15.6621 O.2       8 UNK        -0.5428 
     50 CA        -51.6642  -23.2733   13.7297 C.3       7 UNK         0.0264 
     51 CB        -51.7532  -21.7727   14.0499 C.3       7 UNK        -0.1988 
     52 N         -51.6722  -23.4483   12.2742 N.am      7 UNK        -0.4454 
     53 C         -51.6935  -24.6147   11.6101 C.2       7 UNK         0.5027 
     54 O         -51.6848  -25.7190   12.1565 O.2       7 UNK        -0.5083 
     55 CA        -51.6743  -24.5261   10.0694 C.3       6 UNK         0.0844 
     56 C56       -53.1147  -24.4346    9.5107 C.3       14 UNK        -0.0967 
     57 S57       -53.1697  -24.8422    7.7314 S.3       14 UNK        -0.2604 
     58 C58       -54.3539  -26.2277    7.6887 C.3       14 UNK         0.0134 
     59 N         -50.8440  -23.4189    9.5746 N.am      6 UNK        -0.4116 
     60 C         -49.5441  -23.2310    9.8371 C.2       5 UNK         0.5034 
     61 O         -48.8571  -23.9871   10.5287 O.2       5 UNK        -0.5045 
     62 CA        -48.9268  -21.9407    9.2932 C.3       5 UNK         0.0224 
     63 CB        -49.1103  -20.7856   10.2944 C.3       5 UNK        -0.1978 
     64 N         -47.5066  -22.1683    9.0560 N.am      5 UNK        -0.4737 
     65 C         -46.7719  -21.5535    8.1232 C.2       4 UNK         0.5027 
     66 O         -47.1994  -20.6462    7.4084 O.2       4 UNK        -0.5211 
     67 CA        -45.3150  -22.0226    7.9438 C.3       4 UNK         0.0297 
     68 CB        -44.3524  -21.0505    8.6458 C.3       4 UNK        -0.1993 
     69 N         -45.0465  -23.3870    8.4145 N.am      4 UNK        -0.4486 
     70 C         -45.5908  -24.5019    7.9080 C.2       3 UNK         0.4961 
     71 O         -46.4323  -24.5078    7.0066 O.2       3 UNK        -0.5105 
     72 CA        -45.1279  -25.8215    8.5539 C.3       3 UNK         0.0299 
     73 CB        -45.8032  -26.0084    9.9216 C.3       3 UNK        -0.1972 
     74 N         -45.4005  -26.9929    7.7139 N.am      3 UNK        -0.4305 
     75 C         -44.8126  -27.2303    6.5299 C.2       2 UNK         0.5006 
     76 O         -43.9236  -26.5163    6.0613 O.2       2 UNK        -0.5106 
     77 CA        -45.2475  -28.4739    5.7287 C.3       2 UNK         0.0296 
     78 CB        -44.1022  -29.4996    5.6605 C.3       2 UNK        -0.2002 
     79 N         -46.4415  -29.1394    6.2523 N.am      2 UNK        -0.4032 
     80 C         -47.7019  -28.7186    6.0801 C.2       1 UNK         0.5000 
     81 O         -48.0156  -27.7122    5.4407 O.2       1 UNK        -0.5238 
     82 H82       -49.3923  -28.2719   11.0191 H         1 UNK         0.0889 
     83 H83       -49.1509  -26.7361   10.1886 H         1 UNK         0.0889 
     84 H84       -50.5755  -27.7129    9.8357 H         1 UNK         0.0889 
     85 H85       -50.3922  -28.7314    7.8337 H         1 UNK         0.3028 
     86 H86       -48.3177  -30.4793    7.1361 H         1 UNK         0.0864 
     87 H87       -50.4996  -29.1830    5.4310 H         1 UNK         0.0720 
     88 H88       -49.3830  -30.3602    4.7894 H         1 UNK         0.0720 
     89 H89       -53.2585  -31.5682    6.3393 H         1 UNK         0.0814 
     90 H90       -52.7218  -30.3117    5.2549 H         1 UNK         0.0814 
     91 H91       -53.5425  -28.2066    5.9909 H         1 UNK         0.1469 
     92 H92       -53.7635  -27.2348   10.1585 H         1 UNK         0.1381 
     93 H93       -52.2458  -31.0409    8.9420 H         1 UNK         0.1206 
     94 H94       -51.6181  -29.7107   11.2338 H         1 UNK         0.0813 
     95 H95       -52.8602  -28.6495   11.8060 H         1 UNK         0.0813 
     96 H96       -55.6627  -31.0233   12.8977 H         1 UNK         0.0638 
     97 H97       -55.8425  -31.2125   11.1818 H         1 UNK         0.0638 
     98 H98       -55.5968  -28.7809   10.8315 H         1 UNK         0.0568 
     99 H99       -59.0166  -28.6110   13.0170 H         1 UNK         0.3450 
    100 H100      -57.4772  -28.2920   13.7818 H         1 UNK         0.3450 
    101 H101      -54.8320  -28.6890   13.6342 H         1 UNK         0.2987 
    102 H102      -53.6793  -25.8072   13.6480 H         1 UNK         0.0766 
    103 H103      -55.0718  -24.3026   15.0843 H         1 UNK         0.0798 
    104 H104      -56.5302  -25.1016   14.4986 H         1 UNK         0.0798 
    105 H105      -55.5161  -24.1883   13.3908 H         1 UNK         0.0798 
    106 H106      -53.5357  -26.9256   15.5316 H         1 UNK         0.3198 
    107 H107      -55.5706  -27.9519   17.9955 H         1 UNK         0.0843 
    108 H108      -55.9750  -30.1110   16.7974 H         1 UNK         0.0831 
    109 H109      -54.6780  -30.2816   17.9670 H         1 UNK         0.0831 
    110 H110      -54.3041  -30.1414   16.2495 H         1 UNK         0.0831 
    111 H111      -52.7852  -28.5298   17.3272 H         1 UNK         0.3133 
    112 H112      -51.5376  -25.3179   18.1831 H         1 UNK         0.0566 
    113 H113      -49.9447  -26.7436   19.4595 H         1 UNK         0.0814 
    114 H114      -51.4833  -26.5844   20.2911 H         1 UNK         0.0814 
    115 H115      -51.1013  -28.0742   19.4474 H         1 UNK         0.0814 
    116 H116      -50.6100  -25.9976   16.3418 H         1 UNK         0.3091 
    117 H117      -49.0885  -28.8173   15.2161 H         1 UNK         0.0702 
    118 H118      -50.3815  -29.0218   13.1185 H         1 UNK         0.0785 
    119 H119      -51.7652  -28.2072   13.8526 H         1 UNK         0.0785 
    120 H120      -51.2591  -29.7926   14.4252 H         1 UNK         0.0785 
    121 H121      -50.0741  -26.4815   13.7856 H         1 UNK         0.2998 
    122 H122      -47.7525  -24.1960   15.0424 H         1 UNK         0.0697 
    123 H123      -47.4770  -25.5897   12.3261 H         1 UNK         0.0825 
    124 H124      -46.1851  -25.3822   13.5006 H         1 UNK         0.0825 
    125 H125      -46.8828  -23.9752   12.7131 H         1 UNK         0.0825 
    126 H126      -49.3702  -23.9897   12.7478 H         1 UNK         0.3029 
    127 H127      -52.5600  -23.7559   14.1234 H         1 UNK         0.0897 
    128 H128      -52.6594  -21.3301   13.6357 H         1 UNK         0.0792 
    129 H129      -51.7783  -21.6034   15.1276 H         1 UNK         0.0792 
    130 H130      -50.8976  -21.2237   13.6542 H         1 UNK         0.0792 
    131 H131      -51.6703  -22.5995   11.7280 H         1 UNK         0.3086 
    132 H132      -51.2243  -25.4517    9.7098 H         1 UNK         0.0583 
    133 H133      -53.5175  -23.4292    9.6472 H         1 UNK         0.1020 
    134 H134      -53.7996  -25.0836   10.0559 H         1 UNK         0.1020 
    135 H135      -55.1881  -26.0261    8.3628 H         1 UNK         0.0694 
    136 H136      -54.7871  -26.2741    6.6884 H         1 UNK         0.0694 
    137 H137      -51.3181  -22.7519    8.9831 H         1 UNK         0.2989 
    138 H138      -49.4164  -21.6916    8.3485 H         1 UNK         0.1055 
    139 H139      -50.1666  -20.5904   10.4834 H         1 UNK         0.0806 
    140 H140      -48.6757  -19.8603    9.9157 H         1 UNK         0.0806 
    141 H141      -48.6404  -21.0062   11.2540 H         1 UNK         0.0806 
    142 H142      -47.1092  -22.9403    9.5764 H         1 UNK         0.3061 
    143 H143      -45.1018  -21.9990    6.8730 H         1 UNK         0.0734 
    144 H144      -44.5041  -20.0290    8.2937 H         1 UNK         0.0832 
    145 H145      -44.4999  -21.0463    9.7266 H         1 UNK         0.0832 
    146 H146      -43.3115  -21.3064    8.4473 H         1 UNK         0.0832 
    147 H147      -44.3735  -23.4776    9.1626 H         1 UNK         0.3156 
    148 H148      -44.0477  -25.7688    8.7056 H         1 UNK         0.0589 
    149 H149      -46.8897  -25.9881    9.8359 H         1 UNK         0.0808 
    150 H150      -45.5204  -26.9545   10.3835 H         1 UNK         0.0808 
    151 H151      -45.5184  -25.2148   10.6129 H         1 UNK         0.0808 
    152 H152      -46.1275  -27.6222    8.0397 H         1 UNK         0.3098 
    153 H153      -45.4614  -28.1382    4.7116 H         1 UNK         0.0720 
    154 H154      -44.3693  -30.3530    5.0369 H         1 UNK         0.0791 
    155 H155      -43.8367  -29.8745    6.6498 H         1 UNK         0.0791 
    156 H156      -43.2037  -29.0562    5.2288 H         1 UNK         0.0791 
    157 H157      -46.2813  -29.9536    6.8288 H         1 UNK         0.3028 
@<TRIPOS>BOND
     1    1    2 1    
     2    1   82 1    
     3    1   83 1    
     4    1   84 1    
     5    2    3 2    
     6    2    4 am   BACKBONE|DICT|INTERRES
     7    4    5 1    
     8    4   85 1    
     9    5    6 1    
    10    5   80 1    
    11    5   86 1    
    12    6    7 1    
    13    6   87 1    
    14    6   88 1    
    15    7    8 1    
    16    8    9 1    
    17    8   89 1    
    18    8   90 1    
    19    9   10 ar   
    20    9   14 ar   
    21   10   11 ar   
    22   10   91 1    
    23   11   12 ar   
    24   11   58 1    
    25   12   13 ar   
    26   12   92 1    
    27   13   14 ar   
    28   13   15 1    
    29   14   93 1    
    30   15   16 1    
    31   15   94 1    
    32   15   95 1    
    33   16   17 1    
    34   17   18 1    
    35   17   96 1    
    36   17   97 1    
    37   18   19 1    
    38   18   22 1    
    39   18   98 1    
    40   19   20 am   BACKBONE|DICT|INTERRES
    41   19   21 2    
    42   20   99 1    
    43   20  100 1    
    44   22   23 am   BACKBONE|DICT|INTERRES
    45   22  101 1    
    46   23   24 2    
    47   23   25 1    
    48   25   26 1    
    49   25   27 1    
    50   25  102 1    
    51   26  103 1    
    52   26  104 1    
    53   26  105 1    
    54   27   28 am   BACKBONE|DICT|INTERRES
    55   27  106 1    
    56   28   29 2    
    57   28   30 1    
    58   30   31 1    
    59   30   32 1    
    60   30  107 1    
    61   31  108 1    
    62   31  109 1    
    63   31  110 1    
    64   32   33 am   BACKBONE|DICT|INTERRES
    65   32  111 1    
    66   33   34 2    
    67   33   35 1    
    68   35   36 1    
    69   35   37 1    
    70   35  112 1    
    71   36  113 1    
    72   36  114 1    
    73   36  115 1    
    74   37   38 am   BACKBONE|DICT|INTERRES
    75   37  116 1    
    76   38   39 2    
    77   38   40 1    
    78   40   41 1    
    79   40   42 1    
    80   40  117 1    
    81   41  118 1    
    82   41  119 1    
    83   41  120 1    
    84   42   43 am   BACKBONE|DICT|INTERRES
    85   42  121 1    
    86   43   44 2    
    87   43   45 1    
    88   45   46 1    
    89   45   47 1    
    90   45  122 1    
    91   46  123 1    
    92   46  124 1    
    93   46  125 1    
    94   47   48 am   BACKBONE|DICT|INTERRES
    95   47  126 1    
    96   48   49 2    
    97   48   50 1    
    98   50   51 1    
    99   50   52 1    
   100   50  127 1    
   101   51  128 1    
   102   51  129 1    
   103   51  130 1    
   104   52   53 am   BACKBONE|DICT|INTERRES
   105   52  131 1    
   106   53   54 2    
   107   53   55 1    
   108   55   56 1    
   109   55   59 1    
   110   55  132 1    
   111   56   57 1    
   112   56  133 1    
   113   56  134 1    
   114   57   58 1    
   115   58  135 1    
   116   58  136 1    
   117   59   60 am   BACKBONE|DICT|INTERRES
   118   59  137 1    
   119   60   61 2    
   120   60   62 1    
   121   62   63 1    
   122   62   64 1    
   123   62  138 1    
   124   63  139 1    
   125   63  140 1    
   126   63  141 1    
   127   64   65 am   BACKBONE|DICT|INTERRES
   128   64  142 1    
   129   65   66 2    
   130   65   67 1    
   131   67   68 1    
   132   67   69 1    
   133   67  143 1    
   134   68  144 1    
   135   68  145 1    
   136   68  146 1    
   137   69   70 am   BACKBONE|DICT|INTERRES
   138   69  147 1    
   139   70   71 2    
   140   70   72 1    
   141   72   73 1    
   142   72   74 1    
   143   72  148 1    
   144   73  149 1    
   145   73  150 1    
   146   73  151 1    
   147   74   75 am   BACKBONE|DICT|INTERRES
   148   74  152 1    
   149   75   76 2    
   150   75   77 1    
   151   77   78 1    
   152   77   79 1    
   153   77  153 1    
   154   78  154 1    
   155   78  155 1    
   156   78  156 1    
   157   79   80 am   BACKBONE|DICT|INTERRES
   158   79  157 1    
   159   80   81 2    
@<TRIPOS>SUBSTRUCTURE
     1 UNK         1 GROUP             0       ****    0 ROOT    
