@<TRIPOS>MOLECULE
3R207
157   159    1
SMALL
USER_CHARGES


@<TRIPOS>ATOM
      1 CA        -45.6780  -31.2425    4.3798 C.3       0 UNK        -0.1975 
      2 C         -46.3806  -30.0832    5.0699 C.2       0 UNK         0.4852 
      3 O         -46.8691  -29.1729    4.3985 O.2       0 UNK        -0.5216 
      4 N         -46.4219  -30.0922    6.4090 N.am      1 UNK        -0.4461 
      5 CA        -47.0634  -29.0797    7.2601 C.3       1 UNK         0.0864 
      6 C6        -47.5146  -29.7122    8.6095 C.3       14 UNK        -0.0898 
      7 S7        -49.1283  -29.0833    9.1724 S.3       14 UNK        -0.2598 
      8 C8        -50.2482  -30.3695    8.5364 C.3       14 UNK         0.0286 
      9 C9        -51.7031  -30.0122    8.8013 C.ar      14 UNK        -0.0844 
     10 C10       -52.5104  -29.5029    7.7790 C.ar      14 UNK        -0.0881 
     11 C11       -53.8422  -29.1548    8.0337 C.ar      14 UNK        -0.0643 
     12 C12       -54.3749  -29.3538    9.3096 C.ar      14 UNK        -0.0930 
     13 C13       -53.5685  -29.8331   10.3438 C.ar      14 UNK        -0.0827 
     14 C14       -52.2392  -30.1753   10.0811 C.ar      14 UNK        -0.1249 
     15 C15       -54.1142  -29.9237   11.7575 C.3       14 UNK         0.0141 
     16 S16       -54.0253  -28.3000   12.5722 S.3       14 UNK        -0.2313 
     17 C17       -55.6540  -27.5794   12.1704 C.3       14 UNK        -0.0915 
     18 CA        -56.0013  -26.3367   13.0359 C.3       13 UNK         0.0968 
     19 C         -57.4189  -25.7958   12.6867 C.2       13 UNK         0.5732 
     20 N         -58.3650  -25.7503   13.6172 N.am      13 UNK        -0.7310 
     21 O         -57.6684  -25.4126   11.5467 O.2       13 UNK        -0.5035 
     22 N         -55.7617  -26.5940   14.4639 N.am      13 UNK        -0.4233 
     23 C         -55.6044  -25.6753   15.4200 C.2       13 UNK         0.4989 
     24 O         -55.7676  -24.4681   15.2446 O.2       13 UNK        -0.4996 
     25 CA        -55.1399  -26.1771   16.8029 C.3       12 UNK         0.0216 
     26 CB        -56.3339  -26.6522   17.6551 C.3       12 UNK        -0.1964 
     27 N         -54.0583  -27.1811   16.7493 N.am      12 UNK        -0.4276 
     28 C         -54.1265  -28.4470   16.3107 C.2       12 UNK         0.5020 
     29 O         -55.1571  -28.9613   15.8717 O.2       12 UNK        -0.5489 
     30 CA        -52.8165  -29.2453   16.3075 C.3       11 UNK         0.0294 
     31 CB        -53.0365  -30.7321   15.9477 C.3       11 UNK        -0.2019 
     32 N         -51.8666  -28.6309   15.3773 N.am      11 UNK        -0.4493 
     33 C         -50.5493  -28.8723   15.3727 C.2       11 UNK         0.4932 
     34 O         -49.9843  -29.6004   16.1901 O.2       11 UNK        -0.5029 
     35 CA        -49.7161  -28.1859   14.2807 C.3       10 UNK         0.0280 
     36 CB        -50.3111  -28.3663   12.8732 C.3       10 UNK        -0.1976 
     37 N         -49.5488  -26.7672   14.5891 N.am      10 UNK        -0.4242 
     38 C         -48.6187  -26.2926   15.4336 C.2       10 UNK         0.5072 
     39 O         -47.7581  -26.9942   15.9674 O.2       10 UNK        -0.5224 
     40 CA        -48.6209  -24.7827   15.7423 C.3       9 UNK         0.0343 
     41 CB        -47.5774  -24.0591   14.8748 C.3       9 UNK        -0.2003 
     42 N         -49.9184  -24.1333   15.5614 N.am      9 UNK        -0.4272 
     43 C         -51.0316  -24.4017   16.2581 C.2       9 UNK         0.4988 
     44 O         -51.0892  -25.1964   17.1971 O.2       9 UNK        -0.5108 
     45 CA        -52.3166  -23.6917   15.7994 C.3       8 UNK         0.0248 
     46 CB        -52.5762  -22.4350   16.6444 C.3       8 UNK        -0.2001 
     47 N         -52.3518  -23.3439   14.3739 N.am      8 UNK        -0.4140 
     48 C         -52.2126  -24.2117   13.3614 C.2       8 UNK         0.5028 
     49 O         -52.0111  -25.4186   13.5184 O.2       8 UNK        -0.5428 
     50 CA        -52.2301  -23.5971   11.9565 C.3       7 UNK         0.0264 
     51 CB        -50.9377  -22.7977   11.7104 C.3       7 UNK        -0.1988 
     52 N         -52.3231  -24.6377   10.9352 N.am      7 UNK        -0.4454 
     53 C         -53.4053  -24.8946   10.1881 C.2       7 UNK         0.5027 
     54 O         -54.4744  -24.2954   10.3187 O.2       7 UNK        -0.5083 
     55 CA        -53.2736  -25.9894    9.1021 C.3       6 UNK         0.0844 
     56 C56       -54.3291  -25.8429    7.9614 C.3       14 UNK        -0.0967 
     57 S57       -54.0471  -26.8754    6.4713 S.3       14 UNK        -0.2604 
     58 C58       -54.6924  -28.5114    6.9492 C.3       14 UNK         0.0134 
     59 N         -51.8979  -26.1594    8.6288 N.am      6 UNK        -0.4116 
     60 C         -51.1463  -25.2629    7.9783 C.2       5 UNK         0.5034 
     61 O         -51.5102  -24.1236    7.6787 O.2       5 UNK        -0.5045 
     62 CA        -49.7273  -25.7369    7.6201 C.3       5 UNK         0.0224 
     63 CB        -49.3355  -25.2944    6.2006 C.3       5 UNK        -0.1978 
     64 N         -48.6905  -25.3192    8.5763 N.am      5 UNK        -0.4737 
     65 C         -48.7292  -25.4400    9.9163 C.2       4 UNK         0.5027 
     66 O         -49.7069  -25.8478   10.5423 O.2       4 UNK        -0.5211 
     67 CA        -47.4701  -25.0650   10.7181 C.3       4 UNK         0.0297 
     68 CB        -47.0436  -26.2228   11.6375 C.3       4 UNK        -0.1993 
     69 N         -46.3382  -24.7116    9.8625 N.am      4 UNK        -0.4486 
     70 C         -45.9433  -23.4591    9.5960 C.2       3 UNK         0.4961 
     71 O         -46.4956  -22.4569   10.0503 O.2       3 UNK        -0.5105 
     72 CA        -44.7249  -23.2785    8.6692 C.3       3 UNK         0.0299 
     73 CB        -43.4713  -22.9423    9.4934 C.3       3 UNK        -0.1972 
     74 N         -44.4403  -24.4377    7.8187 N.am      3 UNK        -0.4305 
     75 C         -45.2432  -24.8909    6.8471 C.2       2 UNK         0.5006 
     76 O         -46.3141  -24.3611    6.5525 O.2       2 UNK        -0.5106 
     77 CA        -44.8011  -26.1560    6.0884 C.3       2 UNK         0.0296 
     78 CB        -43.3684  -26.6311    6.4247 C.3       2 UNK        -0.2002 
     79 N         -45.7497  -27.2616    6.2598 N.am      2 UNK        -0.4032 
     80 C         -46.1714  -27.8183    7.4064 C.2       1 UNK         0.5000 
     81 O         -45.8491  -27.3983    8.5208 O.2       1 UNK        -0.5238 
     82 H82       -45.2970  -31.9723    5.0940 H         1 UNK         0.0889 
     83 H83       -44.8390  -30.8748    3.7897 H         1 UNK         0.0889 
     84 H84       -46.3687  -31.7532    3.7093 H         1 UNK         0.0889 
     85 H85       -45.9636  -30.8439    6.9049 H         1 UNK         0.3028 
     86 H86       -47.9604  -28.7478    6.7318 H         1 UNK         0.0864 
     87 H87       -46.7796  -29.5668    9.4031 H         1 UNK         0.0720 
     88 H88       -47.6071  -30.7955    8.5154 H         1 UNK         0.0720 
     89 H89       -50.0135  -31.3234    9.0112 H         1 UNK         0.0814 
     90 H90       -50.0761  -30.5038    7.4673 H         1 UNK         0.0814 
     91 H91       -52.0985  -29.3469    6.7912 H         1 UNK         0.1469 
     92 H92       -55.4000  -29.0785    9.5145 H         1 UNK         0.1381 
     93 H93       -51.6100  -30.5449   10.8787 H         1 UNK         0.1206 
     94 H94       -53.5304  -30.6381   12.3396 H         1 UNK         0.0813 
     95 H95       -55.1386  -30.2984   11.7531 H         1 UNK         0.0813 
     96 H96       -56.4140  -28.3515   12.3029 H         1 UNK         0.0638 
     97 H97       -55.6576  -27.3133   11.1124 H         1 UNK         0.0638 
     98 H98       -55.3083  -25.5435   12.7494 H         1 UNK         0.0568 
     99 H99       -59.2779  -25.3975   13.3775 H         1 UNK         0.3450 
    100 H100      -58.1700  -26.0577   14.5560 H         1 UNK         0.3450 
    101 H101      -55.6157  -27.5661   14.7256 H         1 UNK         0.2987 
    102 H102      -54.7141  -25.3174   17.3220 H         1 UNK         0.0766 
    103 H103      -57.0597  -25.8483   17.7854 H         1 UNK         0.0798 
    104 H104      -56.0126  -26.9617   18.6496 H         1 UNK         0.0798 
    105 H105      -56.8619  -27.4894   17.1980 H         1 UNK         0.0798 
    106 H106      -53.1502  -26.8455   17.0467 H         1 UNK         0.3198 
    107 H107      -52.4079  -29.1922   17.3190 H         1 UNK         0.0843 
    108 H108      -53.3992  -30.8464   14.9256 H         1 UNK         0.0831 
    109 H109      -53.7738  -31.1891   16.6091 H         1 UNK         0.0831 
    110 H110      -52.1193  -31.3124   16.0442 H         1 UNK         0.0831 
    111 H111      -52.2579  -28.0127   14.6756 H         1 UNK         0.3133 
    112 H112      -48.7364  -28.6688   14.2697 H         1 UNK         0.0566 
    113 H113      -49.5870  -28.0998   12.1043 H         1 UNK         0.0814 
    114 H114      -51.1930  -27.7498   12.7100 H         1 UNK         0.0814 
    115 H115      -50.5954  -29.4037   12.6970 H         1 UNK         0.0814 
    116 H116      -50.2560  -26.1397   14.2165 H         1 UNK         0.3091 
    117 H117      -48.3372  -24.6659   16.7904 H         1 UNK         0.0702 
    118 H118      -47.4861  -23.0094   15.1547 H         1 UNK         0.0785 
    119 H119      -47.8330  -24.1042   13.8159 H         1 UNK         0.0785 
    120 H120      -46.5908  -24.5102   14.9909 H         1 UNK         0.0785 
    121 H121      -49.9844  -23.4614   14.8118 H         1 UNK         0.2998 
    122 H122      -53.1303  -24.3902   15.9704 H         1 UNK         0.0697 
    123 H123      -51.8134  -21.6727   16.4812 H         1 UNK         0.0825 
    124 H124      -52.5766  -22.6733   17.7091 H         1 UNK         0.0825 
    125 H125      -53.5476  -21.9967   16.4141 H         1 UNK         0.0825 
    126 H126      -52.5043  -22.3694   14.1563 H         1 UNK         0.3029 
    127 H127      -53.0831  -22.9185   11.8880 H         1 UNK         0.0897 
    128 H128      -50.8719  -21.9324   12.3708 H         1 UNK         0.0792 
    129 H129      -50.8926  -22.4241   10.6869 H         1 UNK         0.0792 
    130 H130      -50.0491  -23.4062   11.8805 H         1 UNK         0.0792 
    131 H131      -51.4880  -25.2078   10.8104 H         1 UNK         0.3086 
    132 H132      -53.4930  -26.9080    9.6396 H         1 UNK         0.0583 
    133 H133      -55.3290  -26.0468    8.3488 H         1 UNK         0.1020 
    134 H134      -54.3521  -24.8074    7.6163 H         1 UNK         0.1020 
    135 H135      -55.7315  -28.4105    7.2664 H         1 UNK         0.0694 
    136 H136      -54.6988  -29.1591    6.0715 H         1 UNK         0.0694 
    137 H137      -51.4722  -27.0415    8.8791 H         1 UNK         0.2989 
    138 H138      -49.7394  -26.8262    7.6120 H         1 UNK         0.1055 
    139 H139      -49.1567  -24.2197    6.1479 H         1 UNK         0.0806 
    140 H140      -50.1239  -25.5300    5.4841 H         1 UNK         0.0806 
    141 H141      -48.4346  -25.8043    5.8605 H         1 UNK         0.0806 
    142 H142      -47.8458  -24.9401    8.1671 H         1 UNK         0.3061 
    143 H143      -47.7387  -24.2180   11.3516 H         1 UNK         0.0734 
    144 H144      -46.8384  -27.1323   11.0713 H         1 UNK         0.0832 
    145 H145      -46.1508  -25.9710   12.2097 H         1 UNK         0.0832 
    146 H146      -47.8280  -26.4591   12.3555 H         1 UNK         0.0832 
    147 H147      -45.8647  -25.4908    9.4146 H         1 UNK         0.3156 
    148 H148      -44.9394  -22.4313    8.0144 H         1 UNK         0.0589 
    149 H149      -43.1936  -23.7612   10.1584 H         1 UNK         0.0808 
    150 H150      -43.6373  -22.0610   10.1147 H         1 UNK         0.0808 
    151 H151      -42.6180  -22.7254    8.8503 H         1 UNK         0.0808 
    152 H152      -43.5875  -24.9444    8.0085 H         1 UNK         0.3098 
    153 H153      -44.8215  -25.8940    5.0296 H         1 UNK         0.0720 
    154 H154      -42.6345  -25.8458    6.2378 H         1 UNK         0.0791 
    155 H155      -43.0861  -27.4795    5.8010 H         1 UNK         0.0791 
    156 H156      -43.2691  -26.9460    7.4643 H         1 UNK         0.0791 
    157 H157      -46.0954  -27.6847    5.4025 H         1 UNK         0.3028 
@<TRIPOS>BOND
     1    1    2 1    
     2    1   82 1    
     3    1   83 1    
     4    1   84 1    
     5    2    3 2    
     6    2    4 am   BACKBONE|DICT|INTERRES
     7    4    5 1    
     8    4   85 1    
     9    5    6 1    
    10    5   80 1    
    11    5   86 1    
    12    6    7 1    
    13    6   87 1    
    14    6   88 1    
    15    7    8 1    
    16    8    9 1    
    17    8   89 1    
    18    8   90 1    
    19    9   10 ar   
    20    9   14 ar   
    21   10   11 ar   
    22   10   91 1    
    23   11   12 ar   
    24   11   58 1    
    25   12   13 ar   
    26   12   92 1    
    27   13   14 ar   
    28   13   15 1    
    29   14   93 1    
    30   15   16 1    
    31   15   94 1    
    32   15   95 1    
    33   16   17 1    
    34   17   18 1    
    35   17   96 1    
    36   17   97 1    
    37   18   19 1    
    38   18   22 1    
    39   18   98 1    
    40   19   20 am   BACKBONE|DICT|INTERRES
    41   19   21 2    
    42   20   99 1    
    43   20  100 1    
    44   22   23 am   BACKBONE|DICT|INTERRES
    45   22  101 1    
    46   23   24 2    
    47   23   25 1    
    48   25   26 1    
    49   25   27 1    
    50   25  102 1    
    51   26  103 1    
    52   26  104 1    
    53   26  105 1    
    54   27   28 am   BACKBONE|DICT|INTERRES
    55   27  106 1    
    56   28   29 2    
    57   28   30 1    
    58   30   31 1    
    59   30   32 1    
    60   30  107 1    
    61   31  108 1    
    62   31  109 1    
    63   31  110 1    
    64   32   33 am   BACKBONE|DICT|INTERRES
    65   32  111 1    
    66   33   34 2    
    67   33   35 1    
    68   35   36 1    
    69   35   37 1    
    70   35  112 1    
    71   36  113 1    
    72   36  114 1    
    73   36  115 1    
    74   37   38 am   BACKBONE|DICT|INTERRES
    75   37  116 1    
    76   38   39 2    
    77   38   40 1    
    78   40   41 1    
    79   40   42 1    
    80   40  117 1    
    81   41  118 1    
    82   41  119 1    
    83   41  120 1    
    84   42   43 am   BACKBONE|DICT|INTERRES
    85   42  121 1    
    86   43   44 2    
    87   43   45 1    
    88   45   46 1    
    89   45   47 1    
    90   45  122 1    
    91   46  123 1    
    92   46  124 1    
    93   46  125 1    
    94   47   48 am   BACKBONE|DICT|INTERRES
    95   47  126 1    
    96   48   49 2    
    97   48   50 1    
    98   50   51 1    
    99   50   52 1    
   100   50  127 1    
   101   51  128 1    
   102   51  129 1    
   103   51  130 1    
   104   52   53 am   BACKBONE|DICT|INTERRES
   105   52  131 1    
   106   53   54 2    
   107   53   55 1    
   108   55   56 1    
   109   55   59 1    
   110   55  132 1    
   111   56   57 1    
   112   56  133 1    
   113   56  134 1    
   114   57   58 1    
   115   58  135 1    
   116   58  136 1    
   117   59   60 am   BACKBONE|DICT|INTERRES
   118   59  137 1    
   119   60   61 2    
   120   60   62 1    
   121   62   63 1    
   122   62   64 1    
   123   62  138 1    
   124   63  139 1    
   125   63  140 1    
   126   63  141 1    
   127   64   65 am   BACKBONE|DICT|INTERRES
   128   64  142 1    
   129   65   66 2    
   130   65   67 1    
   131   67   68 1    
   132   67   69 1    
   133   67  143 1    
   134   68  144 1    
   135   68  145 1    
   136   68  146 1    
   137   69   70 am   BACKBONE|DICT|INTERRES
   138   69  147 1    
   139   70   71 2    
   140   70   72 1    
   141   72   73 1    
   142   72   74 1    
   143   72  148 1    
   144   73  149 1    
   145   73  150 1    
   146   73  151 1    
   147   74   75 am   BACKBONE|DICT|INTERRES
   148   74  152 1    
   149   75   76 2    
   150   75   77 1    
   151   77   78 1    
   152   77   79 1    
   153   77  153 1    
   154   78  154 1    
   155   78  155 1    
   156   78  156 1    
   157   79   80 am   BACKBONE|DICT|INTERRES
   158   79  157 1    
   159   80   81 2    
@<TRIPOS>SUBSTRUCTURE
     1 UNK         1 GROUP             0       ****    0 ROOT    
