@<TRIPOS>MOLECULE
3R207
157   159    1
SMALL
USER_CHARGES


@<TRIPOS>ATOM
      1 CA        -49.4891  -20.9491   12.0312 C.3       0 UNK        -0.1975 
      2 C         -49.2919  -22.0824   11.0365 C.2       0 UNK         0.4852 
      3 O         -48.9017  -21.8344    9.8955 O.2       0 UNK        -0.5216 
      4 N         -49.5234  -23.3284   11.4728 N.am      1 UNK        -0.4461 
      5 CA        -49.4507  -24.5682   10.6835 C.3       1 UNK         0.0864 
      6 C6        -50.5448  -24.6587    9.5876 C.3       14 UNK        -0.0898 
      7 S7        -52.2459  -24.6525   10.2472 S.3       14 UNK        -0.2598 
      8 C8        -53.1786  -25.4193    8.8772 C.3       14 UNK         0.0286 
      9 C9        -52.9224  -26.9177    8.7744 C.ar      14 UNK        -0.0844 
     10 C10       -51.9118  -27.4040    7.9421 C.ar      14 UNK        -0.0881 
     11 C11       -51.6154  -28.7670    7.8932 C.ar      14 UNK        -0.0643 
     12 C12       -52.3927  -29.6622    8.6368 C.ar      14 UNK        -0.0930 
     13 C13       -53.4373  -29.1945    9.4421 C.ar      14 UNK        -0.0827 
     14 C14       -53.6924  -27.8214    9.5106 C.ar      14 UNK        -0.1249 
     15 C15       -54.2955  -30.1669   10.2362 C.3       14 UNK         0.0141 
     16 S16       -53.7478  -30.2777   11.9668 S.3       14 UNK        -0.2313 
     17 C17       -54.9842  -31.4433   12.6348 C.3       14 UNK        -0.0915 
     18 CA        -56.1669  -30.7271   13.3525 C.3       13 UNK         0.0968 
     19 C         -57.3237  -31.6981   13.7412 C.2       13 UNK         0.5732 
     20 N         -58.0520  -31.4594   14.8261 N.am      13 UNK        -0.7310 
     21 O         -57.5934  -32.6658   13.0331 O.2       13 UNK        -0.5035 
     22 N         -55.7311  -29.8300   14.4365 N.am      13 UNK        -0.4233 
     23 C         -55.1132  -30.1881   15.5725 C.2       13 UNK         0.4989 
     24 O         -54.8274  -31.3506   15.8619 O.2       13 UNK        -0.4996 
     25 CA        -54.7455  -29.0702   16.5673 C.3       12 UNK         0.0216 
     26 CB        -53.2215  -28.8634   16.6017 C.3       12 UNK        -0.1964 
     27 N         -55.4013  -27.7945   16.2640 N.am      12 UNK        -0.4276 
     28 C         -56.6780  -27.5097   16.5640 C.2       12 UNK         0.5020 
     29 O         -57.4114  -28.2702   17.1971 O.2       12 UNK        -0.5489 
     30 CA        -57.2539  -26.1733   16.0519 C.3       11 UNK         0.0294 
     31 CB        -57.1725  -25.1004   17.1495 C.3       11 UNK        -0.2019 
     32 N         -56.6044  -25.6693   14.8380 N.am      11 UNK        -0.4493 
     33 C         -56.5696  -26.3059   13.6586 C.2       11 UNK         0.4932 
     34 O         -57.1587  -27.3638   13.4381 O.2       11 UNK        -0.5029 
     35 CA        -55.6799  -25.7035   12.5553 C.3       10 UNK         0.0280 
     36 CB        -56.5251  -24.8739   11.5764 C.3       10 UNK        -0.1976 
     37 N         -54.5423  -24.8975   13.0210 N.am      10 UNK        -0.4242 
     38 C         -53.5997  -25.2976   13.8859 C.2       10 UNK         0.5072 
     39 O         -53.6365  -26.3684   14.4989 O.2       10 UNK        -0.5224 
     40 CA        -52.4463  -24.3220   14.1442 C.3       9 UNK         0.0343 
     41 CB        -52.9062  -23.1070   14.9700 C.3       9 UNK        -0.2003 
     42 N         -51.4091  -25.0462   14.8678 N.am      9 UNK        -0.4272 
     43 C         -50.0987  -24.7988   14.8317 C.2       9 UNK         0.4988 
     44 O         -49.6010  -23.8577   14.2116 O.2       9 UNK        -0.5108 
     45 CA        -49.1725  -25.7516   15.6133 C.3       8 UNK         0.0248 
     46 CB        -49.9088  -26.8801   16.3752 C.3       8 UNK        -0.2001 
     47 N         -48.1192  -26.3084   14.7558 N.am      8 UNK        -0.4140 
     48 C         -48.2919  -27.0557   13.6562 C.2       8 UNK         0.5028 
     49 O         -49.3898  -27.3867   13.1991 O.2       8 UNK        -0.5428 
     50 CA        -47.0160  -27.5297   12.9516 C.3       7 UNK         0.0264 
     51 CB        -46.2799  -28.5939   13.7905 C.3       7 UNK        -0.1988 
     52 N         -47.3934  -28.0846   11.6546 N.am      7 UNK        -0.4454 
     53 C         -46.5718  -28.2724   10.6168 C.2       7 UNK         0.5027 
     54 O         -45.3690  -28.0032   10.6654 O.2       7 UNK        -0.5083 
     55 CA        -47.1548  -28.8624    9.3135 C.3       6 UNK         0.0844 
     56 C56       -48.6992  -29.0328    9.2914 C.3       14 UNK        -0.0967 
     57 S57       -49.2184  -30.2019    7.9869 S.3       14 UNK        -0.2604 
     58 C58       -50.4508  -29.2525    7.0369 C.3       14 UNK         0.0134 
     59 N         -46.6759  -28.0220    8.2157 N.am      6 UNK        -0.4116 
     60 C         -45.6957  -28.3515    7.3647 C.2       5 UNK         0.5034 
     61 O         -45.2003  -29.4783    7.2941 O.2       5 UNK        -0.5045 
     62 CA        -45.1300  -27.2264    6.4734 C.3       5 UNK         0.0224 
     63 CB        -44.5697  -27.7466    5.1313 C.3       5 UNK        -0.1978 
     64 N         -46.0467  -26.0981    6.2670 N.am      5 UNK        -0.4737 
     65 C         -47.2097  -26.0970    5.5963 C.2       4 UNK         0.5027 
     66 O         -47.6747  -27.0884    5.0341 O.2       4 UNK        -0.5211 
     67 CA        -47.9980  -24.7727    5.5524 C.3       4 UNK         0.0297 
     68 CB        -49.4821  -25.0017    5.8757 C.3       4 UNK        -0.1993 
     69 N         -47.4670  -23.7912    6.5001 N.am      4 UNK        -0.4486 
     70 C         -46.6542  -22.7717    6.1925 C.2       3 UNK         0.4961 
     71 O         -46.3047  -22.4957    5.0449 O.2       3 UNK        -0.5105 
     72 CA        -46.1184  -21.9248    7.3629 C.3       3 UNK         0.0299 
     73 CB        -46.8938  -20.6021    7.4677 C.3       3 UNK        -0.1972 
     74 N         -46.1630  -22.6228    8.6532 N.am      3 UNK        -0.4305 
     75 C         -45.3666  -23.6545    8.9795 C.2       2 UNK         0.5006 
     76 O         -44.4995  -24.1046    8.2303 O.2       2 UNK        -0.5106 
     77 CA        -45.6054  -24.3426   10.3372 C.3       2 UNK         0.0296 
     78 CB        -44.7096  -23.7269   11.4227 C.3       2 UNK        -0.2002 
     79 N         -47.0008  -24.3075   10.7820 N.am      2 UNK        -0.4032 
     80 C         -48.0369  -24.8302   10.1089 C.2       1 UNK         0.5000 
     81 O         -47.8984  -25.4673    9.0606 O.2       1 UNK        -0.5238 
     82 H82       -50.2275  -20.2436   11.6514 H         1 UNK         0.0889 
     83 H83       -48.5517  -20.4147   12.1827 H         1 UNK         0.0889 
     84 H84       -49.8343  -21.3131   12.9991 H         1 UNK         0.0889 
     85 H85       -49.7420  -23.4646   12.4597 H         1 UNK         0.3028 
     86 H86       -49.6298  -25.3814   11.3874 H         1 UNK         0.0864 
     87 H87       -50.4126  -25.5876    9.0418 H         1 UNK         0.0720 
     88 H88       -50.4428  -23.8532    8.8586 H         1 UNK         0.0720 
     89 H89       -52.9240  -24.9215    7.9401 H         1 UNK         0.0814 
     90 H90       -54.2430  -25.2411    9.0339 H         1 UNK         0.0814 
     91 H91       -51.3364  -26.7142    7.3453 H         1 UNK         0.1469 
     92 H92       -52.1762  -30.7209    8.5940 H         1 UNK         0.1381 
     93 H93       -54.4893  -27.4573   10.1412 H         1 UNK         0.1206 
     94 H94       -54.2636  -31.1581    9.7812 H         1 UNK         0.0813 
     95 H95       -55.3379  -29.8459   10.2066 H         1 UNK         0.0813 
     96 H96       -55.3483  -32.0658   11.8157 H         1 UNK         0.0638 
     97 H97       -54.4766  -32.1240   13.3194 H         1 UNK         0.0638 
     98 H98       -56.6231  -30.0660   12.6152 H         1 UNK         0.0568 
     99 H99       -57.8542  -30.6623   15.4104 H         1 UNK         0.3450 
    100 H100      -58.8048  -32.0861   15.0622 H         1 UNK         0.3450 
    101 H101      -55.9688  -28.8559   14.2971 H         1 UNK         0.2987 
    102 H102      -55.0635  -29.3972   17.5596 H         1 UNK         0.0766 
    103 H103      -52.9415  -28.0625   17.2860 H         1 UNK         0.0798 
    104 H104      -52.8255  -28.6198   15.6151 H         1 UNK         0.0798 
    105 H105      -52.7138  -29.7687   16.9371 H         1 UNK         0.0798 
    106 H106      -54.8620  -27.1388   15.7006 H         1 UNK         0.3198 
    107 H107      -58.3063  -26.3442   15.8150 H         1 UNK         0.0843 
    108 H108      -56.1395  -24.8677   17.4118 H         1 UNK         0.0831 
    109 H109      -57.6715  -25.4359   18.0600 H         1 UNK         0.0831 
    110 H110      -57.6588  -24.1753   16.8393 H         1 UNK         0.0831 
    111 H111      -56.0856  -24.8076   14.9240 H         1 UNK         0.3133 
    112 H112      -55.2570  -26.5475   12.0105 H         1 UNK         0.0566 
    113 H113      -55.9340  -24.5377   10.7247 H         1 UNK         0.0814 
    114 H114      -57.3539  -25.4623   11.1798 H         1 UNK         0.0814 
    115 H115      -56.9517  -23.9934   12.0585 H         1 UNK         0.0814 
    116 H116      -54.4268  -23.9975   12.5774 H         1 UNK         0.3091 
    117 H117      -52.0555  -23.9898   13.1808 H         1 UNK         0.0702 
    118 H118      -53.6748  -22.5381   14.4458 H         1 UNK         0.0785 
    119 H119      -53.3198  -23.4089   15.9332 H         1 UNK         0.0785 
    120 H120      -52.0782  -22.4244   15.1625 H         1 UNK         0.0785 
    121 H121      -51.7447  -25.8889   15.3185 H         1 UNK         0.2998 
    122 H122      -48.6678  -25.1321   16.3560 H         1 UNK         0.0697 
    123 H123      -50.4517  -27.5462   15.7034 H         1 UNK         0.0825 
    124 H124      -50.6227  -26.4750   17.0937 H         1 UNK         0.0825 
    125 H125      -49.2055  -27.4910   16.9411 H         1 UNK         0.0825 
    126 H126      -47.1751  -26.0716   15.0278 H         1 UNK         0.3029 
    127 H127      -46.3675  -26.6646   12.7953 H         1 UNK         0.0897 
    128 H128      -46.9050  -29.4712   13.9620 H         1 UNK         0.0792 
    129 H129      -45.9922  -28.2022   14.7667 H         1 UNK         0.0792 
    130 H130      -45.3651  -28.9275   13.3006 H         1 UNK         0.0792 
    131 H131      -48.3865  -28.2723   11.5778 H         1 UNK         0.3086 
    132 H132      -46.7160  -29.8598    9.2438 H         1 UNK         0.0583 
    133 H133      -49.0735  -29.4568   10.2243 H         1 UNK         0.1020 
    134 H134      -49.1947  -28.0679    9.1678 H         1 UNK         0.1020 
    135 H135      -49.9422  -28.4161    6.5536 H         1 UNK         0.0694 
    136 H136      -50.8394  -29.8817    6.2353 H         1 UNK         0.0694 
    137 H137      -47.0030  -27.0613    8.2348 H         1 UNK         0.2989 
    138 H138      -44.2884  -26.8163    7.0346 H         1 UNK         0.1055 
    139 H139      -43.7605  -28.4593    5.2946 H         1 UNK         0.0806 
    140 H140      -44.1649  -26.9342    4.5279 H         1 UNK         0.0806 
    141 H141      -45.3332  -28.2556    4.5425 H         1 UNK         0.0806 
    142 H142      -45.7580  -25.2308    6.7035 H         1 UNK         0.3061 
    143 H143      -47.9274  -24.3895    4.5325 H         1 UNK         0.0734 
    144 H144      -50.0472  -24.0701    5.8452 H         1 UNK         0.0832 
    145 H145      -49.9439  -25.6860    5.1627 H         1 UNK         0.0832 
    146 H146      -49.5946  -25.4331    6.8677 H         1 UNK         0.0832 
    147 H147      -47.6700  -23.9721    7.4761 H         1 UNK         0.3156 
    148 H148      -45.0749  -21.6874    7.1448 H         1 UNK         0.0589 
    149 H149      -46.8035  -20.0245    6.5467 H         1 UNK         0.0808 
    150 H150      -47.9574  -20.7697    7.6411 H         1 UNK         0.0808 
    151 H151      -46.5146  -19.9799    8.2784 H         1 UNK         0.0808 
    152 H152      -46.8956  -22.3358    9.2937 H         1 UNK         0.3098 
    153 H153      -45.3243  -25.3900   10.2184 H         1 UNK         0.0720 
    154 H154      -43.6600  -23.7601   11.1264 H         1 UNK         0.0791 
    155 H155      -44.7947  -24.2711   12.3635 H         1 UNK         0.0791 
    156 H156      -44.9621  -22.6828   11.6122 H         1 UNK         0.0791 
    157 H157      -47.1988  -23.7857   11.6236 H         1 UNK         0.3028 
@<TRIPOS>BOND
     1    1    2 1    
     2    1   82 1    
     3    1   83 1    
     4    1   84 1    
     5    2    3 2    
     6    2    4 am   BACKBONE|DICT|INTERRES
     7    4    5 1    
     8    4   85 1    
     9    5    6 1    
    10    5   80 1    
    11    5   86 1    
    12    6    7 1    
    13    6   87 1    
    14    6   88 1    
    15    7    8 1    
    16    8    9 1    
    17    8   89 1    
    18    8   90 1    
    19    9   10 ar   
    20    9   14 ar   
    21   10   11 ar   
    22   10   91 1    
    23   11   12 ar   
    24   11   58 1    
    25   12   13 ar   
    26   12   92 1    
    27   13   14 ar   
    28   13   15 1    
    29   14   93 1    
    30   15   16 1    
    31   15   94 1    
    32   15   95 1    
    33   16   17 1    
    34   17   18 1    
    35   17   96 1    
    36   17   97 1    
    37   18   19 1    
    38   18   22 1    
    39   18   98 1    
    40   19   20 am   BACKBONE|DICT|INTERRES
    41   19   21 2    
    42   20   99 1    
    43   20  100 1    
    44   22   23 am   BACKBONE|DICT|INTERRES
    45   22  101 1    
    46   23   24 2    
    47   23   25 1    
    48   25   26 1    
    49   25   27 1    
    50   25  102 1    
    51   26  103 1    
    52   26  104 1    
    53   26  105 1    
    54   27   28 am   BACKBONE|DICT|INTERRES
    55   27  106 1    
    56   28   29 2    
    57   28   30 1    
    58   30   31 1    
    59   30   32 1    
    60   30  107 1    
    61   31  108 1    
    62   31  109 1    
    63   31  110 1    
    64   32   33 am   BACKBONE|DICT|INTERRES
    65   32  111 1    
    66   33   34 2    
    67   33   35 1    
    68   35   36 1    
    69   35   37 1    
    70   35  112 1    
    71   36  113 1    
    72   36  114 1    
    73   36  115 1    
    74   37   38 am   BACKBONE|DICT|INTERRES
    75   37  116 1    
    76   38   39 2    
    77   38   40 1    
    78   40   41 1    
    79   40   42 1    
    80   40  117 1    
    81   41  118 1    
    82   41  119 1    
    83   41  120 1    
    84   42   43 am   BACKBONE|DICT|INTERRES
    85   42  121 1    
    86   43   44 2    
    87   43   45 1    
    88   45   46 1    
    89   45   47 1    
    90   45  122 1    
    91   46  123 1    
    92   46  124 1    
    93   46  125 1    
    94   47   48 am   BACKBONE|DICT|INTERRES
    95   47  126 1    
    96   48   49 2    
    97   48   50 1    
    98   50   51 1    
    99   50   52 1    
   100   50  127 1    
   101   51  128 1    
   102   51  129 1    
   103   51  130 1    
   104   52   53 am   BACKBONE|DICT|INTERRES
   105   52  131 1    
   106   53   54 2    
   107   53   55 1    
   108   55   56 1    
   109   55   59 1    
   110   55  132 1    
   111   56   57 1    
   112   56  133 1    
   113   56  134 1    
   114   57   58 1    
   115   58  135 1    
   116   58  136 1    
   117   59   60 am   BACKBONE|DICT|INTERRES
   118   59  137 1    
   119   60   61 2    
   120   60   62 1    
   121   62   63 1    
   122   62   64 1    
   123   62  138 1    
   124   63  139 1    
   125   63  140 1    
   126   63  141 1    
   127   64   65 am   BACKBONE|DICT|INTERRES
   128   64  142 1    
   129   65   66 2    
   130   65   67 1    
   131   67   68 1    
   132   67   69 1    
   133   67  143 1    
   134   68  144 1    
   135   68  145 1    
   136   68  146 1    
   137   69   70 am   BACKBONE|DICT|INTERRES
   138   69  147 1    
   139   70   71 2    
   140   70   72 1    
   141   72   73 1    
   142   72   74 1    
   143   72  148 1    
   144   73  149 1    
   145   73  150 1    
   146   73  151 1    
   147   74   75 am   BACKBONE|DICT|INTERRES
   148   74  152 1    
   149   75   76 2    
   150   75   77 1    
   151   77   78 1    
   152   77   79 1    
   153   77  153 1    
   154   78  154 1    
   155   78  155 1    
   156   78  156 1    
   157   79   80 am   BACKBONE|DICT|INTERRES
   158   79  157 1    
   159   80   81 2    
@<TRIPOS>SUBSTRUCTURE
     1 UNK         1 GROUP             0       ****    0 ROOT    
