@<TRIPOS>MOLECULE
3R207
157   159    1
SMALL
USER_CHARGES


@<TRIPOS>ATOM
      1 CA        -50.1465  -21.9433    2.2709 C.3       0 UNK        -0.1975 
      2 C         -49.8265  -23.2250    3.0254 C.2       0 UNK         0.4852 
      3 O         -49.4676  -24.2251    2.4014 O.2       0 UNK        -0.5216 
      4 N         -49.9523  -23.1993    4.3608 N.am      1 UNK        -0.4461 
      5 CA        -49.6833  -24.2924    5.3039 C.3       1 UNK         0.0864 
      6 C6        -50.5505  -25.5570    5.0456 C.3       14 UNK        -0.0898 
      7 S7        -50.4178  -26.7852    6.3852 S.3       14 UNK        -0.2598 
      8 C8        -52.0816  -26.7035    7.1319 C.3       14 UNK         0.0286 
      9 C9        -52.2095  -27.4456    8.4627 C.ar      14 UNK        -0.0844 
     10 C10       -51.3956  -28.5377    8.7895 C.ar      14 UNK        -0.0881 
     11 C11       -51.5203  -29.1830   10.0217 C.ar      14 UNK        -0.0643 
     12 C12       -52.4937  -28.7533   10.9281 C.ar      14 UNK        -0.0930 
     13 C13       -53.3247  -27.6747   10.6114 C.ar      14 UNK        -0.0827 
     14 C14       -53.1772  -27.0270    9.3811 C.ar      14 UNK        -0.1249 
     15 C15       -54.3739  -27.1971   11.6014 C.3       14 UNK         0.0141 
     16 S16       -56.0072  -27.8815   11.1937 S.3       14 UNK        -0.2313 
     17 C17       -57.0449  -27.1730   12.5202 C.3       14 UNK        -0.0915 
     18 CA        -57.9240  -28.2236   13.2509 C.3       13 UNK         0.0968 
     19 C         -59.0494  -28.7928   12.3355 C.2       13 UNK         0.5732 
     20 N         -59.0592  -30.0806   12.0115 N.am      13 UNK        -0.7310 
     21 O         -59.9387  -28.0509   11.9242 O.2       13 UNK        -0.5035 
     22 N         -57.1004  -29.2240   13.9455 N.am      13 UNK        -0.4233 
     23 C         -57.5177  -30.0372   14.9222 C.2       13 UNK         0.4989 
     24 O         -58.6702  -30.0518   15.3558 O.2       13 UNK        -0.4996 
     25 CA        -56.4726  -30.9805   15.5476 C.3       12 UNK         0.0216 
     26 CB        -56.1842  -32.1892   14.6342 C.3       12 UNK        -0.1964 
     27 N         -55.2395  -30.2992   15.9730 N.am      12 UNK        -0.4276 
     28 C         -54.3093  -29.7091   15.2104 C.2       12 UNK         0.5020 
     29 O         -54.3105  -29.7255   13.9779 O.2       12 UNK        -0.5489 
     30 CA        -53.1994  -28.9496   15.9506 C.3       11 UNK         0.0294 
     31 CB        -51.8571  -29.6859   15.8337 C.3       11 UNK        -0.2019 
     32 N         -53.0587  -27.5915   15.4256 N.am      11 UNK        -0.4493 
     33 C         -53.9577  -26.6118   15.5963 C.2       11 UNK         0.4932 
     34 O         -55.0219  -26.7547   16.2015 O.2       11 UNK        -0.5029 
     35 CA        -53.5678  -25.2355   15.0230 C.3       10 UNK         0.0280 
     36 CB        -54.5390  -24.1064   15.4249 C.3       10 UNK        -0.1976 
     37 N         -52.1820  -24.8851   15.3538 N.am      10 UNK        -0.4242 
     38 C         -51.6325  -24.7664   16.5735 C.2       10 UNK         0.5072 
     39 O         -52.2667  -24.8210   17.6281 O.2       10 UNK        -0.5224 
     40 CA        -50.1034  -24.5903   16.6392 C.3       9 UNK         0.0343 
     41 CB        -49.4349  -25.9331   16.9765 C.3       9 UNK        -0.2003 
     42 N         -49.5198  -24.0629   15.4030 N.am      9 UNK        -0.4272 
     43 C         -49.6736  -22.8020   14.9734 C.2       9 UNK         0.4988 
     44 O         -50.2595  -21.9261   15.6106 O.2       9 UNK        -0.5108 
     45 CA        -49.1002  -22.4676   13.5875 C.3       8 UNK         0.0248 
     46 CB        -47.5994  -22.1507   13.6858 C.3       8 UNK        -0.2001 
     47 N         -49.3163  -23.5368   12.6088 N.am      8 UNK        -0.4140 
     48 C         -50.5156  -23.9388   12.1616 C.2       8 UNK         0.5028 
     49 O         -51.5826  -23.4311   12.5055 O.2       8 UNK        -0.5428 
     50 CA        -50.5318  -25.1382   11.2029 C.3       7 UNK         0.0264 
     51 CB        -50.0667  -24.7360    9.7930 C.3       7 UNK        -0.1988 
     52 N         -49.7142  -26.2440   11.6991 N.am      7 UNK        -0.4454 
     53 C         -50.0119  -26.9966   12.7693 C.2       7 UNK         0.5027 
     54 O         -51.0382  -26.8700   13.4393 O.2       7 UNK        -0.5083 
     55 CA        -48.9647  -28.0408   13.2060 C.3       6 UNK         0.0844 
     56 C56       -49.3015  -29.4685   12.7116 C.3       14 UNK        -0.0967 
     57 S57       -48.9733  -29.7695   10.9416 S.3       14 UNK        -0.2604 
     58 C58       -50.5992  -30.3461   10.3538 C.3       14 UNK         0.0134 
     59 N         -47.5926  -27.6370   12.8851 N.am      6 UNK        -0.4116 
     60 C         -46.9581  -26.6099   13.4650 C.2       5 UNK         0.5034 
     61 O         -47.4601  -25.8909   14.3301 O.2       5 UNK        -0.5045 
     62 CA        -45.5389  -26.3120   12.9626 C.3       5 UNK         0.0224 
     63 CB        -44.5603  -27.4304   13.3574 C.3       5 UNK        -0.1978 
     64 N         -45.4660  -26.0779   11.5171 N.am      5 UNK        -0.4737 
     65 C         -46.0909  -25.0937   10.8601 C.2       4 UNK         0.5027 
     66 O         -46.9256  -24.3541   11.3760 O.2       4 UNK        -0.5211 
     67 CA        -45.7015  -24.8654    9.3915 C.3       4 UNK         0.0297 
     68 CB        -44.1970  -24.5631    9.2393 C.3       4 UNK        -0.1993 
     69 N         -46.1274  -25.9221    8.4706 N.am      4 UNK        -0.4486 
     70 C         -45.7503  -27.2102    8.4334 C.2       3 UNK         0.4961 
     71 O         -45.0063  -27.7382    9.2611 O.2       3 UNK        -0.5105 
     72 CA        -46.2696  -28.0547    7.2520 C.3       3 UNK         0.0299 
     73 CB        -47.5076  -28.8578    7.6765 C.3       3 UNK        -0.1972 
     74 N         -46.5912  -27.2550    6.0648 N.am      3 UNK        -0.4305 
     75 C         -45.6904  -26.5860    5.3274 C.2       2 UNK         0.5006 
     76 O         -44.4737  -26.6741    5.4977 O.2       2 UNK        -0.5106 
     77 CA        -46.2160  -25.6414    4.2269 C.3       2 UNK         0.0296 
     78 CB        -46.0174  -26.2733    2.8394 C.3       2 UNK        -0.2002 
     79 N         -47.6179  -25.2291    4.3620 N.am      2 UNK        -0.4032 
     80 C         -48.1745  -24.6024    5.4081 C.2       1 UNK         0.5000 
     81 O         -47.5598  -24.2972    6.4319 O.2       1 UNK        -0.5238 
     82 H82       -49.2701  -21.6050    1.7188 H         1 UNK         0.0889 
     83 H83       -50.4567  -21.1410    2.9402 H         1 UNK         0.0889 
     84 H84       -50.9513  -22.1199    1.5578 H         1 UNK         0.0889 
     85 H85       -50.2287  -22.3303    4.7976 H         1 UNK         0.3028 
     86 H86       -49.9784  -23.9008    6.2793 H         1 UNK         0.0864 
     87 H87       -50.2765  -26.0487    4.1114 H         1 UNK         0.0720 
     88 H88       -51.5959  -25.2681    4.9277 H         1 UNK         0.0720 
     89 H89       -52.8090  -27.1107    6.4286 H         1 UNK         0.0814 
     90 H90       -52.3384  -25.6532    7.2795 H         1 UNK         0.0814 
     91 H91       -50.6499  -28.8912    8.0924 H         1 UNK         0.1469 
     92 H92       -52.6032  -29.2505   11.8826 H         1 UNK         0.1381 
     93 H93       -53.8204  -26.1913    9.1408 H         1 UNK         0.1206 
     94 H94       -54.4220  -26.1072   11.5932 H         1 UNK         0.0813 
     95 H95       -54.0954  -27.4878   12.6142 H         1 UNK         0.0813 
     96 H96       -57.6660  -26.3870   12.0870 H         1 UNK         0.0638 
     97 H97       -56.4056  -26.6715   13.2487 H         1 UNK         0.0638 
     98 H98       -58.4554  -27.6816   14.0354 H         1 UNK         0.0568 
     99 H99       -59.7956  -30.4373   11.4237 H         1 UNK         0.3450 
    100 H100      -58.3296  -30.6923   12.3387 H         1 UNK         0.3450 
    101 H101      -56.1262  -29.2908   13.6601 H         1 UNK         0.2987 
    102 H102      -56.9180  -31.3714   16.4641 H         1 UNK         0.0766 
    103 H103      -55.4884  -32.8835   15.1053 H         1 UNK         0.0798 
    104 H104      -55.7604  -31.8914   13.6748 H         1 UNK         0.0798 
    105 H105      -57.1004  -32.7424   14.4234 H         1 UNK         0.0798 
    106 H106      -55.1466  -30.1945   16.9745 H         1 UNK         0.3198 
    107 H107      -53.4560  -28.8725   17.0095 H         1 UNK         0.0843 
    108 H108      -51.5769  -29.8344   14.7927 H         1 UNK         0.0831 
    109 H109      -51.9126  -30.6714   16.2977 H         1 UNK         0.0831 
    110 H110      -51.0541  -29.1377   16.3268 H         1 UNK         0.0831 
    111 H111      -52.2520  -27.4002   14.8365 H         1 UNK         0.3133 
    112 H112      -53.6037  -25.3304   13.9372 H         1 UNK         0.0566 
    113 H113      -54.2404  -23.1546   14.9855 H         1 UNK         0.0814 
    114 H114      -55.5503  -24.3214   15.0779 H         1 UNK         0.0814 
    115 H115      -54.5870  -23.9772   16.5065 H         1 UNK         0.0814 
    116 H116      -51.5569  -24.8463   14.5589 H         1 UNK         0.3091 
    117 H117      -49.8862  -23.8872   17.4460 H         1 UNK         0.0702 
    118 H118      -48.3549  -25.8250   17.0795 H         1 UNK         0.0785 
    119 H119      -49.6252  -26.6804   16.2058 H         1 UNK         0.0785 
    120 H120      -49.8126  -26.3329   17.9186 H         1 UNK         0.0785 
    121 H121      -48.9511  -24.7027   14.8548 H         1 UNK         0.2998 
    122 H122      -49.6140  -21.5760   13.2223 H         1 UNK         0.0697 
    123 H123      -47.0240  -23.0203   14.0067 H         1 UNK         0.0825 
    124 H124      -47.4134  -21.3504   14.4034 H         1 UNK         0.0825 
    125 H125      -47.2004  -21.8247   12.7251 H         1 UNK         0.0825 
    126 H126      -48.4780  -23.9801   12.2340 H         1 UNK         0.3029 
    127 H127      -51.5617  -25.4915   11.1339 H         1 UNK         0.0897 
    128 H128      -50.7389  -23.9941    9.3607 H         1 UNK         0.0792 
    129 H129      -50.0566  -25.5938    9.1222 H         1 UNK         0.0792 
    130 H130      -49.0652  -24.3061    9.7938 H         1 UNK         0.0792 
    131 H131      -48.8400  -26.4133   11.2253 H         1 UNK         0.3086 
    132 H132      -49.0272  -28.0767   14.2958 H         1 UNK         0.0583 
    133 H133      -48.7114  -30.1905   13.2780 H         1 UNK         0.1020 
    134 H134      -50.3398  -29.7109   12.9355 H         1 UNK         0.1020 
    135 H135      -50.4482  -30.9524    9.4594 H         1 UNK         0.0694 
    136 H136      -51.0558  -31.0086   11.0907 H         1 UNK         0.0694 
    137 H137      -47.1230  -28.1653   12.1635 H         1 UNK         0.2989 
    138 H138      -45.2150  -25.3928   13.4560 H         1 UNK         0.1055 
    139 H139      -44.6057  -27.6303   14.4291 H         1 UNK         0.0806 
    140 H140      -43.5315  -27.1538   13.1257 H         1 UNK         0.0806 
    141 H141      -44.7779  -28.3657   12.8401 H         1 UNK         0.0806 
    142 H142      -44.8819  -26.6996   10.9658 H         1 UNK         0.3061 
    143 H143      -46.2385  -23.9717    9.0688 H         1 UNK         0.0734 
    144 H144      -43.9577  -24.2705    8.2169 H         1 UNK         0.0832 
    145 H145      -43.8975  -23.7403    9.8899 H         1 UNK         0.0832 
    146 H146      -43.5733  -25.4206    9.4927 H         1 UNK         0.0832 
    147 H147      -46.7395  -25.5927    7.7293 H         1 UNK         0.3156 
    148 H148      -45.4829  -28.7598    6.9758 H         1 UNK         0.0589 
    149 H149      -48.2988  -28.2094    8.0543 H         1 UNK         0.0808 
    150 H150      -47.9131  -29.4422    6.8504 H         1 UNK         0.0808 
    151 H151      -47.2549  -29.5583    8.4731 H         1 UNK         0.0808 
    152 H152      -47.5704  -27.1379    5.8464 H         1 UNK         0.3098 
    153 H153      -45.6120  -24.7333    4.2777 H         1 UNK         0.0720 
    154 H154      -46.2832  -25.5767    2.0438 H         1 UNK         0.0791 
    155 H155      -46.6238  -27.1716    2.7162 H         1 UNK         0.0791 
    156 H156      -44.9758  -26.5581    2.6829 H         1 UNK         0.0791 
    157 H157      -48.2068  -25.3476    3.5438 H         1 UNK         0.3028 
@<TRIPOS>BOND
     1    1    2 1    
     2    1   82 1    
     3    1   83 1    
     4    1   84 1    
     5    2    3 2    
     6    2    4 am   BACKBONE|DICT|INTERRES
     7    4    5 1    
     8    4   85 1    
     9    5    6 1    
    10    5   80 1    
    11    5   86 1    
    12    6    7 1    
    13    6   87 1    
    14    6   88 1    
    15    7    8 1    
    16    8    9 1    
    17    8   89 1    
    18    8   90 1    
    19    9   10 ar   
    20    9   14 ar   
    21   10   11 ar   
    22   10   91 1    
    23   11   12 ar   
    24   11   58 1    
    25   12   13 ar   
    26   12   92 1    
    27   13   14 ar   
    28   13   15 1    
    29   14   93 1    
    30   15   16 1    
    31   15   94 1    
    32   15   95 1    
    33   16   17 1    
    34   17   18 1    
    35   17   96 1    
    36   17   97 1    
    37   18   19 1    
    38   18   22 1    
    39   18   98 1    
    40   19   20 am   BACKBONE|DICT|INTERRES
    41   19   21 2    
    42   20   99 1    
    43   20  100 1    
    44   22   23 am   BACKBONE|DICT|INTERRES
    45   22  101 1    
    46   23   24 2    
    47   23   25 1    
    48   25   26 1    
    49   25   27 1    
    50   25  102 1    
    51   26  103 1    
    52   26  104 1    
    53   26  105 1    
    54   27   28 am   BACKBONE|DICT|INTERRES
    55   27  106 1    
    56   28   29 2    
    57   28   30 1    
    58   30   31 1    
    59   30   32 1    
    60   30  107 1    
    61   31  108 1    
    62   31  109 1    
    63   31  110 1    
    64   32   33 am   BACKBONE|DICT|INTERRES
    65   32  111 1    
    66   33   34 2    
    67   33   35 1    
    68   35   36 1    
    69   35   37 1    
    70   35  112 1    
    71   36  113 1    
    72   36  114 1    
    73   36  115 1    
    74   37   38 am   BACKBONE|DICT|INTERRES
    75   37  116 1    
    76   38   39 2    
    77   38   40 1    
    78   40   41 1    
    79   40   42 1    
    80   40  117 1    
    81   41  118 1    
    82   41  119 1    
    83   41  120 1    
    84   42   43 am   BACKBONE|DICT|INTERRES
    85   42  121 1    
    86   43   44 2    
    87   43   45 1    
    88   45   46 1    
    89   45   47 1    
    90   45  122 1    
    91   46  123 1    
    92   46  124 1    
    93   46  125 1    
    94   47   48 am   BACKBONE|DICT|INTERRES
    95   47  126 1    
    96   48   49 2    
    97   48   50 1    
    98   50   51 1    
    99   50   52 1    
   100   50  127 1    
   101   51  128 1    
   102   51  129 1    
   103   51  130 1    
   104   52   53 am   BACKBONE|DICT|INTERRES
   105   52  131 1    
   106   53   54 2    
   107   53   55 1    
   108   55   56 1    
   109   55   59 1    
   110   55  132 1    
   111   56   57 1    
   112   56  133 1    
   113   56  134 1    
   114   57   58 1    
   115   58  135 1    
   116   58  136 1    
   117   59   60 am   BACKBONE|DICT|INTERRES
   118   59  137 1    
   119   60   61 2    
   120   60   62 1    
   121   62   63 1    
   122   62   64 1    
   123   62  138 1    
   124   63  139 1    
   125   63  140 1    
   126   63  141 1    
   127   64   65 am   BACKBONE|DICT|INTERRES
   128   64  142 1    
   129   65   66 2    
   130   65   67 1    
   131   67   68 1    
   132   67   69 1    
   133   67  143 1    
   134   68  144 1    
   135   68  145 1    
   136   68  146 1    
   137   69   70 am   BACKBONE|DICT|INTERRES
   138   69  147 1    
   139   70   71 2    
   140   70   72 1    
   141   72   73 1    
   142   72   74 1    
   143   72  148 1    
   144   73  149 1    
   145   73  150 1    
   146   73  151 1    
   147   74   75 am   BACKBONE|DICT|INTERRES
   148   74  152 1    
   149   75   76 2    
   150   75   77 1    
   151   77   78 1    
   152   77   79 1    
   153   77  153 1    
   154   78  154 1    
   155   78  155 1    
   156   78  156 1    
   157   79   80 am   BACKBONE|DICT|INTERRES
   158   79  157 1    
   159   80   81 2    
@<TRIPOS>SUBSTRUCTURE
     1 UNK         1 GROUP             0       ****    0 ROOT    
