@<TRIPOS>MOLECULE
3R207
157   159    1
SMALL
USER_CHARGES


@<TRIPOS>ATOM
      1 CA        -44.8925  -27.9207    6.8867 C.3       0 UNK        -0.1975 
      2 C         -46.2443  -27.4891    6.3414 C.2       0 UNK         0.4852 
      3 O         -46.3782  -26.3739    5.8354 O.2       0 UNK        -0.5216 
      4 N         -47.2451  -28.3743    6.4446 N.am      1 UNK        -0.4461 
      5 CA        -48.6179  -28.1705    5.9693 C.3       1 UNK         0.0864 
      6 C6        -49.4767  -29.4401    6.1819 C.3       14 UNK        -0.0898 
      7 S7        -51.0346  -29.3906    5.2308 S.3       14 UNK        -0.2598 
      8 C8        -52.2123  -30.1778    6.3765 C.3       14 UNK         0.0286 
      9 C9        -52.3768  -29.4230    7.6908 C.ar      14 UNK        -0.0844 
     10 C10       -52.9297  -28.1386    7.7137 C.ar      14 UNK        -0.0881 
     11 C11       -53.1266  -27.4657    8.9250 C.ar      14 UNK        -0.0643 
     12 C12       -52.7905  -28.1100   10.1227 C.ar      14 UNK        -0.0930 
     13 C13       -52.2156  -29.3829   10.1138 C.ar      14 UNK        -0.0827 
     14 C14       -52.0043  -30.0295    8.8932 C.ar      14 UNK        -0.1249 
     15 C15       -51.7976  -30.0509   11.4166 C.3       14 UNK         0.0141 
     16 S16       -52.6737  -31.6270   11.6825 S.3       14 UNK        -0.2313 
     17 C17       -53.7039  -31.2981   13.1502 C.3       14 UNK        -0.0915 
     18 CA        -55.1606  -30.9183   12.7785 C.3       13 UNK         0.0968 
     19 C         -56.1226  -31.1821   13.9697 C.2       13 UNK         0.5732 
     20 N         -56.6615  -32.3892   14.0736 N.am      13 UNK        -0.7310 
     21 O         -56.3534  -30.3221   14.8178 O.2       13 UNK        -0.5035 
     22 N         -55.2391  -29.5275   12.3195 N.am      13 UNK        -0.4233 
     23 C         -56.2866  -28.9801   11.6965 C.2       13 UNK         0.4989 
     24 O         -57.2606  -29.6207   11.2959 O.2       13 UNK        -0.4996 
     25 CA        -56.2473  -27.4472   11.5378 C.3       12 UNK         0.0216 
     26 CB        -57.3510  -26.9153   10.6050 C.3       12 UNK        -0.1964 
     27 N         -56.3455  -26.7710   12.8346 N.am      12 UNK        -0.4276 
     28 C         -55.3571  -26.6845   13.7339 C.2       12 UNK         0.5020 
     29 O         -54.2291  -27.1542   13.5545 O.2       12 UNK        -0.5489 
     30 CA        -55.7129  -26.0180   15.0726 C.3       11 UNK         0.0294 
     31 CB        -56.3619  -27.0388   16.0208 C.3       11 UNK        -0.2019 
     32 N         -54.5118  -25.4880   15.7112 N.am      11 UNK        -0.4493 
     33 C         -53.9607  -24.2978   15.4541 C.2       11 UNK         0.4932 
     34 O         -54.4990  -23.4302   14.7653 O.2       11 UNK        -0.5029 
     35 CA        -52.5662  -24.0306   16.0495 C.3       10 UNK         0.0280 
     36 CB        -52.6453  -23.6021   17.5278 C.3       10 UNK        -0.1976 
     37 N         -51.6226  -25.1373   15.8376 N.am      10 UNK        -0.4242 
     38 C         -51.6149  -26.3619   16.3841 C.2       10 UNK         0.5072 
     39 O         -52.4166  -26.7364   17.2415 O.2       10 UNK        -0.5224 
     40 CA        -50.5744  -27.3630   15.8554 C.3       9 UNK         0.0343 
     41 CB        -51.1921  -28.2164   14.7380 C.3       9 UNK        -0.2003 
     42 N         -49.3445  -26.7382   15.3617 N.am      9 UNK        -0.4272 
     43 C         -48.4094  -26.1848   16.1471 C.2       9 UNK         0.4988 
     44 O         -48.4870  -26.1359   17.3755 O.2       9 UNK        -0.5108 
     45 CA        -47.1726  -25.5943   15.4491 C.3       8 UNK         0.0248 
     46 CB        -46.1989  -26.7087   15.0323 C.3       8 UNK        -0.2001 
     47 N         -47.5145  -24.7734   14.2858 N.am      8 UNK        -0.4140 
     48 C         -48.1356  -23.5866   14.3550 C.2       8 UNK         0.5028 
     49 O         -48.4329  -23.0281   15.4117 O.2       8 UNK        -0.5428 
     50 CA        -48.5121  -22.9135   13.0230 C.3       7 UNK         0.0264 
     51 CB        -47.3101  -22.1590   12.4338 C.3       7 UNK        -0.1988 
     52 N         -49.0462  -23.8530   12.0326 N.am      7 UNK        -0.4454 
     53 C         -50.1701  -24.5671   12.1994 C.2       7 UNK         0.5027 
     54 O         -50.8881  -24.4742   13.1932 O.2       7 UNK        -0.5083 
     55 CA        -50.5254  -25.5975   11.1102 C.3       6 UNK         0.0844 
     56 C56       -51.3045  -24.9589    9.9340 C.3       14 UNK        -0.0967 
     57 S57       -53.1067  -24.9430   10.2253 S.3       14 UNK        -0.2604 
     58 C58       -53.7179  -26.0548    8.9067 C.3       14 UNK         0.0134 
     59 N         -49.3518  -26.3442   10.6562 N.am      6 UNK        -0.4116 
     60 C         -48.6225  -27.1557   11.4329 C.2       5 UNK         0.5034 
     61 O         -48.8871  -27.4092   12.6074 O.2       5 UNK        -0.5045 
     62 CA        -47.3396  -27.7266   10.8159 C.3       5 UNK         0.0224 
     63 CB        -47.6364  -28.9366    9.9164 C.3       5 UNK        -0.1978 
     64 N         -46.5844  -26.6972   10.0909 N.am      5 UNK        -0.4737 
     65 C         -45.9305  -25.7079   10.7177 C.2       4 UNK         0.5027 
     66 O         -45.9176  -25.5735   11.9410 O.2       4 UNK        -0.5211 
     67 CA        -45.1662  -24.6884    9.8584 C.3       4 UNK         0.0297 
     68 CB        -43.7508  -25.1997    9.5481 C.3       4 UNK        -0.1993 
     69 N         -45.8277  -24.2816    8.6156 N.am      4 UNK        -0.4486 
     70 C         -47.0306  -23.6967    8.5311 C.2       3 UNK         0.4961 
     71 O         -47.8155  -23.6095    9.4756 O.2       3 UNK        -0.5105 
     72 CA        -47.4111  -23.0686    7.1779 C.3       3 UNK         0.0299 
     73 CB        -46.2206  -22.8533    6.2204 C.3       3 UNK        -0.1972 
     74 N         -48.4102  -23.9046    6.5253 N.am      3 UNK        -0.4305 
     75 C         -49.7356  -23.7798    6.6818 C.2       2 UNK         0.5006 
     76 O         -50.2714  -22.8414    7.2723 O.2       2 UNK        -0.5106 
     77 CA        -50.6333  -24.8788    6.0772 C.3       2 UNK         0.0296 
     78 CB        -51.3521  -24.3559    4.8227 C.3       2 UNK        -0.2002 
     79 N         -49.9465  -26.1298    5.7419 N.am      2 UNK        -0.4032 
     80 C         -49.2721  -26.9174    6.5920 C.2       1 UNK         0.5000 
     81 O         -49.1287  -26.6778    7.7938 O.2       1 UNK        -0.5238 
     82 H82       -44.1353  -27.1643    6.6816 H         1 UNK         0.0889 
     83 H83       -44.5712  -28.8513    6.4192 H         1 UNK         0.0889 
     84 H84       -44.9412  -28.0749    7.9639 H         1 UNK         0.0889 
     85 H85       -47.0641  -29.2679    6.8779 H         1 UNK         0.3028 
     86 H86       -48.5300  -28.0040    4.8933 H         1 UNK         0.0864 
     87 H87       -48.9289  -30.3232    5.8494 H         1 UNK         0.0720 
     88 H88       -49.6773  -29.5938    7.2431 H         1 UNK         0.0720 
     89 H89       -51.8918  -31.2052    6.5564 H         1 UNK         0.0814 
     90 H90       -53.1843  -30.2461    5.8864 H         1 UNK         0.0814 
     91 H91       -53.2068  -27.6647    6.7819 H         1 UNK         0.1469 
     92 H92       -52.9604  -27.6139   11.0676 H         1 UNK         0.1381 
     93 H93       -51.5657  -31.0180    8.8855 H         1 UNK         0.1206 
     94 H94       -50.7246  -30.2440   11.3847 H         1 UNK         0.0813 
     95 H95       -51.9594  -29.3808   12.2600 H         1 UNK         0.0813 
     96 H96       -53.6859  -32.2187   13.7371 H         1 UNK         0.0638 
     97 H97       -53.2445  -30.5376   13.7834 H         1 UNK         0.0638 
     98 H98       -55.4859  -31.5553   11.9533 H         1 UNK         0.0568 
     99 H99       -56.4696  -33.1073   13.3926 H         1 UNK         0.3450 
    100 H100      -57.2765  -32.5843   14.8479 H         1 UNK         0.3450 
    101 H101      -54.5525  -28.8873   12.7060 H         1 UNK         0.2987 
    102 H102      -55.2880  -27.1897   11.0905 H         1 UNK         0.0766 
    103 H103      -57.2554  -25.8402   10.4516 H         1 UNK         0.0798 
    104 H104      -58.3481  -27.1119   11.0010 H         1 UNK         0.0798 
    105 H105      -57.2905  -27.3870    9.6232 H         1 UNK         0.0798 
    106 H106      -57.2537  -26.4015   13.0777 H         1 UNK         0.3198 
    107 H107      -56.4171  -25.2032   14.8902 H         1 UNK         0.0843 
    108 H108      -55.6935  -27.8761   16.2279 H         1 UNK         0.0831 
    109 H109      -57.2740  -27.4538   15.5898 H         1 UNK         0.0831 
    110 H110      -56.6320  -26.5816   16.9729 H         1 UNK         0.0831 
    111 H111      -53.9593  -26.1405   16.2604 H         1 UNK         0.3133 
    112 H112      -52.1450  -23.1918   15.4928 H         1 UNK         0.0566 
    113 H113      -51.6562  -23.3787   17.9278 H         1 UNK         0.0814 
    114 H114      -53.2510  -22.7016   17.6361 H         1 UNK         0.0814 
    115 H115      -53.0966  -24.3699   18.1565 H         1 UNK         0.0814 
    116 H116      -51.0018  -24.9866   15.0463 H         1 UNK         0.3091 
    117 H117      -50.3095  -28.0267   16.6812 H         1 UNK         0.0702 
    118 H118      -52.1046  -28.7076   15.0784 H         1 UNK         0.0785 
    119 H119      -50.5055  -28.9949   14.4048 H         1 UNK         0.0785 
    120 H120      -51.4558  -27.6061   13.8729 H         1 UNK         0.0785 
    121 H121      -49.1784  -26.7924   14.3589 H         1 UNK         0.2998 
    122 H122      -46.6598  -24.9542   16.1702 H         1 UNK         0.0697 
    123 H123      -46.6335  -27.3653   14.2778 H         1 UNK         0.0825 
    124 H124      -45.9240  -27.3284   15.8869 H         1 UNK         0.0825 
    125 H125      -45.2775  -26.2952   14.6218 H         1 UNK         0.0825 
    126 H126      -47.2387  -25.1322   13.3760 H         1 UNK         0.3029 
    127 H127      -49.2973  -22.1848   13.2357 H         1 UNK         0.0897 
    128 H128      -46.9258  -21.4239   13.1421 H         1 UNK         0.0792 
    129 H129      -47.5847  -21.6222   11.5255 H         1 UNK         0.0792 
    130 H130      -46.4912  -22.8350   12.1887 H         1 UNK         0.0792 
    131 H131      -48.5335  -23.9387   11.1558 H         1 UNK         0.3086 
    132 H132      -51.1669  -26.3367   11.5916 H         1 UNK         0.0583 
    133 H133      -50.9584  -23.9464    9.7158 H         1 UNK         0.1020 
    134 H134      -51.1206  -25.5277    9.0247 H         1 UNK         0.1020 
    135 H135      -54.8025  -26.1293    8.9868 H         1 UNK         0.0694 
    136 H136      -53.5177  -25.5775    7.9465 H         1 UNK         0.0694 
    137 H137      -49.0886  -26.2384    9.6799 H         1 UNK         0.2989 
    138 H138      -46.7150  -28.0801   11.6400 H         1 UNK         0.1055 
    139 H139      -48.1049  -29.7357   10.4924 H         1 UNK         0.0806 
    140 H140      -46.7241  -29.3446    9.4821 H         1 UNK         0.0806 
    141 H141      -48.3198  -28.6893    9.1070 H         1 UNK         0.0806 
    142 H142      -46.6295  -26.6978    9.0825 H         1 UNK         0.3061 
    143 H143      -45.0613  -23.7852   10.4625 H         1 UNK         0.0734 
    144 H144      -43.1516  -24.4376    9.0496 H         1 UNK         0.0832 
    145 H145      -43.2256  -25.4705   10.4654 H         1 UNK         0.0832 
    146 H146      -43.7676  -26.0843    8.9126 H         1 UNK         0.0832 
    147 H147      -45.2745  -24.3339    7.7724 H         1 UNK         0.3156 
    148 H148      -47.8340  -22.0853    7.3940 H         1 UNK         0.0589 
    149 H149      -45.7693  -23.7904    5.8940 H         1 UNK         0.0808 
    150 H150      -46.5377  -22.3183    5.3250 H         1 UNK         0.0808 
    151 H151      -45.4412  -22.2504    6.6890 H         1 UNK         0.0808 
    152 H152      -48.0572  -24.7351    6.0666 H         1 UNK         0.3098 
    153 H153      -51.3945  -25.1183    6.8194 H         1 UNK         0.0720 
    154 H154      -52.0677  -25.0846    4.4410 H         1 UNK         0.0791 
    155 H155      -50.6484  -24.1220    4.0227 H         1 UNK         0.0791 
    156 H156      -51.9098  -23.4443    5.0426 H         1 UNK         0.0791 
    157 H157      -50.0078  -26.4187    4.7761 H         1 UNK         0.3028 
@<TRIPOS>BOND
     1    1    2 1    
     2    1   82 1    
     3    1   83 1    
     4    1   84 1    
     5    2    3 2    
     6    2    4 am   BACKBONE|DICT|INTERRES
     7    4    5 1    
     8    4   85 1    
     9    5    6 1    
    10    5   80 1    
    11    5   86 1    
    12    6    7 1    
    13    6   87 1    
    14    6   88 1    
    15    7    8 1    
    16    8    9 1    
    17    8   89 1    
    18    8   90 1    
    19    9   10 ar   
    20    9   14 ar   
    21   10   11 ar   
    22   10   91 1    
    23   11   12 ar   
    24   11   58 1    
    25   12   13 ar   
    26   12   92 1    
    27   13   14 ar   
    28   13   15 1    
    29   14   93 1    
    30   15   16 1    
    31   15   94 1    
    32   15   95 1    
    33   16   17 1    
    34   17   18 1    
    35   17   96 1    
    36   17   97 1    
    37   18   19 1    
    38   18   22 1    
    39   18   98 1    
    40   19   20 am   BACKBONE|DICT|INTERRES
    41   19   21 2    
    42   20   99 1    
    43   20  100 1    
    44   22   23 am   BACKBONE|DICT|INTERRES
    45   22  101 1    
    46   23   24 2    
    47   23   25 1    
    48   25   26 1    
    49   25   27 1    
    50   25  102 1    
    51   26  103 1    
    52   26  104 1    
    53   26  105 1    
    54   27   28 am   BACKBONE|DICT|INTERRES
    55   27  106 1    
    56   28   29 2    
    57   28   30 1    
    58   30   31 1    
    59   30   32 1    
    60   30  107 1    
    61   31  108 1    
    62   31  109 1    
    63   31  110 1    
    64   32   33 am   BACKBONE|DICT|INTERRES
    65   32  111 1    
    66   33   34 2    
    67   33   35 1    
    68   35   36 1    
    69   35   37 1    
    70   35  112 1    
    71   36  113 1    
    72   36  114 1    
    73   36  115 1    
    74   37   38 am   BACKBONE|DICT|INTERRES
    75   37  116 1    
    76   38   39 2    
    77   38   40 1    
    78   40   41 1    
    79   40   42 1    
    80   40  117 1    
    81   41  118 1    
    82   41  119 1    
    83   41  120 1    
    84   42   43 am   BACKBONE|DICT|INTERRES
    85   42  121 1    
    86   43   44 2    
    87   43   45 1    
    88   45   46 1    
    89   45   47 1    
    90   45  122 1    
    91   46  123 1    
    92   46  124 1    
    93   46  125 1    
    94   47   48 am   BACKBONE|DICT|INTERRES
    95   47  126 1    
    96   48   49 2    
    97   48   50 1    
    98   50   51 1    
    99   50   52 1    
   100   50  127 1    
   101   51  128 1    
   102   51  129 1    
   103   51  130 1    
   104   52   53 am   BACKBONE|DICT|INTERRES
   105   52  131 1    
   106   53   54 2    
   107   53   55 1    
   108   55   56 1    
   109   55   59 1    
   110   55  132 1    
   111   56   57 1    
   112   56  133 1    
   113   56  134 1    
   114   57   58 1    
   115   58  135 1    
   116   58  136 1    
   117   59   60 am   BACKBONE|DICT|INTERRES
   118   59  137 1    
   119   60   61 2    
   120   60   62 1    
   121   62   63 1    
   122   62   64 1    
   123   62  138 1    
   124   63  139 1    
   125   63  140 1    
   126   63  141 1    
   127   64   65 am   BACKBONE|DICT|INTERRES
   128   64  142 1    
   129   65   66 2    
   130   65   67 1    
   131   67   68 1    
   132   67   69 1    
   133   67  143 1    
   134   68  144 1    
   135   68  145 1    
   136   68  146 1    
   137   69   70 am   BACKBONE|DICT|INTERRES
   138   69  147 1    
   139   70   71 2    
   140   70   72 1    
   141   72   73 1    
   142   72   74 1    
   143   72  148 1    
   144   73  149 1    
   145   73  150 1    
   146   73  151 1    
   147   74   75 am   BACKBONE|DICT|INTERRES
   148   74  152 1    
   149   75   76 2    
   150   75   77 1    
   151   77   78 1    
   152   77   79 1    
   153   77  153 1    
   154   78  154 1    
   155   78  155 1    
   156   78  156 1    
   157   79   80 am   BACKBONE|DICT|INTERRES
   158   79  157 1    
   159   80   81 2    
@<TRIPOS>SUBSTRUCTURE
     1 UNK         1 GROUP             0       ****    0 ROOT    
