@<TRIPOS>MOLECULE
3R207
157   159    1
SMALL
USER_CHARGES


@<TRIPOS>ATOM
      1 CA        -47.7354  -28.7724    5.6885 C.3       0 UNK        -0.1975 
      2 C         -48.6396  -27.5797    5.4212 C.2       0 UNK         0.4852 
      3 O         -48.1980  -26.5958    4.8299 O.2       0 UNK        -0.5216 
      4 N         -49.8995  -27.6524    5.8746 N.am      1 UNK        -0.4461 
      5 CA        -50.9401  -26.6263    5.7178 C.3       1 UNK         0.0864 
      6 C6        -52.2643  -27.0586    6.3972 C.3       14 UNK        -0.0898 
      7 S7        -53.1133  -28.4733    5.6155 S.3       14 UNK        -0.2598 
      8 C8        -52.2723  -29.9835    6.2200 C.3       14 UNK         0.0286 
      9 C9        -51.8034  -29.9431    7.6726 C.ar      14 UNK        -0.0844 
     10 C10       -50.4477  -30.1219    7.9645 C.ar      14 UNK        -0.0881 
     11 C11       -49.9915  -30.1147    9.2842 C.ar      14 UNK        -0.0643 
     12 C12       -50.9078  -29.9570   10.3263 C.ar      14 UNK        -0.0930 
     13 C13       -52.2699  -29.7927   10.0543 C.ar      14 UNK        -0.0827 
     14 C14       -52.7122  -29.7809    8.7250 C.ar      14 UNK        -0.1249 
     15 C15       -53.2513  -29.6006   11.2010 C.3       14 UNK         0.0141 
     16 S16       -54.3319  -31.0465   11.4110 S.3       14 UNK        -0.2313 
     17 C17       -54.9216  -30.8164   13.1218 C.3       14 UNK        -0.0915 
     18 CA        -56.2272  -29.9818   13.2097 C.3       13 UNK         0.0968 
     19 C         -56.9416  -30.1785   14.5803 C.2       13 UNK         0.5732 
     20 N         -57.2512  -29.1386   15.3463 N.am      13 UNK        -0.7310 
     21 O         -57.2421  -31.3097   14.9549 O.2       13 UNK        -0.5035 
     22 N         -55.9841  -28.5720   12.8694 N.am      13 UNK        -0.4233 
     23 C         -56.8728  -27.7656   12.2760 C.2       13 UNK         0.4989 
     24 O         -57.9647  -28.1515   11.8535 O.2       13 UNK        -0.4996 
     25 CA        -56.4802  -26.2780   12.1328 C.3       12 UNK         0.0216 
     26 CB        -57.7039  -25.3571   11.9420 C.3       12 UNK        -0.1964 
     27 N         -55.6334  -25.7746   13.2224 N.am      12 UNK        -0.4276 
     28 C         -55.8930  -25.8007   14.5371 C.2       12 UNK         0.5020 
     29 O         -56.9166  -26.2733   15.0357 O.2       12 UNK        -0.5489 
     30 CA        -54.7880  -25.2438   15.4514 C.3       11 UNK         0.0294 
     31 CB        -55.3848  -24.4254   16.6096 C.3       11 UNK        -0.2019 
     32 N         -53.8888  -26.2611   16.0099 N.am      11 UNK        -0.4493 
     33 C         -53.3531  -27.3339   15.4072 C.2       11 UNK         0.4932 
     34 O         -53.6159  -27.7153   14.2654 O.2       11 UNK        -0.5029 
     35 CA        -52.2626  -28.0494   16.2150 C.3       10 UNK         0.0280 
     36 CB        -51.9330  -29.4495   15.6649 C.3       10 UNK        -0.1976 
     37 N         -51.0674  -27.2122   16.1548 N.am      10 UNK        -0.4242 
     38 C         -50.7194  -26.3004   17.0717 C.2       10 UNK         0.5072 
     39 O         -51.2889  -26.1668   18.1559 O.2       10 UNK        -0.5224 
     40 CA        -49.5836  -25.3361   16.6873 C.3       9 UNK         0.0343 
     41 CB        -48.2353  -26.0686   16.5823 C.3       9 UNK        -0.2003 
     42 N         -49.8592  -24.6300   15.4335 N.am      9 UNK        -0.4272 
     43 C         -50.8681  -23.7648   15.2372 C.2       9 UNK         0.4988 
     44 O         -51.6468  -23.4015   16.1183 O.2       9 UNK        -0.5108 
     45 CA        -51.0576  -23.2339   13.8079 C.3       8 UNK         0.0248 
     46 CB        -50.0921  -22.0741   13.5104 C.3       8 UNK        -0.2001 
     47 N         -50.8617  -24.3147   12.8416 N.am      8 UNK        -0.4140 
     48 C         -51.8453  -25.1147   12.4071 C.2       8 UNK         0.5028 
     49 O         -53.0405  -24.8997   12.6100 O.2       8 UNK        -0.5428 
     50 CA        -51.4554  -26.3678   11.6071 C.3       7 UNK         0.0264 
     51 CB        -51.9669  -26.2716   10.1663 C.3       7 UNK        -0.1988 
     52 N         -50.0173  -26.6496   11.5904 N.am      7 UNK        -0.4454 
     53 C         -49.3546  -27.2390   12.5937 C.2       7 UNK         0.5027 
     54 O         -49.8827  -27.5868   13.6479 O.2       7 UNK        -0.5083 
     55 CA        -47.8327  -27.4103   12.4234 C.3       6 UNK         0.0844 
     56 C56       -47.4685  -28.7322   11.7040 C.3       14 UNK        -0.0967 
     57 S57       -47.6955  -28.6945    9.8866 S.3       14 UNK        -0.2604 
     58 C58       -48.5099  -30.2937    9.5745 C.3       14 UNK         0.0134 
     59 N         -47.1734  -26.2499   11.8173 N.am      6 UNK        -0.4116 
     60 C         -47.2101  -24.9913   12.2720 C.2       5 UNK         0.5034 
     61 O         -47.8912  -24.6486   13.2399 O.2       5 UNK        -0.5045 
     62 CA        -46.4026  -23.9212   11.5082 C.3       5 UNK         0.0224 
     63 CB        -45.4473  -23.1628   12.4515 C.3       5 UNK        -0.1978 
     64 N         -45.6987  -24.3984   10.3033 N.am      5 UNK        -0.4737 
     65 C         -44.6697  -25.2592   10.2172 C.2       4 UNK         0.5027 
     66 O         -44.1438  -25.7835   11.1981 O.2       4 UNK        -0.5211 
     67 CA        -44.1761  -25.6495    8.8082 C.3       4 UNK         0.0297 
     68 CB        -44.0073  -27.1751    8.6822 C.3       4 UNK        -0.1993 
     69 N         -45.0903  -25.1975    7.7562 N.am      4 UNK        -0.4486 
     70 C         -44.9221  -24.1115    6.9903 C.2       3 UNK         0.4961 
     71 O         -43.9253  -23.3901    7.0241 O.2       3 UNK        -0.5105 
     72 CA        -46.0884  -23.7504    6.0499 C.3       3 UNK         0.0299 
     73 CB        -45.8683  -24.3738    4.6631 C.3       3 UNK        -0.1972 
     74 N         -47.4067  -24.1411    6.5761 N.am      3 UNK        -0.4305 
     75 C         -47.9477  -23.6127    7.6874 C.2       2 UNK         0.5006 
     76 O         -47.3747  -22.7597    8.3656 O.2       2 UNK        -0.5106 
     77 CA        -49.2980  -24.1426    8.2010 C.3       2 UNK         0.0296 
     78 CB        -50.3138  -22.9945    8.3954 C.3       2 UNK        -0.2002 
     79 N         -49.8531  -25.2690    7.4387 N.am      2 UNK        -0.4032 
     80 C         -50.5016  -25.2487    6.2635 C.2       1 UNK         0.5000 
     81 O         -50.7355  -24.2316    5.6098 O.2       1 UNK        -0.5238 
     82 H82       -47.5399  -28.8737    6.7555 H         1 UNK         0.0889 
     83 H83       -46.7788  -28.6492    5.1811 H         1 UNK         0.0889 
     84 H84       -48.1908  -29.6928    5.3245 H         1 UNK         0.0889 
     85 H85       -50.2014  -28.4817    6.3643 H         1 UNK         0.3028 
     86 H86       -51.1200  -26.5059    4.6474 H         1 UNK         0.0864 
     87 H87       -52.9807  -26.2346    6.3727 H         1 UNK         0.0720 
     88 H88       -52.1106  -27.2731    7.4513 H         1 UNK         0.0720 
     89 H89       -51.4364  -30.1944    5.5513 H         1 UNK         0.0814 
     90 H90       -52.9572  -30.8243    6.1027 H         1 UNK         0.0814 
     91 H91       -49.7398  -30.2889    7.1657 H         1 UNK         0.1469 
     92 H92       -50.5573  -29.9564   11.3491 H         1 UNK         0.1381 
     93 H93       -53.7644  -29.6522    8.5103 H         1 UNK         0.1206 
     94 H94       -53.8595  -28.7149   11.0153 H         1 UNK         0.0813 
     95 H95       -52.7128  -29.4186   12.1321 H         1 UNK         0.0813 
     96 H96       -54.1348  -30.3737   13.7327 H         1 UNK         0.0638 
     97 H97       -55.0773  -31.8198   13.5219 H         1 UNK         0.0638 
     98 H98       -56.9198  -30.3962   12.4750 H         1 UNK         0.0568 
     99 H99       -57.7207  -29.3049   16.2214 H         1 UNK         0.3450 
    100 H100      -57.0517  -28.1834   15.0627 H         1 UNK         0.3450 
    101 H101      -55.1284  -28.1712   13.2471 H         1 UNK         0.2987 
    102 H102      -55.8735  -26.2153   11.2282 H         1 UNK         0.0766 
    103 H103      -57.4018  -24.3176   11.8147 H         1 UNK         0.0798 
    104 H104      -58.3817  -25.4074   12.7950 H         1 UNK         0.0798 
    105 H105      -58.2739  -25.6371   11.0552 H         1 UNK         0.0798 
    106 H106      -54.7113  -25.4320   12.9417 H         1 UNK         0.3198 
    107 H107      -54.1718  -24.5607   14.8661 H         1 UNK         0.0843 
    108 H108      -55.9472  -25.0545   17.3008 H         1 UNK         0.0831 
    109 H109      -56.0673  -23.6606   16.2362 H         1 UNK         0.0831 
    110 H110      -54.6064  -23.9133   17.1760 H         1 UNK         0.0831 
    111 H111      -53.5490  -26.0604   16.9406 H         1 UNK         0.3133 
    112 H112      -52.6061  -28.1634   17.2453 H         1 UNK         0.0566 
    113 H113      -51.1311  -29.9184   16.2351 H         1 UNK         0.0814 
    114 H114      -52.8023  -30.1041   15.7298 H         1 UNK         0.0814 
    115 H115      -51.6226  -29.4179   14.6198 H         1 UNK         0.0814 
    116 H116      -50.5641  -27.2406   15.2680 H         1 UNK         0.3091 
    117 H117      -49.5008  -24.5874   17.4779 H         1 UNK         0.0702 
    118 H118      -47.4215  -25.3708   16.3836 H         1 UNK         0.0785 
    119 H119      -48.2357  -26.8130   15.7858 H         1 UNK         0.0785 
    120 H120      -47.9994  -26.5860   17.5131 H         1 UNK         0.0785 
    121 H121      -49.2229  -24.8118   14.6638 H         1 UNK         0.2998 
    122 H122      -52.0753  -22.8459   13.7248 H         1 UNK         0.0697 
    123 H123      -49.0481  -22.3608   13.6349 H         1 UNK         0.0825 
    124 H124      -50.2778  -21.2366   14.1840 H         1 UNK         0.0825 
    125 H125      -50.2190  -21.7048   12.4927 H         1 UNK         0.0825 
    126 H126      -49.9029  -24.5689   12.6428 H         1 UNK         0.3029 
    127 H127      -51.9594  -27.2065   12.0890 H         1 UNK         0.0897 
    128 H128      -53.0570  -26.2422   10.1377 H         1 UNK         0.0792 
    129 H129      -51.6469  -27.1356    9.5895 H         1 UNK         0.0792 
    130 H130      -51.6034  -25.3768    9.6677 H         1 UNK         0.0792 
    131 H131      -49.5049  -26.4117   10.7554 H         1 UNK         0.3086 
    132 H132      -47.4293  -27.4823   13.4357 H         1 UNK         0.0583 
    133 H133      -46.4178  -28.9603   11.8908 H         1 UNK         0.1020 
    134 H134      -48.0211  -29.5639   12.1451 H         1 UNK         0.1020 
    135 H135      -48.0161  -30.7676    8.7248 H         1 UNK         0.0694 
    136 H136      -48.3708  -30.9782   10.4120 H         1 UNK         0.0694 
    137 H137      -46.5774  -26.4469   11.0274 H         1 UNK         0.2989 
    138 H138      -47.1415  -23.2014   11.1516 H         1 UNK         0.1055 
    139 H139      -45.9965  -22.6924   13.2683 H         1 UNK         0.0806 
    140 H140      -44.9149  -22.3714   11.9240 H         1 UNK         0.0806 
    141 H141      -44.7069  -23.8245   12.9016 H         1 UNK         0.0806 
    142 H142      -46.0363  -23.9903    9.4380 H         1 UNK         0.3061 
    143 H143      -43.1949  -25.1889    8.6761 H         1 UNK         0.0734 
    144 H144      -43.6427  -27.4525    7.6931 H         1 UNK         0.0832 
    145 H145      -43.2841  -27.5531    9.4062 H         1 UNK         0.0832 
    146 H146      -44.9455  -27.7036    8.8534 H         1 UNK         0.0832 
    147 H147      -45.9399  -25.7299    7.6380 H         1 UNK         0.3156 
    148 H148      -46.0914  -22.6646    5.9325 H         1 UNK         0.0589 
    149 H149      -45.7958  -25.4607    4.7147 H         1 UNK         0.0808 
    150 H150      -46.6793  -24.1233    3.9790 H         1 UNK         0.0808 
    151 H151      -44.9424  -24.0094    4.2160 H         1 UNK         0.0808 
    152 H152      -47.9162  -24.8438    6.0509 H         1 UNK         0.3098 
    153 H153      -49.0900  -24.5490    9.1915 H         1 UNK         0.0720 
    154 H154      -51.2903  -23.3552    8.7140 H         1 UNK         0.0791 
    155 H155      -50.4563  -22.4207    7.4793 H         1 UNK         0.0791 
    156 H156      -49.9657  -22.2947    9.1564 H         1 UNK         0.0791 
    157 H157      -49.6921  -26.1815    7.8409 H         1 UNK         0.3028 
@<TRIPOS>BOND
     1    1    2 1    
     2    1   82 1    
     3    1   83 1    
     4    1   84 1    
     5    2    3 2    
     6    2    4 am   BACKBONE|DICT|INTERRES
     7    4    5 1    
     8    4   85 1    
     9    5    6 1    
    10    5   80 1    
    11    5   86 1    
    12    6    7 1    
    13    6   87 1    
    14    6   88 1    
    15    7    8 1    
    16    8    9 1    
    17    8   89 1    
    18    8   90 1    
    19    9   10 ar   
    20    9   14 ar   
    21   10   11 ar   
    22   10   91 1    
    23   11   12 ar   
    24   11   58 1    
    25   12   13 ar   
    26   12   92 1    
    27   13   14 ar   
    28   13   15 1    
    29   14   93 1    
    30   15   16 1    
    31   15   94 1    
    32   15   95 1    
    33   16   17 1    
    34   17   18 1    
    35   17   96 1    
    36   17   97 1    
    37   18   19 1    
    38   18   22 1    
    39   18   98 1    
    40   19   20 am   BACKBONE|DICT|INTERRES
    41   19   21 2    
    42   20   99 1    
    43   20  100 1    
    44   22   23 am   BACKBONE|DICT|INTERRES
    45   22  101 1    
    46   23   24 2    
    47   23   25 1    
    48   25   26 1    
    49   25   27 1    
    50   25  102 1    
    51   26  103 1    
    52   26  104 1    
    53   26  105 1    
    54   27   28 am   BACKBONE|DICT|INTERRES
    55   27  106 1    
    56   28   29 2    
    57   28   30 1    
    58   30   31 1    
    59   30   32 1    
    60   30  107 1    
    61   31  108 1    
    62   31  109 1    
    63   31  110 1    
    64   32   33 am   BACKBONE|DICT|INTERRES
    65   32  111 1    
    66   33   34 2    
    67   33   35 1    
    68   35   36 1    
    69   35   37 1    
    70   35  112 1    
    71   36  113 1    
    72   36  114 1    
    73   36  115 1    
    74   37   38 am   BACKBONE|DICT|INTERRES
    75   37  116 1    
    76   38   39 2    
    77   38   40 1    
    78   40   41 1    
    79   40   42 1    
    80   40  117 1    
    81   41  118 1    
    82   41  119 1    
    83   41  120 1    
    84   42   43 am   BACKBONE|DICT|INTERRES
    85   42  121 1    
    86   43   44 2    
    87   43   45 1    
    88   45   46 1    
    89   45   47 1    
    90   45  122 1    
    91   46  123 1    
    92   46  124 1    
    93   46  125 1    
    94   47   48 am   BACKBONE|DICT|INTERRES
    95   47  126 1    
    96   48   49 2    
    97   48   50 1    
    98   50   51 1    
    99   50   52 1    
   100   50  127 1    
   101   51  128 1    
   102   51  129 1    
   103   51  130 1    
   104   52   53 am   BACKBONE|DICT|INTERRES
   105   52  131 1    
   106   53   54 2    
   107   53   55 1    
   108   55   56 1    
   109   55   59 1    
   110   55  132 1    
   111   56   57 1    
   112   56  133 1    
   113   56  134 1    
   114   57   58 1    
   115   58  135 1    
   116   58  136 1    
   117   59   60 am   BACKBONE|DICT|INTERRES
   118   59  137 1    
   119   60   61 2    
   120   60   62 1    
   121   62   63 1    
   122   62   64 1    
   123   62  138 1    
   124   63  139 1    
   125   63  140 1    
   126   63  141 1    
   127   64   65 am   BACKBONE|DICT|INTERRES
   128   64  142 1    
   129   65   66 2    
   130   65   67 1    
   131   67   68 1    
   132   67   69 1    
   133   67  143 1    
   134   68  144 1    
   135   68  145 1    
   136   68  146 1    
   137   69   70 am   BACKBONE|DICT|INTERRES
   138   69  147 1    
   139   70   71 2    
   140   70   72 1    
   141   72   73 1    
   142   72   74 1    
   143   72  148 1    
   144   73  149 1    
   145   73  150 1    
   146   73  151 1    
   147   74   75 am   BACKBONE|DICT|INTERRES
   148   74  152 1    
   149   75   76 2    
   150   75   77 1    
   151   77   78 1    
   152   77   79 1    
   153   77  153 1    
   154   78  154 1    
   155   78  155 1    
   156   78  156 1    
   157   79   80 am   BACKBONE|DICT|INTERRES
   158   79  157 1    
   159   80   81 2    
@<TRIPOS>SUBSTRUCTURE
     1 UNK         1 GROUP             0       ****    0 ROOT    
