@<TRIPOS>MOLECULE
3R207
157   159    1
SMALL
USER_CHARGES


@<TRIPOS>ATOM
      1 CA        -45.0292  -31.5293    6.6389 C.3       0 UNK        -0.1975 
      2 C         -45.6826  -30.9808    5.3791 C.2       0 UNK         0.4852 
      3 O         -45.0297  -30.8975    4.3382 O.2       0 UNK        -0.5216 
      4 N         -46.9669  -30.6103    5.4670 N.am      1 UNK        -0.4461 
      5 CA        -47.7563  -30.0111    4.3828 C.3       1 UNK         0.0864 
      6 C6        -49.2742  -30.0230    4.7027 C.3       14 UNK        -0.0898 
      7 S7        -49.6725  -29.2460    6.3049 S.3       14 UNK        -0.2598 
      8 C8        -51.4753  -29.0571    6.1979 C.3       14 UNK         0.0286 
      9 C9        -51.9649  -28.1135    7.2848 C.ar      14 UNK        -0.0844 
     10 C10       -52.1368  -26.7558    7.0050 C.ar      14 UNK        -0.0881 
     11 C11       -52.5456  -25.8679    8.0044 C.ar      14 UNK        -0.0643 
     12 C12       -52.7925  -26.3513    9.2935 C.ar      14 UNK        -0.0930 
     13 C13       -52.6164  -27.7068    9.5875 C.ar      14 UNK        -0.0827 
     14 C14       -52.2133  -28.5856    8.5767 C.ar      14 UNK        -0.1249 
     15 C15       -52.8354  -28.2200   11.0017 C.3       14 UNK         0.0141 
     16 S16       -54.5920  -28.5639   11.3083 S.3       14 UNK        -0.2313 
     17 C17       -54.4584  -29.7337   12.6982 C.3       14 UNK        -0.0915 
     18 CA        -55.7964  -29.8759   13.4715 C.3       13 UNK         0.0968 
     19 C         -55.8128  -31.1346   14.3925 C.2       13 UNK         0.5732 
     20 N         -56.3156  -31.0737   15.6202 N.am      13 UNK        -0.7310 
     21 O         -55.3714  -32.2053   13.9817 O.2       13 UNK        -0.5035 
     22 N         -56.1445  -28.6254   14.1640 N.am      13 UNK        -0.4233 
     23 C         -57.3887  -28.1967   14.3997 C.2       13 UNK         0.4989 
     24 O         -58.4005  -28.7479   13.9610 O.2       13 UNK        -0.4996 
     25 CA        -57.5085  -26.9768   15.3361 C.3       12 UNK         0.0216 
     26 CB        -58.9652  -26.5026   15.5240 C.3       12 UNK        -0.1964 
     27 N         -56.8760  -27.2207   16.6417 N.am      12 UNK        -0.4276 
     28 C         -57.1143  -28.2347   17.4890 C.2       12 UNK         0.5020 
     29 O         -57.9533  -29.1144   17.2902 O.2       12 UNK        -0.5489 
     30 CA        -56.1980  -28.3234   18.7245 C.3       11 UNK         0.0294 
     31 CB        -56.5829  -29.4757   19.6717 C.3       11 UNK        -0.2019 
     32 N         -54.8089  -28.5030   18.2976 N.am      11 UNK        -0.4493 
     33 C         -53.9992  -27.5070   17.9213 C.2       11 UNK         0.4932 
     34 O         -54.3094  -26.3178   18.0311 O.2       11 UNK        -0.5029 
     35 CA        -52.6458  -27.8927   17.2880 C.3       10 UNK         0.0280 
     36 CB        -52.6345  -29.3032   16.6532 C.3       10 UNK        -0.1976 
     37 N         -52.2093  -26.8872   16.3133 N.am      10 UNK        -0.4242 
     38 C         -52.8525  -26.4899   15.2067 C.2       10 UNK         0.5072 
     39 O         -53.8944  -27.0083   14.7999 O.2       10 UNK        -0.5224 
     40 CA        -52.2618  -25.3011   14.4232 C.3       9 UNK         0.0343 
     41 CB        -52.8859  -23.9781   14.9048 C.3       9 UNK        -0.2003 
     42 N         -50.7930  -25.2084   14.3878 N.am      9 UNK        -0.4272 
     43 C         -49.9213  -25.0070   15.3884 C.2       9 UNK         0.4988 
     44 O         -50.2378  -24.9268   16.5759 O.2       9 UNK        -0.5108 
     45 CA        -48.4381  -24.8864   14.9995 C.3       8 UNK         0.0248 
     46 CB        -47.8508  -26.2638   14.6505 C.3       8 UNK        -0.2001 
     47 N         -48.2213  -23.9540   13.8906 N.am      8 UNK        -0.4140 
     48 C         -48.4149  -22.6281   13.9651 C.2       8 UNK         0.5028 
     49 O         -48.7185  -22.0346   15.0010 O.2       8 UNK        -0.5428 
     50 CA        -48.2600  -21.8238   12.6623 C.3       7 UNK         0.0264 
     51 CB        -46.7826  -21.5040   12.3840 C.3       7 UNK        -0.1988 
     52 N         -48.8436  -22.5061   11.5062 N.am      7 UNK        -0.4454 
     53 C         -50.1528  -22.7536   11.3473 C.2       7 UNK         0.5027 
     54 O         -51.0260  -22.3554   12.1181 O.2       7 UNK        -0.5083 
     55 CA        -50.5530  -23.6084   10.1302 C.3       6 UNK         0.0844 
     56 C56       -50.7603  -22.7092    8.8855 C.3       14 UNK        -0.0967 
     57 S57       -51.1047  -23.6054    7.3347 S.3       14 UNK        -0.2604 
     58 C58       -52.7128  -24.3917    7.6743 C.3       14 UNK         0.0134 
     59 N         -49.6050  -24.7050    9.9127 N.am      6 UNK        -0.4116 
     60 C         -49.4414  -25.7456   10.7427 C.2       5 UNK         0.5034 
     61 O         -50.1081  -25.9238   11.7610 O.2       5 UNK        -0.5045 
     62 CA        -48.3066  -26.7268   10.4152 C.3       5 UNK         0.0224 
     63 CB        -48.7912  -27.8022    9.4362 C.3       5 UNK        -0.1978 
     64 N         -47.1340  -26.0451    9.8644 N.am      5 UNK        -0.4737 
     65 C         -46.3273  -25.2536   10.5876 C.2       4 UNK         0.5027 
     66 O         -46.4612  -25.0753   11.7977 O.2       4 UNK        -0.5211 
     67 CA        -45.2228  -24.4900    9.8324 C.3       4 UNK         0.0297 
     68 CB        -43.9372  -25.3288    9.7699 C.3       4 UNK        -0.1993 
     69 N         -45.6180  -24.1000    8.4762 N.am      4 UNK        -0.4486 
     70 C         -46.6631  -23.3144    8.1821 C.2       3 UNK         0.4961 
     71 O         -47.3319  -22.7327    9.0363 O.2       3 UNK        -0.5105 
     72 CA        -47.0714  -23.1880    6.7018 C.3       3 UNK         0.0299 
     73 CB        -46.6232  -21.8284    6.1430 C.3       3 UNK        -0.1972 
     74 N         -46.5965  -24.2574    5.8107 N.am      3 UNK        -0.4305 
     75 C         -46.8180  -25.5726    5.9545 C.2       2 UNK         0.5006 
     76 O         -47.3789  -26.0762    6.9309 O.2       2 UNK        -0.5106 
     77 CA        -46.2724  -26.4716    4.8379 C.3       2 UNK         0.0296 
     78 CB        -44.7360  -26.5542    4.8960 C.3       2 UNK        -0.2002 
     79 N         -46.8224  -27.8164    4.9824 N.am      2 UNK        -0.4032 
     80 C         -47.2546  -28.6025    3.9882 C.2       1 UNK         0.5000 
     81 O         -47.2466  -28.2738    2.7998 O.2       1 UNK        -0.5238 
     82 H82       -45.7206  -31.5503    7.4813 H         1 UNK         0.0889 
     83 H83       -44.1750  -30.9125    6.9168 H         1 UNK         0.0889 
     84 H84       -44.6748  -32.5451    6.4660 H         1 UNK         0.0889 
     85 H85       -47.4558  -30.7053    6.3465 H         1 UNK         0.3028 
     86 H86       -47.6109  -30.6409    3.5023 H         1 UNK         0.0864 
     87 H87       -49.8382  -29.5310    3.9077 H         1 UNK         0.0720 
     88 H88       -49.6342  -31.0527    4.7304 H         1 UNK         0.0720 
     89 H89       -51.7501  -28.6732    5.2142 H         1 UNK         0.0814 
     90 H90       -51.9527  -30.0330    6.2975 H         1 UNK         0.0814 
     91 H91       -51.9323  -26.3813    6.0112 H         1 UNK         0.1469 
     92 H92       -53.1132  -25.6767   10.0746 H         1 UNK         0.1381 
     93 H93       -52.0686  -29.6339    8.7998 H         1 UNK         0.1206 
     94 H94       -52.2492  -29.1263   11.1613 H         1 UNK         0.0813 
     95 H95       -52.4764  -27.4907   11.7297 H         1 UNK         0.0813 
     96 H96       -53.6603  -29.4142   13.3706 H         1 UNK         0.0638 
     97 H97       -54.1418  -30.6886   12.2749 H         1 UNK         0.0638 
     98 H98       -56.5705  -30.0769   12.7287 H         1 UNK         0.0568 
     99 H99       -56.7824  -30.2427   15.9595 H         1 UNK         0.3450 
    100 H100      -56.3200  -31.9106   16.1805 H         1 UNK         0.3450 
    101 H101      -55.3576  -28.0850   14.5195 H         1 UNK         0.2987 
    102 H102      -56.9514  -26.1661   14.8634 H         1 UNK         0.0766 
    103 H103      -59.4210  -26.2529   14.5651 H         1 UNK         0.0798 
    104 H104      -59.0140  -25.6102   16.1479 H         1 UNK         0.0798 
    105 H105      -59.5850  -27.2703   15.9889 H         1 UNK         0.0798 
    106 H106      -56.1133  -26.5968   16.8851 H         1 UNK         0.3198 
    107 H107      -56.2995  -27.3881   19.2798 H         1 UNK         0.0843 
    108 H108      -57.6113  -29.3669   20.0191 H         1 UNK         0.0831 
    109 H109      -55.9443  -29.4927   20.5551 H         1 UNK         0.0831 
    110 H110      -56.5054  -30.4476   19.1827 H         1 UNK         0.0831 
    111 H111      -54.5007  -29.4540   18.1532 H         1 UNK         0.3133 
    112 H112      -51.9097  -27.8772   18.0926 H         1 UNK         0.0566 
    113 H113      -51.6939  -29.4927   16.1358 H         1 UNK         0.0814 
    114 H114      -52.7393  -30.0825   17.4085 H         1 UNK         0.0814 
    115 H115      -53.4394  -29.4326   15.9288 H         1 UNK         0.0814 
    116 H116      -51.4141  -26.3152   16.5905 H         1 UNK         0.3091 
    117 H117      -52.5620  -25.4434   13.3837 H         1 UNK         0.0702 
    118 H118      -52.6365  -23.7659   15.9449 H         1 UNK         0.0785 
    119 H119      -53.9739  -24.0124   14.8331 H         1 UNK         0.0785 
    120 H120      -52.5467  -23.1371   14.3000 H         1 UNK         0.0785 
    121 H121      -50.4045  -25.3413   13.4550 H         1 UNK         0.2998 
    122 H122      -47.8978  -24.5017   15.8671 H         1 UNK         0.0697 
    123 H123      -48.3332  -26.7025   13.7769 H         1 UNK         0.0825 
    124 H124      -47.9767  -26.9629   15.4783 H         1 UNK         0.0825 
    125 H125      -46.7828  -26.1970   14.4421 H         1 UNK         0.0825 
    126 H126      -47.8821  -24.3487   13.0185 H         1 UNK         0.3029 
    127 H127      -48.7929  -20.8792   12.7919 H         1 UNK         0.0897 
    128 H128      -46.6690  -20.9053   11.4799 H         1 UNK         0.0792 
    129 H129      -46.3464  -20.9364   13.2071 H         1 UNK         0.0792 
    130 H130      -46.1876  -22.4090   12.2626 H         1 UNK         0.0792 
    131 H131      -48.2059  -22.7945   10.7684 H         1 UNK         0.3086 
    132 H132      -51.5144  -24.0593   10.3756 H         1 UNK         0.0583 
    133 H133      -51.5778  -22.0072    9.0617 H         1 UNK         0.1020 
    134 H134      -49.8779  -22.0920    8.7072 H         1 UNK         0.1020 
    135 H135      -53.2328  -23.8635    8.4749 H         1 UNK         0.0694 
    136 H136      -53.3422  -24.2967    6.7884 H         1 UNK         0.0694 
    137 H137      -49.0127  -24.6329    9.0986 H         1 UNK         0.2989 
    138 H138      -48.0103  -27.2202   11.3434 H         1 UNK         0.1055 
    139 H139      -49.5958  -28.3924    9.8756 H         1 UNK         0.0806 
    140 H140      -47.9918  -28.4916    9.1654 H         1 UNK         0.0806 
    141 H141      -49.1798  -27.3586    8.5187 H         1 UNK         0.0806 
    142 H142      -47.0055  -26.1029    8.8573 H         1 UNK         0.3061 
    143 H143      -45.0109  -23.5764   10.3913 H         1 UNK         0.0734 
    144 H144      -43.6109  -25.6146   10.7710 H         1 UNK         0.0832 
    145 H145      -44.0806  -26.2477    9.1997 H         1 UNK         0.0832 
    146 H146      -43.1199  -24.7714    9.3120 H         1 UNK         0.0832 
    147 H147      -45.1251  -24.5370    7.7118 H         1 UNK         0.3156 
    148 H148      -48.1618  -23.2189    6.6762 H         1 UNK         0.0589 
    149 H149      -45.5363  -21.7472    6.1023 H         1 UNK         0.0808 
    150 H150      -47.0124  -21.6625    5.1382 H         1 UNK         0.0808 
    151 H151      -46.9878  -21.0101    6.7661 H         1 UNK         0.0808 
    152 H152      -46.1037  -23.9507    4.9838 H         1 UNK         0.3098 
    153 H153      -46.5805  -26.0417    3.8824 H         1 UNK         0.0720 
    154 H154      -44.3475  -27.2024    4.1100 H         1 UNK         0.0791 
    155 H155      -44.3898  -26.9493    5.8521 H         1 UNK         0.0791 
    156 H156      -44.2771  -25.5744    4.7593 H         1 UNK         0.0791 
    157 H157      -46.9698  -28.1164    5.9373 H         1 UNK         0.3028 
@<TRIPOS>BOND
     1    1    2 1    
     2    1   82 1    
     3    1   83 1    
     4    1   84 1    
     5    2    3 2    
     6    2    4 am   BACKBONE|DICT|INTERRES
     7    4    5 1    
     8    4   85 1    
     9    5    6 1    
    10    5   80 1    
    11    5   86 1    
    12    6    7 1    
    13    6   87 1    
    14    6   88 1    
    15    7    8 1    
    16    8    9 1    
    17    8   89 1    
    18    8   90 1    
    19    9   10 ar   
    20    9   14 ar   
    21   10   11 ar   
    22   10   91 1    
    23   11   12 ar   
    24   11   58 1    
    25   12   13 ar   
    26   12   92 1    
    27   13   14 ar   
    28   13   15 1    
    29   14   93 1    
    30   15   16 1    
    31   15   94 1    
    32   15   95 1    
    33   16   17 1    
    34   17   18 1    
    35   17   96 1    
    36   17   97 1    
    37   18   19 1    
    38   18   22 1    
    39   18   98 1    
    40   19   20 am   BACKBONE|DICT|INTERRES
    41   19   21 2    
    42   20   99 1    
    43   20  100 1    
    44   22   23 am   BACKBONE|DICT|INTERRES
    45   22  101 1    
    46   23   24 2    
    47   23   25 1    
    48   25   26 1    
    49   25   27 1    
    50   25  102 1    
    51   26  103 1    
    52   26  104 1    
    53   26  105 1    
    54   27   28 am   BACKBONE|DICT|INTERRES
    55   27  106 1    
    56   28   29 2    
    57   28   30 1    
    58   30   31 1    
    59   30   32 1    
    60   30  107 1    
    61   31  108 1    
    62   31  109 1    
    63   31  110 1    
    64   32   33 am   BACKBONE|DICT|INTERRES
    65   32  111 1    
    66   33   34 2    
    67   33   35 1    
    68   35   36 1    
    69   35   37 1    
    70   35  112 1    
    71   36  113 1    
    72   36  114 1    
    73   36  115 1    
    74   37   38 am   BACKBONE|DICT|INTERRES
    75   37  116 1    
    76   38   39 2    
    77   38   40 1    
    78   40   41 1    
    79   40   42 1    
    80   40  117 1    
    81   41  118 1    
    82   41  119 1    
    83   41  120 1    
    84   42   43 am   BACKBONE|DICT|INTERRES
    85   42  121 1    
    86   43   44 2    
    87   43   45 1    
    88   45   46 1    
    89   45   47 1    
    90   45  122 1    
    91   46  123 1    
    92   46  124 1    
    93   46  125 1    
    94   47   48 am   BACKBONE|DICT|INTERRES
    95   47  126 1    
    96   48   49 2    
    97   48   50 1    
    98   50   51 1    
    99   50   52 1    
   100   50  127 1    
   101   51  128 1    
   102   51  129 1    
   103   51  130 1    
   104   52   53 am   BACKBONE|DICT|INTERRES
   105   52  131 1    
   106   53   54 2    
   107   53   55 1    
   108   55   56 1    
   109   55   59 1    
   110   55  132 1    
   111   56   57 1    
   112   56  133 1    
   113   56  134 1    
   114   57   58 1    
   115   58  135 1    
   116   58  136 1    
   117   59   60 am   BACKBONE|DICT|INTERRES
   118   59  137 1    
   119   60   61 2    
   120   60   62 1    
   121   62   63 1    
   122   62   64 1    
   123   62  138 1    
   124   63  139 1    
   125   63  140 1    
   126   63  141 1    
   127   64   65 am   BACKBONE|DICT|INTERRES
   128   64  142 1    
   129   65   66 2    
   130   65   67 1    
   131   67   68 1    
   132   67   69 1    
   133   67  143 1    
   134   68  144 1    
   135   68  145 1    
   136   68  146 1    
   137   69   70 am   BACKBONE|DICT|INTERRES
   138   69  147 1    
   139   70   71 2    
   140   70   72 1    
   141   72   73 1    
   142   72   74 1    
   143   72  148 1    
   144   73  149 1    
   145   73  150 1    
   146   73  151 1    
   147   74   75 am   BACKBONE|DICT|INTERRES
   148   74  152 1    
   149   75   76 2    
   150   75   77 1    
   151   77   78 1    
   152   77   79 1    
   153   77  153 1    
   154   78  154 1    
   155   78  155 1    
   156   78  156 1    
   157   79   80 am   BACKBONE|DICT|INTERRES
   158   79  157 1    
   159   80   81 2    
@<TRIPOS>SUBSTRUCTURE
     1 UNK         1 GROUP             0       ****    0 ROOT    
