@<TRIPOS>MOLECULE
3R207
157   159    1
SMALL
USER_CHARGES


@<TRIPOS>ATOM
      1 CA        -48.1772  -33.7437    6.3292 C.3       0 UNK        -0.1975 
      2 C         -48.7321  -32.3270    6.3547 C.2       0 UNK         0.4852 
      3 O         -49.8783  -32.1124    5.9574 O.2       0 UNK        -0.5216 
      4 N         -47.9311  -31.3632    6.8262 N.am      1 UNK        -0.4461 
      5 CA        -48.2757  -29.9396    6.8913 C.3       1 UNK         0.0864 
      6 C6        -47.2500  -29.1359    7.7291 C.3       14 UNK        -0.0898 
      7 S7        -47.1815  -29.6936    9.4625 S.3       14 UNK        -0.2598 
      8 C8        -48.0620  -28.3464   10.3114 C.3       14 UNK         0.0286 
      9 C9        -49.5392  -28.3039    9.9482 C.ar      14 UNK        -0.0844 
     10 C10       -50.0377  -27.2919    9.1226 C.ar      14 UNK        -0.0881 
     11 C11       -51.4120  -27.1857    8.8790 C.ar      14 UNK        -0.0643 
     12 C12       -52.2779  -28.1488    9.4066 C.ar      14 UNK        -0.0930 
     13 C13       -51.7868  -29.1847   10.2050 C.ar      14 UNK        -0.0827 
     14 C14       -50.4181  -29.2509   10.4800 C.ar      14 UNK        -0.1249 
     15 C15       -52.7286  -30.2329   10.7767 C.3       14 UNK         0.0141 
     16 S16       -53.4199  -29.7103   12.3776 S.3       14 UNK        -0.2313 
     17 C17       -55.0348  -28.9987   11.9191 C.3       14 UNK        -0.0915 
     18 CA        -55.0806  -27.4473   11.9120 C.3       13 UNK         0.0968 
     19 C         -56.4748  -26.9714   11.4028 C.2       13 UNK         0.5732 
     20 N         -57.3515  -26.4328   12.2449 N.am      13 UNK        -0.7310 
     21 O         -56.7643  -27.0955   10.2152 O.2       13 UNK        -0.5035 
     22 N         -54.6763  -26.8629   13.2013 N.am      13 UNK        -0.4233 
     23 C         -54.4682  -25.5503   13.3953 C.2       13 UNK         0.4989 
     24 O         -54.4484  -24.7281   12.4769 O.2       13 UNK        -0.4996 
     25 CA        -54.2794  -25.0558   14.8471 C.3       12 UNK         0.0216 
     26 CB        -54.7814  -23.6094   15.0473 C.3       12 UNK        -0.1964 
     27 N         -54.8564  -25.9446   15.8603 N.am      12 UNK        -0.4276 
     28 C         -56.1346  -26.3435   15.9672 C.2       12 UNK         0.5020 
     29 O         -57.0347  -25.9562   15.2186 O.2       12 UNK        -0.5489 
     30 CA        -56.4474  -27.3837   17.0663 C.3       11 UNK         0.0294 
     31 CB        -57.6527  -28.2764   16.7003 C.3       11 UNK        -0.2019 
     32 N         -55.2898  -28.2113   17.4435 N.am      11 UNK        -0.4493 
     33 C         -54.5562  -28.9813   16.6264 C.2       11 UNK         0.4932 
     34 O         -54.7898  -29.1348   15.4269 O.2       11 UNK        -0.5029 
     35 CA        -53.3265  -29.6580   17.2535 C.3       10 UNK         0.0280 
     36 CB        -53.5344  -31.1784   17.3425 C.3       10 UNK        -0.1976 
     37 N         -52.0966  -29.3781   16.5056 N.am      10 UNK        -0.4242 
     38 C         -51.5934  -28.1610   16.2518 C.2       10 UNK         0.5072 
     39 O         -52.1190  -27.1082   16.6276 O.2       10 UNK        -0.5224 
     40 CA        -50.2821  -28.1389   15.4465 C.3       9 UNK         0.0343 
     41 CB        -50.5177  -28.5421   13.9829 C.3       9 UNK        -0.2003 
     42 N         -49.6629  -26.8145   15.4640 N.am      9 UNK        -0.4272 
     43 C         -48.7496  -26.4108   16.3580 C.2       9 UNK         0.4988 
     44 O         -48.3382  -27.1219   17.2767 O.2       9 UNK        -0.5108 
     45 CA        -48.1578  -24.9965   16.2015 C.3       8 UNK         0.0248 
     46 CB        -46.7096  -25.0760   15.6891 C.3       8 UNK        -0.2001 
     47 N         -48.9358  -24.1429   15.3013 N.am      8 UNK        -0.4140 
     48 C         -50.0280  -23.4592   15.6732 C.2       8 UNK         0.5028 
     49 O         -50.4406  -23.4157   16.8328 O.2       8 UNK        -0.5428 
     50 CA        -50.8035  -22.6896   14.5844 C.3       7 UNK         0.0264 
     51 CB        -50.4882  -21.1869   14.6616 C.3       7 UNK        -0.1988 
     52 N         -50.5801  -23.1523   13.2104 N.am      7 UNK        -0.4454 
     53 C         -50.8335  -24.3886   12.7568 C.2       7 UNK         0.5027 
     54 O         -51.2468  -25.3019   13.4666 O.2       7 UNK        -0.5083 
     55 CA        -50.5006  -24.6737   11.2817 C.3       6 UNK         0.0844 
     56 C56       -51.7122  -24.3334   10.3693 C.3       14 UNK        -0.0967 
     57 S57       -51.3359  -24.3944    8.5799 S.3       14 UNK        -0.2604 
     58 C58       -51.9777  -26.0253    8.0674 C.3       14 UNK         0.0134 
     59 N         -49.2476  -24.0551   10.8269 N.am      6 UNK        -0.4116 
     60 C         -48.0373  -24.1729   11.3971 C.2       5 UNK         0.5034 
     61 O         -47.8462  -24.7150   12.4861 O.2       5 UNK        -0.5045 
     62 CA        -46.8335  -23.6008   10.6255 C.3       5 UNK         0.0224 
     63 CB        -45.6858  -24.6237   10.5440 C.3       5 UNK        -0.1978 
     64 N         -47.2050  -23.2048    9.2652 N.am      5 UNK        -0.4737 
     65 C         -47.0777  -21.9902    8.7267 C.2       4 UNK         0.5027 
     66 O         -46.5530  -21.0411    9.3111 O.2       4 UNK        -0.5211 
     67 CA        -47.6538  -21.8060    7.3035 C.3       4 UNK         0.0297 
     68 CB        -47.3393  -20.4161    6.7177 C.3       4 UNK        -0.1993 
     69 N         -47.2435  -22.8300    6.3312 N.am      4 UNK        -0.4486 
     70 C         -47.6423  -24.1079    6.3079 C.2       3 UNK         0.4961 
     71 O         -48.3188  -24.6366    7.1947 O.2       3 UNK        -0.5105 
     72 CA        -47.2100  -24.9479    5.1027 C.3       3 UNK         0.0299 
     73 CB        -45.8003  -25.5291    5.3062 C.3       3 UNK        -0.1972 
     74 N         -48.1760  -26.0313    4.9797 N.am      3 UNK        -0.4305 
     75 C         -48.5688  -26.6424    3.8580 C.2       2 UNK         0.5006 
     76 O         -48.1171  -26.3851    2.7404 O.2       2 UNK        -0.5106 
     77 CA        -49.6556  -27.7244    4.0369 C.3       2 UNK         0.0296 
     78 CB        -49.8563  -28.6015    2.7817 C.3       2 UNK        -0.2002 
     79 N         -49.4299  -28.5471    5.2356 N.am      2 UNK        -0.4032 
     80 C         -48.3701  -29.3352    5.4776 C.2       1 UNK         0.5000 
     81 O         -47.4634  -29.5534    4.6690 O.2       1 UNK        -0.5238 
     82 H82       -48.8021  -34.4022    6.9319 H         1 UNK         0.0889 
     83 H83       -47.1606  -33.7907    6.7193 H         1 UNK         0.0889 
     84 H84       -48.1664  -34.1237    5.3080 H         1 UNK         0.0889 
     85 H85       -46.9979  -31.5960    7.1334 H         1 UNK         0.3028 
     86 H86       -49.2535  -29.8582    7.3723 H         1 UNK         0.0864 
     87 H87       -47.4797  -28.0687    7.7071 H         1 UNK         0.0720 
     88 H88       -46.2485  -29.2322    7.3047 H         1 UNK         0.0720 
     89 H89       -47.5785  -27.3947   10.0869 H         1 UNK         0.0814 
     90 H90       -47.9627  -28.4858   11.3888 H         1 UNK         0.0814 
     91 H91       -49.3658  -26.5468    8.7192 H         1 UNK         0.1469 
     92 H92       -53.3391  -28.0873    9.2083 H         1 UNK         0.1381 
     93 H93       -50.0348  -30.0363   11.1170 H         1 UNK         0.1206 
     94 H94       -52.1860  -31.1674   10.9270 H         1 UNK         0.0813 
     95 H95       -53.5221  -30.4636   10.0652 H         1 UNK         0.0813 
     96 H96       -55.7673  -29.3845   12.6308 H         1 UNK         0.0638 
     97 H97       -55.3310  -29.3953   10.9467 H         1 UNK         0.0638 
     98 H98       -54.3555  -27.0998   11.1751 H         1 UNK         0.0568 
     99 H99       -58.2457  -26.1306   11.8938 H         1 UNK         0.3450 
    100 H100      -57.1319  -26.3139   13.2287 H         1 UNK         0.3450 
    101 H101      -54.6714  -27.4958   13.9927 H         1 UNK         0.2987 
    102 H102      -53.2070  -25.0590   15.0367 H         1 UNK         0.0766 
    103 H103      -54.2728  -22.9179   14.3748 H         1 UNK         0.0798 
    104 H104      -54.5970  -23.2634   16.0642 H         1 UNK         0.0798 
    105 H105      -55.8504  -23.5227   14.8506 H         1 UNK         0.0798 
    106 H106      -54.1732  -26.3717   16.4775 H         1 UNK         0.3198 
    107 H107      -56.7178  -26.8090   17.9535 H         1 UNK         0.0843 
    108 H108      -57.4799  -28.8297   15.7765 H         1 UNK         0.0831 
    109 H109      -58.5538  -27.6790   16.5560 H         1 UNK         0.0831 
    110 H110      -57.8677  -28.9975   17.4887 H         1 UNK         0.0831 
    111 H111      -55.0018  -28.1384   18.4105 H         1 UNK         0.3133 
    112 H112      -53.1857  -29.2724   18.2652 H         1 UNK         0.0566 
    113 H113      -52.6978  -31.6676   17.8416 H         1 UNK         0.0814 
    114 H114      -53.6474  -31.6274   16.3544 H         1 UNK         0.0814 
    115 H115      -54.4339  -31.4164   17.9120 H         1 UNK         0.0814 
    116 H116      -51.6165  -30.1807   16.1262 H         1 UNK         0.3091 
    117 H117      -49.5976  -28.8643   15.8914 H         1 UNK         0.0702 
    118 H118      -51.2807  -27.9231   13.5096 H         1 UNK         0.0785 
    119 H119      -50.8459  -29.5788   13.9078 H         1 UNK         0.0785 
    120 H120      -49.6058  -28.4520   13.3929 H         1 UNK         0.0785 
    121 H121      -50.0317  -26.1499   14.7909 H         1 UNK         0.2998 
    122 H122      -48.1363  -24.5399   17.1934 H         1 UNK         0.0697 
    123 H123      -46.6507  -25.5713   14.7192 H         1 UNK         0.0825 
    124 H124      -46.0824  -25.6413   16.3797 H         1 UNK         0.0825 
    125 H125      -46.2673  -24.0849   15.5878 H         1 UNK         0.0825 
    126 H126      -48.6663  -24.1559   14.3228 H         1 UNK         0.3029 
    127 H127      -51.8640  -22.8260   14.8022 H         1 UNK         0.0897 
    128 H128      -49.4441  -20.9812   14.4219 H         1 UNK         0.0792 
    129 H129      -50.6743  -20.7993   15.6645 H         1 UNK         0.0792 
    130 H130      -51.1119  -20.6130   13.9759 H         1 UNK         0.0792 
    131 H131      -50.2090  -22.4746   12.5602 H         1 UNK         0.3086 
    132 H132      -50.3359  -25.7492   11.2305 H         1 UNK         0.0583 
    133 H133      -52.5433  -25.0084   10.5832 H         1 UNK         0.1020 
    134 H134      -52.0838  -23.3293   10.5836 H         1 UNK         0.1020 
    135 H135      -53.0665  -26.0011    8.1353 H         1 UNK         0.0694 
    136 H136      -51.7360  -26.1809    7.0154 H         1 UNK         0.0694 
    137 H137      -49.3038  -23.5922    9.9313 H         1 UNK         0.2989 
    138 H138      -46.4865  -22.7347   11.1931 H         1 UNK         0.1055 
    139 H139      -45.9813  -25.5192    9.9968 H         1 UNK         0.0806 
    140 H140      -45.3627  -24.9372   11.5378 H         1 UNK         0.0806 
    141 H141      -44.8158  -24.1992   10.0429 H         1 UNK         0.0806 
    142 H142      -47.6322  -23.9198    8.6756 H         1 UNK         0.3061 
    143 H143      -48.7390  -21.8741    7.4078 H         1 UNK         0.0734 
    144 H144      -46.2667  -20.2676    6.5868 H         1 UNK         0.0832 
    145 H145      -47.8204  -20.2728    5.7500 H         1 UNK         0.0832 
    146 H146      -47.7008  -19.6221    7.3728 H         1 UNK         0.0832 
    147 H147      -46.6461  -22.5086    5.5826 H         1 UNK         0.3156 
    148 H148      -47.2354  -24.3246    4.2064 H         1 UNK         0.0589 
    149 H149      -45.5032  -26.1500    4.4608 H         1 UNK         0.0808 
    150 H150      -45.0579  -24.7361    5.4031 H         1 UNK         0.0808 
    151 H151      -45.7442  -26.1430    6.2063 H         1 UNK         0.0808 
    152 H152      -48.6485  -26.2383    5.8509 H         1 UNK         0.3098 
    153 H153      -50.5889  -27.1860    4.2088 H         1 UNK         0.0720 
    154 H154      -48.9414  -29.1218    2.4969 H         1 UNK         0.0791 
    155 H155      -50.1619  -27.9955    1.9280 H         1 UNK         0.0791 
    156 H156      -50.6320  -29.3504    2.9411 H         1 UNK         0.0791 
    157 H157      -50.1255  -28.4523    5.9629 H         1 UNK         0.3028 
@<TRIPOS>BOND
     1    1    2 1    
     2    1   82 1    
     3    1   83 1    
     4    1   84 1    
     5    2    3 2    
     6    2    4 am   BACKBONE|DICT|INTERRES
     7    4    5 1    
     8    4   85 1    
     9    5    6 1    
    10    5   80 1    
    11    5   86 1    
    12    6    7 1    
    13    6   87 1    
    14    6   88 1    
    15    7    8 1    
    16    8    9 1    
    17    8   89 1    
    18    8   90 1    
    19    9   10 ar   
    20    9   14 ar   
    21   10   11 ar   
    22   10   91 1    
    23   11   12 ar   
    24   11   58 1    
    25   12   13 ar   
    26   12   92 1    
    27   13   14 ar   
    28   13   15 1    
    29   14   93 1    
    30   15   16 1    
    31   15   94 1    
    32   15   95 1    
    33   16   17 1    
    34   17   18 1    
    35   17   96 1    
    36   17   97 1    
    37   18   19 1    
    38   18   22 1    
    39   18   98 1    
    40   19   20 am   BACKBONE|DICT|INTERRES
    41   19   21 2    
    42   20   99 1    
    43   20  100 1    
    44   22   23 am   BACKBONE|DICT|INTERRES
    45   22  101 1    
    46   23   24 2    
    47   23   25 1    
    48   25   26 1    
    49   25   27 1    
    50   25  102 1    
    51   26  103 1    
    52   26  104 1    
    53   26  105 1    
    54   27   28 am   BACKBONE|DICT|INTERRES
    55   27  106 1    
    56   28   29 2    
    57   28   30 1    
    58   30   31 1    
    59   30   32 1    
    60   30  107 1    
    61   31  108 1    
    62   31  109 1    
    63   31  110 1    
    64   32   33 am   BACKBONE|DICT|INTERRES
    65   32  111 1    
    66   33   34 2    
    67   33   35 1    
    68   35   36 1    
    69   35   37 1    
    70   35  112 1    
    71   36  113 1    
    72   36  114 1    
    73   36  115 1    
    74   37   38 am   BACKBONE|DICT|INTERRES
    75   37  116 1    
    76   38   39 2    
    77   38   40 1    
    78   40   41 1    
    79   40   42 1    
    80   40  117 1    
    81   41  118 1    
    82   41  119 1    
    83   41  120 1    
    84   42   43 am   BACKBONE|DICT|INTERRES
    85   42  121 1    
    86   43   44 2    
    87   43   45 1    
    88   45   46 1    
    89   45   47 1    
    90   45  122 1    
    91   46  123 1    
    92   46  124 1    
    93   46  125 1    
    94   47   48 am   BACKBONE|DICT|INTERRES
    95   47  126 1    
    96   48   49 2    
    97   48   50 1    
    98   50   51 1    
    99   50   52 1    
   100   50  127 1    
   101   51  128 1    
   102   51  129 1    
   103   51  130 1    
   104   52   53 am   BACKBONE|DICT|INTERRES
   105   52  131 1    
   106   53   54 2    
   107   53   55 1    
   108   55   56 1    
   109   55   59 1    
   110   55  132 1    
   111   56   57 1    
   112   56  133 1    
   113   56  134 1    
   114   57   58 1    
   115   58  135 1    
   116   58  136 1    
   117   59   60 am   BACKBONE|DICT|INTERRES
   118   59  137 1    
   119   60   61 2    
   120   60   62 1    
   121   62   63 1    
   122   62   64 1    
   123   62  138 1    
   124   63  139 1    
   125   63  140 1    
   126   63  141 1    
   127   64   65 am   BACKBONE|DICT|INTERRES
   128   64  142 1    
   129   65   66 2    
   130   65   67 1    
   131   67   68 1    
   132   67   69 1    
   133   67  143 1    
   134   68  144 1    
   135   68  145 1    
   136   68  146 1    
   137   69   70 am   BACKBONE|DICT|INTERRES
   138   69  147 1    
   139   70   71 2    
   140   70   72 1    
   141   72   73 1    
   142   72   74 1    
   143   72  148 1    
   144   73  149 1    
   145   73  150 1    
   146   73  151 1    
   147   74   75 am   BACKBONE|DICT|INTERRES
   148   74  152 1    
   149   75   76 2    
   150   75   77 1    
   151   77   78 1    
   152   77   79 1    
   153   77  153 1    
   154   78  154 1    
   155   78  155 1    
   156   78  156 1    
   157   79   80 am   BACKBONE|DICT|INTERRES
   158   79  157 1    
   159   80   81 2    
@<TRIPOS>SUBSTRUCTURE
     1 UNK         1 GROUP             0       ****    0 ROOT    
