@<TRIPOS>MOLECULE
3R207
157   159    1
SMALL
USER_CHARGES


@<TRIPOS>ATOM
      1 CA        -46.9579  -30.6114    6.7739 C.3       0 UNK        -0.1975 
      2 C         -47.2751  -29.5766    5.7056 C.2       0 UNK         0.4852 
      3 O         -46.4755  -29.3762    4.7908 O.2       0 UNK        -0.5216 
      4 N         -48.4403  -28.9229    5.8114 N.am      1 UNK        -0.4461 
      5 CA        -48.9234  -27.9198    4.8507 C.3       1 UNK         0.0864 
      6 C6        -50.4524  -27.6955    4.9641 C.3       14 UNK        -0.0898 
      7 S7        -51.4059  -29.1767    4.4978 S.3       14 UNK        -0.2598 
      8 C8        -52.9125  -28.9683    5.5140 C.3       14 UNK         0.0286 
      9 C9        -52.7546  -29.2282    7.0150 C.ar      14 UNK        -0.0844 
     10 C10       -51.6364  -29.8726    7.5601 C.ar      14 UNK        -0.0881 
     11 C11       -51.5419  -30.1066    8.9341 C.ar      14 UNK        -0.0643 
     12 C12       -52.5882  -29.7164    9.7727 C.ar      14 UNK        -0.0930 
     13 C13       -53.7251  -29.1014    9.2429 C.ar      14 UNK        -0.0827 
     14 C14       -53.7947  -28.8469    7.8697 C.ar      14 UNK        -0.1249 
     15 C15       -54.9019  -28.7682   10.1455 C.3       14 UNK         0.0141 
     16 S16       -54.7918  -27.0854   10.8188 S.3       14 UNK        -0.2313 
     17 C17       -56.3095  -27.0358   11.8332 C.3       14 UNK        -0.0915 
     18 CA        -56.0721  -26.7035   13.3379 C.3       13 UNK         0.0968 
     19 C         -57.4119  -26.6425   14.1302 C.2       13 UNK         0.5732 
     20 N         -57.5442  -27.2865   15.2842 N.am      13 UNK        -0.7310 
     21 O         -58.3458  -25.9664   13.7053 O.2       13 UNK        -0.5035 
     22 N         -55.0154  -27.4969   13.9881 N.am      13 UNK        -0.4233 
     23 C         -54.9260  -28.8312   14.0503 C.2       13 UNK         0.4989 
     24 O         -55.7220  -29.6112   13.5274 O.2       13 UNK        -0.4996 
     25 CA        -53.7564  -29.3895   14.8767 C.3       12 UNK         0.0216 
     26 CB        -52.4068  -29.0674   14.2106 C.3       12 UNK        -0.1964 
     27 N         -53.7568  -28.8973   16.2574 N.am      12 UNK        -0.4276 
     28 C         -54.7206  -29.1049   17.1649 C.2       12 UNK         0.5020 
     29 O         -55.7392  -29.7584   16.9404 O.2       12 UNK        -0.5489 
     30 CA        -54.5463  -28.4627   18.5551 C.3       11 UNK         0.0294 
     31 CB        -53.6580  -29.3320   19.4674 C.3       11 UNK        -0.2019 
     32 N         -54.0989  -27.0621   18.5199 N.am      11 UNK        -0.4493 
     33 C         -52.9179  -26.5739   18.1202 C.2       11 UNK         0.4932 
     34 O         -51.9594  -27.2693   17.7752 O.2       11 UNK        -0.5029 
     35 CA        -52.8074  -25.0413   18.0601 C.3       10 UNK         0.0280 
     36 CB        -52.0922  -24.5051   19.3103 C.3       10 UNK        -0.1976 
     37 N         -52.0995  -24.5834   16.8610 N.am      10 UNK        -0.4242 
     38 C         -52.4466  -24.8716   15.5987 C.2       10 UNK         0.5072 
     39 O         -53.4338  -25.5460   15.2881 O.2       10 UNK        -0.5224 
     40 CA        -51.5031  -24.3430   14.5073 C.3       9 UNK         0.0343 
     41 CB        -50.2479  -25.2242   14.4072 C.3       9 UNK        -0.2003 
     42 N         -52.1706  -24.3065   13.2058 N.am      9 UNK        -0.4272 
     43 C         -53.0508  -23.3641   12.8360 C.2       9 UNK         0.4988 
     44 O         -53.3345  -22.3916   13.5387 O.2       9 UNK        -0.5108 
     45 CA        -53.7458  -23.5342   11.4679 C.3       8 UNK         0.0248 
     46 CB        -54.1211  -22.1864   10.8150 C.3       8 UNK        -0.2001 
     47 N         -53.0067  -24.3891   10.5313 N.am      8 UNK        -0.4140 
     48 C         -51.7918  -24.1680   10.0127 C.2       8 UNK         0.5028 
     49 O         -51.1326  -23.1448   10.2002 O.2       8 UNK        -0.5428 
     50 CA        -51.2039  -25.3097    9.1643 C.3       7 UNK         0.0264 
     51 CB        -50.7678  -24.8012    7.7799 C.3       7 UNK        -0.1988 
     52 N         -50.0814  -25.9762    9.8395 N.am      7 UNK        -0.4454 
     53 C         -50.2155  -26.6780   10.9777 C.2       7 UNK         0.5027 
     54 O         -51.2748  -26.7330   11.6059 O.2       7 UNK        -0.5083 
     55 CA        -49.0186  -27.4761   11.5345 C.3       6 UNK         0.0844 
     56 C56       -49.2649  -29.0071   11.3985 C.3       14 UNK        -0.0967 
     57 S57       -48.9312  -29.6678    9.7254 S.3       14 UNK        -0.2604 
     58 C58       -50.3206  -30.8163    9.4945 C.3       14 UNK         0.0134 
     59 N         -47.7018  -27.0626   11.0328 N.am      6 UNK        -0.4116 
     60 C         -46.5515  -27.4675   11.5918 C.2       5 UNK         0.5034 
     61 O         -46.4799  -28.0599   12.6697 O.2       5 UNK        -0.5045 
     62 CA        -45.2594  -27.1964   10.8120 C.3       5 UNK         0.0224 
     63 CB        -45.2395  -27.9616    9.4758 C.3       5 UNK        -0.1978 
     64 N         -45.0771  -25.7675   10.5771 N.am      5 UNK        -0.4737 
     65 C         -44.4192  -24.9428   11.4046 C.2       4 UNK         0.5027 
     66 O         -43.8611  -25.3113   12.4383 O.2       4 UNK        -0.5211 
     67 CA        -44.3537  -23.4551   11.0119 C.3       4 UNK         0.0297 
     68 CB        -42.9970  -23.1314   10.3651 C.3       4 UNK        -0.1993 
     69 N         -45.4263  -23.0606   10.0974 N.am      4 UNK        -0.4486 
     70 C         -46.7127  -22.9311   10.4488 C.2       3 UNK         0.4961 
     71 O         -47.1234  -23.0334   11.6044 O.2       3 UNK        -0.5105 
     72 CA        -47.7111  -22.6835    9.3077 C.3       3 UNK         0.0299 
     73 CB        -47.9470  -21.1787    9.1058 C.3       3 UNK        -0.1972 
     74 N         -47.3101  -23.2954    8.0348 N.am      3 UNK        -0.4305 
     75 C         -47.2581  -24.6151    7.8142 C.2       2 UNK         0.5006 
     76 O         -47.5079  -25.4694    8.6717 O.2       2 UNK        -0.5106 
     77 CA        -46.8392  -25.0607    6.4132 C.3       2 UNK         0.0296 
     78 CB        -45.3209  -25.2971    6.3534 C.3       2 UNK        -0.2002 
     79 N         -47.5386  -26.3038    6.1014 N.am      2 UNK        -0.4032 
     80 C         -48.1688  -26.5752    4.9515 C.2       1 UNK         0.5000 
     81 O         -48.1794  -25.8114    3.9840 O.2       1 UNK        -0.5238 
     82 H82       -46.3411  -30.1705    7.5560 H         1 UNK         0.0889 
     83 H83       -46.4123  -31.4491    6.3404 H         1 UNK         0.0889 
     84 H84       -47.8650  -31.0067    7.2299 H         1 UNK         0.0889 
     85 H85       -49.0542  -29.1228    6.5872 H         1 UNK         0.3028 
     86 H86       -48.7204  -28.3009    3.8471 H         1 UNK         0.0864 
     87 H87       -50.7790  -26.8824    4.3124 H         1 UNK         0.0720 
     88 H88       -50.7210  -27.4038    5.9797 H         1 UNK         0.0720 
     89 H89       -53.6731  -29.6502    5.1315 H         1 UNK         0.0814 
     90 H90       -53.2989  -27.9599    5.3573 H         1 UNK         0.0814 
     91 H91       -50.8350  -30.2128    6.9223 H         1 UNK         0.1469 
     92 H92       -52.5307  -29.9123   10.8338 H         1 UNK         0.1381 
     93 H93       -54.6766  -28.3719    7.4614 H         1 UNK         0.1206 
     94 H94       -54.9521  -29.4850   10.9657 H         1 UNK         0.0813 
     95 H95       -55.8359  -28.8729    9.5912 H         1 UNK         0.0813 
     96 H96       -56.9634  -26.2852   11.3861 H         1 UNK         0.0638 
     97 H97       -56.8435  -27.9823   11.7374 H         1 UNK         0.0638 
     98 H98       -55.6918  -25.6824   13.3758 H         1 UNK         0.0568 
     99 H99       -58.4163  -27.2230   15.7847 H         1 UNK         0.3450 
    100 H100      -56.8053  -27.8800   15.6282 H         1 UNK         0.3450 
    101 H101      -54.3288  -26.9362   14.4900 H         1 UNK         0.2987 
    102 H102      -53.8657  -30.4753   14.9143 H         1 UNK         0.0766 
    103 H103      -52.3847  -29.4289   13.1825 H         1 UNK         0.0798 
    104 H104      -51.5787  -29.5398   14.7390 H         1 UNK         0.0798 
    105 H105      -52.2148  -27.9944   14.1781 H         1 UNK         0.0798 
    106 H106      -52.9625  -28.3359   16.5548 H         1 UNK         0.3198 
    107 H107      -55.5394  -28.4361   19.0074 H         1 UNK         0.0843 
    108 H108      -52.6488  -29.4488   19.0717 H         1 UNK         0.0831 
    109 H109      -54.0778  -30.3331   19.5743 H         1 UNK         0.0831 
    110 H110      -53.5791  -28.9057   20.4674 H         1 UNK         0.0831 
    111 H111      -54.8164  -26.3895   18.7562 H         1 UNK         0.3133 
    112 H112      -53.8124  -24.6157   18.0249 H         1 UNK         0.0566 
    113 H113      -52.0538  -23.4155   19.3117 H         1 UNK         0.0814 
    114 H114      -52.6126  -24.8099   20.2195 H         1 UNK         0.0814 
    115 H115      -51.0696  -24.8787   19.3808 H         1 UNK         0.0814 
    116 H116      -51.2540  -24.0543   17.0168 H         1 UNK         0.3091 
    117 H117      -51.1957  -23.3286   14.7707 H         1 UNK         0.0702 
    118 H118      -49.5868  -24.8849   13.6090 H         1 UNK         0.0785 
    119 H119      -50.5054  -26.2660   14.2160 H         1 UNK         0.0785 
    120 H120      -49.6738  -25.1993   15.3341 H         1 UNK         0.0785 
    121 H121      -52.0153  -25.1016   12.5941 H         1 UNK         0.2998 
    122 H122      -54.6771  -24.0618   11.6768 H         1 UNK         0.0697 
    123 H123      -53.2445  -21.5606   10.6451 H         1 UNK         0.0825 
    124 H124      -54.8042  -21.6204   11.4495 H         1 UNK         0.0825 
    125 H125      -54.6196  -22.3343    9.8572 H         1 UNK         0.0825 
    126 H126      -53.4312  -25.2942   10.3630 H         1 UNK         0.3029 
    127 H127      -51.9746  -26.0686    9.0052 H         1 UNK         0.0897 
    128 H128      -50.2337  -25.5663    7.2211 H         1 UNK         0.0792 
    129 H129      -50.1217  -23.9270    7.8501 H         1 UNK         0.0792 
    130 H130      -51.6354  -24.5090    7.1875 H         1 UNK         0.0792 
    131 H131      -49.1757  -25.8979    9.3901 H         1 UNK         0.3086 
    132 H132      -49.0166  -27.2496   12.6020 H         1 UNK         0.0583 
    133 H133      -48.6207  -29.5457   12.0944 H         1 UNK         0.1020 
    134 H134      -50.2795  -29.2625   11.7084 H         1 UNK         0.1020 
    135 H135      -50.0111  -31.6033    8.8052 H         1 UNK         0.0694 
    136 H136      -50.5549  -31.3173   10.4351 H         1 UNK         0.0694 
    137 H137      -47.6687  -26.5470   10.1589 H         1 UNK         0.2989 
    138 H138      -44.4281  -27.5736   11.4127 H         1 UNK         0.1055 
    139 H139      -44.2948  -27.8164    8.9518 H         1 UNK         0.0806 
    140 H140      -46.0431  -27.6564    8.8067 H         1 UNK         0.0806 
    141 H141      -45.3525  -29.0332    9.6456 H         1 UNK         0.0806 
    142 H142      -45.5626  -25.3721    9.7843 H         1 UNK         0.3061 
    143 H143      -44.4467  -22.8673   11.9278 H         1 UNK         0.0734 
    144 H144      -42.9078  -22.0690   10.1375 H         1 UNK         0.0832 
    145 H145      -42.1754  -23.3863   11.0362 H         1 UNK         0.0832 
    146 H146      -42.8454  -23.6891    9.4400 H         1 UNK         0.0832 
    147 H147      -45.1790  -22.9358    9.1267 H         1 UNK         0.3156 
    148 H148      -48.6534  -23.1386    9.6114 H         1 UNK         0.0589 
    149 H149      -48.7280  -20.9966    8.3673 H         1 UNK         0.0808 
    150 H150      -48.2705  -20.7088   10.0358 H         1 UNK         0.0808 
    151 H151      -47.0426  -20.6653    8.7771 H         1 UNK         0.0808 
    152 H152      -47.0890  -22.6630    7.2783 H         1 UNK         0.3098 
    153 H153      -47.1138  -24.2788    5.7019 H         1 UNK         0.0720 
    154 H154      -45.0139  -25.6236    5.3595 H         1 UNK         0.0791 
    155 H155      -44.9993  -26.0579    7.0654 H         1 UNK         0.0791 
    156 H156      -44.7696  -24.3831    6.5777 H         1 UNK         0.0791 
    157 H157      -47.6189  -26.9568    6.8682 H         1 UNK         0.3028 
@<TRIPOS>BOND
     1    1    2 1    
     2    1   82 1    
     3    1   83 1    
     4    1   84 1    
     5    2    3 2    
     6    2    4 am   BACKBONE|DICT|INTERRES
     7    4    5 1    
     8    4   85 1    
     9    5    6 1    
    10    5   80 1    
    11    5   86 1    
    12    6    7 1    
    13    6   87 1    
    14    6   88 1    
    15    7    8 1    
    16    8    9 1    
    17    8   89 1    
    18    8   90 1    
    19    9   10 ar   
    20    9   14 ar   
    21   10   11 ar   
    22   10   91 1    
    23   11   12 ar   
    24   11   58 1    
    25   12   13 ar   
    26   12   92 1    
    27   13   14 ar   
    28   13   15 1    
    29   14   93 1    
    30   15   16 1    
    31   15   94 1    
    32   15   95 1    
    33   16   17 1    
    34   17   18 1    
    35   17   96 1    
    36   17   97 1    
    37   18   19 1    
    38   18   22 1    
    39   18   98 1    
    40   19   20 am   BACKBONE|DICT|INTERRES
    41   19   21 2    
    42   20   99 1    
    43   20  100 1    
    44   22   23 am   BACKBONE|DICT|INTERRES
    45   22  101 1    
    46   23   24 2    
    47   23   25 1    
    48   25   26 1    
    49   25   27 1    
    50   25  102 1    
    51   26  103 1    
    52   26  104 1    
    53   26  105 1    
    54   27   28 am   BACKBONE|DICT|INTERRES
    55   27  106 1    
    56   28   29 2    
    57   28   30 1    
    58   30   31 1    
    59   30   32 1    
    60   30  107 1    
    61   31  108 1    
    62   31  109 1    
    63   31  110 1    
    64   32   33 am   BACKBONE|DICT|INTERRES
    65   32  111 1    
    66   33   34 2    
    67   33   35 1    
    68   35   36 1    
    69   35   37 1    
    70   35  112 1    
    71   36  113 1    
    72   36  114 1    
    73   36  115 1    
    74   37   38 am   BACKBONE|DICT|INTERRES
    75   37  116 1    
    76   38   39 2    
    77   38   40 1    
    78   40   41 1    
    79   40   42 1    
    80   40  117 1    
    81   41  118 1    
    82   41  119 1    
    83   41  120 1    
    84   42   43 am   BACKBONE|DICT|INTERRES
    85   42  121 1    
    86   43   44 2    
    87   43   45 1    
    88   45   46 1    
    89   45   47 1    
    90   45  122 1    
    91   46  123 1    
    92   46  124 1    
    93   46  125 1    
    94   47   48 am   BACKBONE|DICT|INTERRES
    95   47  126 1    
    96   48   49 2    
    97   48   50 1    
    98   50   51 1    
    99   50   52 1    
   100   50  127 1    
   101   51  128 1    
   102   51  129 1    
   103   51  130 1    
   104   52   53 am   BACKBONE|DICT|INTERRES
   105   52  131 1    
   106   53   54 2    
   107   53   55 1    
   108   55   56 1    
   109   55   59 1    
   110   55  132 1    
   111   56   57 1    
   112   56  133 1    
   113   56  134 1    
   114   57   58 1    
   115   58  135 1    
   116   58  136 1    
   117   59   60 am   BACKBONE|DICT|INTERRES
   118   59  137 1    
   119   60   61 2    
   120   60   62 1    
   121   62   63 1    
   122   62   64 1    
   123   62  138 1    
   124   63  139 1    
   125   63  140 1    
   126   63  141 1    
   127   64   65 am   BACKBONE|DICT|INTERRES
   128   64  142 1    
   129   65   66 2    
   130   65   67 1    
   131   67   68 1    
   132   67   69 1    
   133   67  143 1    
   134   68  144 1    
   135   68  145 1    
   136   68  146 1    
   137   69   70 am   BACKBONE|DICT|INTERRES
   138   69  147 1    
   139   70   71 2    
   140   70   72 1    
   141   72   73 1    
   142   72   74 1    
   143   72  148 1    
   144   73  149 1    
   145   73  150 1    
   146   73  151 1    
   147   74   75 am   BACKBONE|DICT|INTERRES
   148   74  152 1    
   149   75   76 2    
   150   75   77 1    
   151   77   78 1    
   152   77   79 1    
   153   77  153 1    
   154   78  154 1    
   155   78  155 1    
   156   78  156 1    
   157   79   80 am   BACKBONE|DICT|INTERRES
   158   79  157 1    
   159   80   81 2    
@<TRIPOS>SUBSTRUCTURE
     1 UNK         1 GROUP             0       ****    0 ROOT    
