@<TRIPOS>MOLECULE
3R207
157   159    1
SMALL
USER_CHARGES


@<TRIPOS>ATOM
      1 CA        -45.6756  -29.1823    6.2136 C.3       0 UNK        -0.1975 
      2 C         -46.9173  -28.4382    5.7452 C.2       0 UNK         0.4852 
      3 O         -46.8248  -27.6017    4.8460 O.2       0 UNK        -0.5216 
      4 N         -48.0770  -28.7445    6.3421 N.am      1 UNK        -0.4461 
      5 CA        -49.3666  -28.1119    6.0578 C.3       1 UNK         0.0864 
      6 C6        -50.5233  -28.7524    6.8538 C.3       14 UNK        -0.0898 
      7 S7        -50.7058  -30.5608    6.7260 S.3       14 UNK        -0.2598 
      8 C8        -52.4162  -30.7767    7.3442 C.3       14 UNK         0.0286 
      9 C9        -52.6685  -30.0024    8.6347 C.ar      14 UNK        -0.0844 
     10 C10       -53.1820  -28.7029    8.5792 C.ar      14 UNK        -0.0881 
     11 C11       -53.3133  -27.9323    9.7358 C.ar      14 UNK        -0.0643 
     12 C12       -52.9909  -28.5012   10.9715 C.ar      14 UNK        -0.0930 
     13 C13       -52.5335  -29.8228   11.0506 C.ar      14 UNK        -0.0827 
     14 C14       -52.3586  -30.5627    9.8763 C.ar      14 UNK        -0.1249 
     15 C15       -52.2186  -30.4535   12.4003 C.3       14 UNK         0.0141 
     16 S16       -53.6044  -30.3213   13.5789 S.3       14 UNK        -0.2313 
     17 C17       -54.8544  -31.4175   12.8232 C.3       14 UNK        -0.0915 
     18 CA        -55.8153  -30.7011   11.8332 C.3       13 UNK         0.0968 
     19 C         -56.8453  -31.7057   11.2390 C.2       13 UNK         0.5732 
     20 N         -58.1441  -31.5421   11.4627 N.am      13 UNK        -0.7310 
     21 O         -56.4582  -32.6522   10.5578 O.2       13 UNK        -0.5035 
     22 N         -56.4016  -29.4788   12.4097 N.am      13 UNK        -0.4233 
     23 C         -56.9190  -28.4719   11.6932 C.2       13 UNK         0.4989 
     24 O         -56.9947  -28.4761   10.4640 O.2       13 UNK        -0.4996 
     25 CA        -57.4669  -27.2524   12.4611 C.3       12 UNK         0.0216 
     26 CB        -59.0051  -27.2559   12.4432 C.3       12 UNK        -0.1964 
     27 N         -57.0072  -27.1375   13.8506 N.am      12 UNK        -0.4276 
     28 C         -55.7542  -26.8403   14.2192 C.2       12 UNK         0.5020 
     29 O         -54.8276  -26.6846   13.4228 O.2       12 UNK        -0.5489 
     30 CA        -55.5051  -26.7298   15.7355 C.3       11 UNK         0.0294 
     31 CB        -55.4486  -28.1258   16.3792 C.3       11 UNK        -0.2019 
     32 N         -54.2583  -26.0284   16.0422 N.am      11 UNK        -0.4493 
     33 C         -54.0097  -24.7304   15.8337 C.2       11 UNK         0.4932 
     34 O         -54.8689  -23.9243   15.4732 O.2       11 UNK        -0.5029 
     35 CA        -52.5665  -24.2318   16.0561 C.3       10 UNK         0.0280 
     36 CB        -52.3951  -23.6298   17.4642 C.3       10 UNK        -0.1976 
     37 N         -51.5095  -25.2119   15.7587 N.am      10 UNK        -0.4242 
     38 C         -51.2109  -26.3546   16.3949 C.2       10 UNK         0.5072 
     39 O         -51.8352  -26.7858   17.3649 O.2       10 UNK        -0.5224 
     40 CA        -50.0426  -27.1828   15.8373 C.3       9 UNK         0.0343 
     41 CB        -50.5343  -28.0968   14.7070 C.3       9 UNK        -0.2003 
     42 N         -48.9200  -26.3698   15.3641 N.am      9 UNK        -0.4272 
     43 C         -48.1227  -25.6484   16.1665 C.2       9 UNK         0.4988 
     44 O         -48.2428  -25.6009   17.3915 O.2       9 UNK        -0.5108 
     45 CA        -46.9897  -24.8543   15.4978 C.3       8 UNK         0.0248 
     46 CB        -45.7762  -25.7629   15.2441 C.3       8 UNK        -0.2001 
     47 N         -47.4087  -24.2184   14.2470 N.am      8 UNK        -0.4140 
     48 C         -48.2390  -23.1672   14.1802 C.2       8 UNK         0.5028 
     49 O         -48.6773  -22.5775   15.1688 O.2       8 UNK        -0.5428 
     50 CA        -48.6803  -22.7038   12.7792 C.3       7 UNK         0.0264 
     51 CB        -47.6179  -21.7924   12.1474 C.3       7 UNK        -0.1988 
     52 N         -49.0053  -23.8075   11.8676 N.am      7 UNK        -0.4454 
     53 C         -49.9812  -24.7031   12.0970 C.2       7 UNK         0.5027 
     54 O         -50.6914  -24.6824   13.1029 O.2       7 UNK        -0.5083 
     55 CA        -50.1658  -25.8485   11.0740 C.3       6 UNK         0.0844 
     56 C56       -51.1400  -25.4758    9.9263 C.3       14 UNK        -0.0967 
     57 S57       -52.8539  -25.2575   10.5336 S.3       14 UNK        -0.2604 
     58 C58       -53.8323  -26.5018    9.6238 C.3       14 UNK         0.0134 
     59 N         -48.8763  -26.3505   10.5882 N.am      6 UNK        -0.4116 
     60 C         -47.9797  -26.9588   11.3818 C.2       5 UNK         0.5034 
     61 O         -48.1620  -27.1824   12.5797 O.2       5 UNK        -0.5045 
     62 CA        -46.6324  -27.3403   10.7513 C.3       5 UNK         0.0224 
     63 CB        -46.8063  -28.4161    9.6705 C.3       5 UNK        -0.1978 
     64 N         -45.9170  -26.1853   10.2014 N.am      5 UNK        -0.4737 
     65 C         -45.4776  -25.1489   10.9301 C.2       4 UNK         0.5027 
     66 O         -45.6408  -25.0486   12.1437 O.2       4 UNK        -0.5211 
     67 CA        -44.7426  -24.0193   10.1883 C.3       4 UNK         0.0297 
     68 CB        -43.2354  -24.3150   10.1325 C.3       4 UNK        -0.1993 
     69 N         -45.2347  -23.7478    8.8348 N.am      4 UNK        -0.4486 
     70 C         -46.4987  -23.4551    8.5004 C.2       3 UNK         0.4961 
     71 O         -47.4367  -23.4448    9.3035 O.2       3 UNK        -0.5105 
     72 CA        -46.7716  -23.1422    7.0206 C.3       3 UNK         0.0299 
     73 CB        -45.6564  -23.5946    6.0509 C.3       3 UNK        -0.1972 
     74 N         -48.0250  -23.7931    6.6823 N.am      3 UNK        -0.4305 
     75 C         -48.8719  -23.4923    5.7003 C.2       2 UNK         0.5006 
     76 O         -48.6779  -22.6008    4.8715 O.2       2 UNK        -0.5106 
     77 CA        -50.1554  -24.3471    5.6539 C.3       2 UNK         0.0296 
     78 CB        -51.1308  -23.8904    4.5526 C.3       2 UNK        -0.2002 
     79 N         -49.8989  -25.7840    5.4925 N.am      2 UNK        -0.4032 
     80 C         -49.3590  -26.6086    6.4028 C.2       1 UNK         0.5000 
     81 O         -48.9448  -26.2463    7.5115 O.2       1 UNK        -0.5238 
     82 H82       -45.1813  -29.6576    5.3668 H         1 UNK         0.0889 
     83 H83       -45.9147  -29.9566    6.9424 H         1 UNK         0.0889 
     84 H84       -44.9732  -28.4870    6.6724 H         1 UNK         0.0889 
     85 H85       -48.0990  -29.4542    7.0597 H         1 UNK         0.3028 
     86 H86       -49.5635  -28.2365    4.9909 H         1 UNK         0.0864 
     87 H87       -51.4589  -28.3045    6.5166 H         1 UNK         0.0720 
     88 H88       -50.4245  -28.5200    7.9172 H         1 UNK         0.0720 
     89 H89       -52.6061  -31.8391    7.5038 H         1 UNK         0.0814 
     90 H90       -53.1171  -30.4568    6.5716 H         1 UNK         0.0814 
     91 H91       -53.4468  -28.2742    7.6228 H         1 UNK         0.1469 
     92 H92       -53.1149  -27.9195   11.8750 H         1 UNK         0.1381 
     93 H93       -51.9737  -31.5721    9.9245 H         1 UNK         0.1206 
     94 H94       -51.9485  -31.5047   12.2893 H         1 UNK         0.0813 
     95 H95       -51.3432  -29.9578   12.8170 H         1 UNK         0.0813 
     96 H96       -54.3380  -32.2409   12.3263 H         1 UNK         0.0638 
     97 H97       -55.4254  -31.8677   13.6371 H         1 UNK         0.0638 
     98 H98       -55.2173  -30.3843   10.9783 H         1 UNK         0.0568 
     99 H99       -58.7991  -32.1989   11.0690 H         1 UNK         0.3450 
    100 H100      -58.4738  -30.7688   12.0167 H         1 UNK         0.3450 
    101 H101      -56.3608  -29.3947   13.4131 H         1 UNK         0.2987 
    102 H102      -57.1238  -26.3644   11.9255 H         1 UNK         0.0766 
    103 H103      -59.4100  -26.3471   12.8890 H         1 UNK         0.0798 
    104 H104      -59.4147  -28.1089   12.9857 H         1 UNK         0.0798 
    105 H105      -59.3849  -27.3074   11.4216 H         1 UNK         0.0798 
    106 H106      -57.7077  -27.2596   14.5683 H         1 UNK         0.3198 
    107 H107      -56.3283  -26.1656   16.1790 H         1 UNK         0.0843 
    108 H108      -54.6266  -28.7198   15.9777 H         1 UNK         0.0831 
    109 H109      -56.3696  -28.6836   16.2063 H         1 UNK         0.0831 
    110 H110      -55.3131  -28.0584   17.4589 H         1 UNK         0.0831 
    111 H111      -53.4875  -26.5897   16.3892 H         1 UNK         0.3133 
    112 H112      -52.4096  -23.4260   15.3371 H         1 UNK         0.0566 
    113 H113      -51.3961  -23.2140   17.5970 H         1 UNK         0.0814 
    114 H114      -53.1083  -22.8213   17.6299 H         1 UNK         0.0814 
    115 H115      -52.5585  -24.3699   18.2480 H         1 UNK         0.0814 
    116 H116      -51.0005  -25.0172   14.8971 H         1 UNK         0.3091 
    117 H117      -49.6740  -27.8176   16.6459 H         1 UNK         0.0702 
    118 H118      -51.3389  -28.7451   15.0563 H         1 UNK         0.0785 
    119 H119      -49.7339  -28.7395   14.3403 H         1 UNK         0.0785 
    120 H120      -50.9205  -27.5244   13.8629 H         1 UNK         0.0785 
    121 H121      -48.7194  -26.4011   14.3691 H         1 UNK         0.2998 
    122 H122      -46.6813  -24.0681   16.1903 H         1 UNK         0.0697 
    123 H123      -46.0068  -26.5528   14.5276 H         1 UNK         0.0825 
    124 H124      -45.4455  -26.2424   16.1663 H         1 UNK         0.0825 
    125 H125      -44.9318  -25.1948   14.8532 H         1 UNK         0.0825 
    126 H126      -47.0274  -24.6098   13.3885 H         1 UNK         0.3029 
    127 H127      -49.5919  -22.1158   12.9066 H         1 UNK         0.0897 
    128 H128      -47.9488  -21.4021   11.1848 H         1 UNK         0.0792 
    129 H129      -46.6792  -22.3216   11.9912 H         1 UNK         0.0792 
    130 H130      -47.4065  -20.9364   12.7897 H         1 UNK         0.0792 
    131 H131      -48.4586  -23.8715   11.0132 H         1 UNK         0.3086 
    132 H132      -50.6228  -26.6802   11.6147 H         1 UNK         0.0583 
    133 H133      -50.8169  -24.5646    9.4196 H         1 UNK         0.1020 
    134 H134      -51.1348  -26.2585    9.1668 H         1 UNK         0.1020 
    135 H135      -54.8552  -26.4780   10.0018 H         1 UNK         0.0694 
    136 H136      -53.8842  -26.1911    8.5792 H         1 UNK         0.0694 
    137 H137      -48.6629  -26.2026    9.6079 H         1 UNK         0.2989 
    138 H138      -46.0134  -27.7615   11.5470 H         1 UNK         0.1055 
    139 H139      -47.3433  -29.2818   10.0612 H         1 UNK         0.0806 
    140 H140      -45.8424  -28.7700    9.3052 H         1 UNK         0.0806 
    141 H141      -47.3721  -28.0352    8.8229 H         1 UNK         0.0806 
    142 H142      -45.7563  -26.1706    9.2052 H         1 UNK         0.3061 
    143 H143      -44.8812  -23.1056   10.7678 H         1 UNK         0.0734 
    144 H144      -42.6791  -23.4750    9.7161 H         1 UNK         0.0832 
    145 H145      -42.8374  -24.4991   11.1317 H         1 UNK         0.0832 
    146 H146      -43.0178  -25.1969    9.5286 H         1 UNK         0.0832 
    147 H147      -44.5427  -23.7444    8.0996 H         1 UNK         0.3156 
    148 H148      -46.9019  -22.0617    6.9377 H         1 UNK         0.0589 
    149 H149      -45.4658  -24.6665    6.1240 H         1 UNK         0.0808 
    150 H150      -45.9261  -23.3826    5.0161 H         1 UNK         0.0808 
    151 H151      -44.7204  -23.0682    6.2411 H         1 UNK         0.0808 
    152 H152      -48.2880  -24.5623    7.2973 H         1 UNK         0.3098 
    153 H153      -50.6581  -24.2067    6.6134 H         1 UNK         0.0720 
    154 H154      -52.0657  -24.4500    4.5919 H         1 UNK         0.0791 
    155 H155      -50.7037  -24.0170    3.5570 H         1 UNK         0.0791 
    156 H156      -51.3843  -22.8355    4.6672 H         1 UNK         0.0791 
    157 H157      -50.1852  -26.1778    4.6079 H         1 UNK         0.3028 
@<TRIPOS>BOND
     1    1    2 1    
     2    1   82 1    
     3    1   83 1    
     4    1   84 1    
     5    2    3 2    
     6    2    4 am   BACKBONE|DICT|INTERRES
     7    4    5 1    
     8    4   85 1    
     9    5    6 1    
    10    5   80 1    
    11    5   86 1    
    12    6    7 1    
    13    6   87 1    
    14    6   88 1    
    15    7    8 1    
    16    8    9 1    
    17    8   89 1    
    18    8   90 1    
    19    9   10 ar   
    20    9   14 ar   
    21   10   11 ar   
    22   10   91 1    
    23   11   12 ar   
    24   11   58 1    
    25   12   13 ar   
    26   12   92 1    
    27   13   14 ar   
    28   13   15 1    
    29   14   93 1    
    30   15   16 1    
    31   15   94 1    
    32   15   95 1    
    33   16   17 1    
    34   17   18 1    
    35   17   96 1    
    36   17   97 1    
    37   18   19 1    
    38   18   22 1    
    39   18   98 1    
    40   19   20 am   BACKBONE|DICT|INTERRES
    41   19   21 2    
    42   20   99 1    
    43   20  100 1    
    44   22   23 am   BACKBONE|DICT|INTERRES
    45   22  101 1    
    46   23   24 2    
    47   23   25 1    
    48   25   26 1    
    49   25   27 1    
    50   25  102 1    
    51   26  103 1    
    52   26  104 1    
    53   26  105 1    
    54   27   28 am   BACKBONE|DICT|INTERRES
    55   27  106 1    
    56   28   29 2    
    57   28   30 1    
    58   30   31 1    
    59   30   32 1    
    60   30  107 1    
    61   31  108 1    
    62   31  109 1    
    63   31  110 1    
    64   32   33 am   BACKBONE|DICT|INTERRES
    65   32  111 1    
    66   33   34 2    
    67   33   35 1    
    68   35   36 1    
    69   35   37 1    
    70   35  112 1    
    71   36  113 1    
    72   36  114 1    
    73   36  115 1    
    74   37   38 am   BACKBONE|DICT|INTERRES
    75   37  116 1    
    76   38   39 2    
    77   38   40 1    
    78   40   41 1    
    79   40   42 1    
    80   40  117 1    
    81   41  118 1    
    82   41  119 1    
    83   41  120 1    
    84   42   43 am   BACKBONE|DICT|INTERRES
    85   42  121 1    
    86   43   44 2    
    87   43   45 1    
    88   45   46 1    
    89   45   47 1    
    90   45  122 1    
    91   46  123 1    
    92   46  124 1    
    93   46  125 1    
    94   47   48 am   BACKBONE|DICT|INTERRES
    95   47  126 1    
    96   48   49 2    
    97   48   50 1    
    98   50   51 1    
    99   50   52 1    
   100   50  127 1    
   101   51  128 1    
   102   51  129 1    
   103   51  130 1    
   104   52   53 am   BACKBONE|DICT|INTERRES
   105   52  131 1    
   106   53   54 2    
   107   53   55 1    
   108   55   56 1    
   109   55   59 1    
   110   55  132 1    
   111   56   57 1    
   112   56  133 1    
   113   56  134 1    
   114   57   58 1    
   115   58  135 1    
   116   58  136 1    
   117   59   60 am   BACKBONE|DICT|INTERRES
   118   59  137 1    
   119   60   61 2    
   120   60   62 1    
   121   62   63 1    
   122   62   64 1    
   123   62  138 1    
   124   63  139 1    
   125   63  140 1    
   126   63  141 1    
   127   64   65 am   BACKBONE|DICT|INTERRES
   128   64  142 1    
   129   65   66 2    
   130   65   67 1    
   131   67   68 1    
   132   67   69 1    
   133   67  143 1    
   134   68  144 1    
   135   68  145 1    
   136   68  146 1    
   137   69   70 am   BACKBONE|DICT|INTERRES
   138   69  147 1    
   139   70   71 2    
   140   70   72 1    
   141   72   73 1    
   142   72   74 1    
   143   72  148 1    
   144   73  149 1    
   145   73  150 1    
   146   73  151 1    
   147   74   75 am   BACKBONE|DICT|INTERRES
   148   74  152 1    
   149   75   76 2    
   150   75   77 1    
   151   77   78 1    
   152   77   79 1    
   153   77  153 1    
   154   78  154 1    
   155   78  155 1    
   156   78  156 1    
   157   79   80 am   BACKBONE|DICT|INTERRES
   158   79  157 1    
   159   80   81 2    
@<TRIPOS>SUBSTRUCTURE
     1 UNK         1 GROUP             0       ****    0 ROOT    
