@<TRIPOS>MOLECULE
3R207
157   159    1
SMALL
USER_CHARGES


@<TRIPOS>ATOM
      1 CA        -45.5251  -31.2977    3.6795 C.3       0 UNK        -0.1975 
      2 C         -46.7849  -30.4453    3.7166 C.2       0 UNK         0.4852 
      3 O         -47.4031  -30.2227    2.6750 O.2       0 UNK        -0.5216 
      4 N         -47.1689  -29.9679    4.9085 N.am      1 UNK        -0.4461 
      5 CA        -48.3586  -29.1378    5.1404 C.3       1 UNK         0.0864 
      6 C6        -48.6882  -29.0179    6.6479 C.3       14 UNK        -0.0898 
      7 S7        -49.2677  -30.5990    7.3410 S.3       14 UNK        -0.2598 
      8 C8        -51.0729  -30.3449    7.3365 C.3       14 UNK         0.0286 
      9 C9        -51.5190  -29.4210    8.4613 C.ar      14 UNK        -0.0844 
     10 C10       -51.8375  -28.0819    8.2090 C.ar      14 UNK        -0.0881 
     11 C11       -52.2411  -27.2296    9.2436 C.ar      14 UNK        -0.0643 
     12 C12       -52.3434  -27.7492   10.5426 C.ar      14 UNK        -0.0930 
     13 C13       -52.0225  -29.0832   10.8081 C.ar      14 UNK        -0.0827 
     14 C14       -51.6120  -29.9137    9.7640 C.ar      14 UNK        -0.1249 
     15 C15       -52.0890  -29.6226   12.2269 C.3       14 UNK         0.0141 
     16 S16       -53.4757  -30.7839   12.4284 S.3       14 UNK        -0.2313 
     17 C17       -54.2408  -30.2259   13.9872 C.3       14 UNK        -0.0915 
     18 CA        -55.6687  -29.6642   13.7581 C.3       13 UNK         0.0968 
     19 C         -56.4400  -29.4783   15.0985 C.2       13 UNK         0.5732 
     20 N         -56.9555  -28.3001   15.4315 N.am      13 UNK        -0.7310 
     21 O         -56.5875  -30.4357   15.8542 O.2       13 UNK        -0.5035 
     22 N         -55.6543  -28.4690   12.9009 N.am      13 UNK        -0.4233 
     23 C         -56.6758  -28.0899   12.1207 C.2       13 UNK         0.4989 
     24 O         -57.6956  -28.7636   11.9604 O.2       13 UNK        -0.4996 
     25 CA        -56.5448  -26.7250   11.4099 C.3       12 UNK         0.0216 
     26 CB        -57.9120  -26.1231   11.0212 C.3       12 UNK        -0.1964 
     27 N         -55.7504  -25.7420   12.1582 N.am      12 UNK        -0.4276 
     28 C         -55.9560  -25.3181   13.4127 C.2       12 UNK         0.5020 
     29 O         -56.8880  -25.6875   14.1299 O.2       12 UNK        -0.5489 
     30 CA        -54.8931  -24.3712   13.9922 C.3       11 UNK         0.0294 
     31 CB        -55.5100  -23.0260   14.4062 C.3       11 UNK        -0.2019 
     32 N         -54.2268  -24.9819   15.1463 N.am      11 UNK        -0.4493 
     33 C         -53.4850  -26.0943   15.0877 C.2       11 UNK         0.4932 
     34 O         -53.2347  -26.6927   14.0385 O.2       11 UNK        -0.5029 
     35 CA        -52.9050  -26.6096   16.4068 C.3       10 UNK         0.0280 
     36 CB        -53.8880  -27.5691   17.1037 C.3       10 UNK        -0.1976 
     37 N         -51.6399  -27.2645   16.0916 N.am      10 UNK        -0.4242 
     38 C         -50.7372  -27.7425   16.9550 C.2       10 UNK         0.5072 
     39 O         -50.8843  -27.7653   18.1773 O.2       10 UNK        -0.5224 
     40 CA        -49.4148  -28.2198   16.3393 C.3       9 UNK         0.0343 
     41 CB        -49.6260  -29.2662   15.2296 C.3       9 UNK        -0.2003 
     42 N         -48.7056  -27.0568   15.8072 N.am      9 UNK        -0.4272 
     43 C         -47.9085  -26.2681   16.5430 C.2       9 UNK         0.4988 
     44 O         -47.5321  -26.5383   17.6843 O.2       9 UNK        -0.5108 
     45 CA        -47.4857  -24.9324   15.9116 C.3       8 UNK         0.0248 
     46 CB        -46.4561  -25.1544   14.7937 C.3       8 UNK        -0.2001 
     47 N         -48.6305  -24.1766   15.3962 N.am      8 UNK        -0.4140 
     48 C         -49.6173  -23.6585   16.1426 C.2       8 UNK         0.5028 
     49 O         -49.6344  -23.7042   17.3726 O.2       8 UNK        -0.5428 
     50 CA        -50.8055  -22.9945   15.4170 C.3       7 UNK         0.0264 
     51 CB        -50.5888  -21.4773   15.2533 C.3       7 UNK        -0.1988 
     52 N         -51.1801  -23.6364   14.1479 N.am      7 UNK        -0.4454 
     53 C         -50.4946  -23.6802   12.9981 C.2       7 UNK         0.5027 
     54 O         -49.4316  -23.0878   12.8042 O.2       7 UNK        -0.5083 
     55 CA        -51.0809  -24.5919   11.9052 C.3       6 UNK         0.0844 
     56 C56       -51.9466  -23.7967   10.8952 C.3       14 UNK        -0.0967 
     57 S57       -53.3277  -24.7776   10.2175 S.3       14 UNK        -0.2604 
     58 C58       -52.5383  -25.7658    8.8983 C.3       14 UNK         0.0134 
     59 N         -50.0014  -25.3403   11.2564 N.am      6 UNK        -0.4116 
     60 C         -49.2695  -26.2856   11.8678 C.2       5 UNK         0.5034 
     61 O         -49.4771  -26.6664   13.0228 O.2       5 UNK        -0.5045 
     62 CA        -48.0939  -26.8975   11.0825 C.3       5 UNK         0.0224 
     63 CB        -48.5200  -28.2001   10.3918 C.3       5 UNK        -0.1978 
     64 N         -47.5222  -25.9868   10.0869 N.am      5 UNK        -0.4737 
     65 C         -46.7860  -24.9089   10.3876 C.2       4 UNK         0.5027 
     66 O         -46.4352  -24.6270   11.5321 O.2       4 UNK        -0.5211 
     67 CA        -46.3512  -23.9855    9.2338 C.3       4 UNK         0.0297 
     68 CB        -44.8659  -24.2110    8.9060 C.3       4 UNK        -0.1993 
     69 N         -47.1234  -24.0812    7.9891 N.am      4 UNK        -0.4486 
     70 C         -48.4427  -23.9189    7.8361 C.2       3 UNK         0.4961 
     71 O         -49.2288  -23.8174    8.7763 O.2       3 UNK        -0.5105 
     72 CA        -48.9955  -23.8625    6.3981 C.3       3 UNK         0.0299 
     73 CB        -49.0278  -22.4084    5.8914 C.3       3 UNK        -0.1972 
     74 N         -48.3432  -24.7464    5.4185 N.am      3 UNK        -0.4305 
     75 C         -47.0825  -24.7535    4.9608 C.2       2 UNK         0.5006 
     76 O         -46.2085  -23.9802    5.3565 O.2       2 UNK        -0.5106 
     77 CA        -46.7378  -25.8393    3.9181 C.3       2 UNK         0.0296 
     78 CB        -45.2660  -25.7820    3.4666 C.3       2 UNK        -0.2002 
     79 N         -47.0293  -27.1914    4.4067 N.am      2 UNK        -0.4032 
     80 C         -48.2518  -27.7305    4.5215 C.2       1 UNK         0.5000 
     81 O         -49.2839  -27.1384    4.1972 O.2       1 UNK        -0.5238 
     82 H82       -45.7549  -32.2891    3.2901 H         1 UNK         0.0889 
     83 H83       -45.0832  -31.4164    4.6687 H         1 UNK         0.0889 
     84 H84       -44.7812  -30.8395    3.0284 H         1 UNK         0.0889 
     85 H85       -46.6397  -30.2122    5.7339 H         1 UNK         0.3028 
     86 H86       -49.2012  -29.6238    4.6431 H         1 UNK         0.0864 
     87 H87       -47.8105  -28.6948    7.2106 H         1 UNK         0.0720 
     88 H88       -49.4474  -28.2561    6.8269 H         1 UNK         0.0720 
     89 H89       -51.5634  -31.3128    7.4508 H         1 UNK         0.0814 
     90 H90       -51.3885  -29.9588    6.3660 H         1 UNK         0.0814 
     91 H91       -51.7634  -27.6964    7.2013 H         1 UNK         0.1469 
     92 H92       -52.6542  -27.1229   11.3642 H         1 UNK         0.1381 
     93 H93       -51.3587  -30.9453    9.9677 H         1 UNK         0.1206 
     94 H94       -52.1650  -28.7978   12.9340 H         1 UNK         0.0813 
     95 H95       -51.1579  -30.1393   12.4628 H         1 UNK         0.0813 
     96 H96       -54.2694  -31.0918   14.6510 H         1 UNK         0.0638 
     97 H97       -53.6089  -29.4891   14.4826 H         1 UNK         0.0638 
     98 H98       -56.2249  -30.4406   13.2292 H         1 UNK         0.0568 
     99 H99       -57.4591  -28.2212   16.2997 H         1 UNK         0.3450 
    100 H100      -56.8743  -27.4870   14.8281 H         1 UNK         0.3450 
    101 H101      -54.8576  -27.8547   13.0099 H         1 UNK         0.2987 
    102 H102      -55.9947  -26.9210   10.4880 H         1 UNK         0.0766 
    103 H103      -58.5390  -25.9497   11.8965 H         1 UNK         0.0798 
    104 H104      -57.7930  -25.1731   10.5003 H         1 UNK         0.0798 
    105 H105      -58.4604  -26.7891   10.3539 H         1 UNK         0.0798 
    106 H106      -54.9368  -25.3932   11.6639 H         1 UNK         0.3198 
    107 H107      -54.1395  -24.1732   13.2277 H         1 UNK         0.0843 
    108 H108      -56.0012  -22.5465   13.5585 H         1 UNK         0.0831 
    109 H109      -54.7505  -22.3350   14.7727 H         1 UNK         0.0831 
    110 H110      -56.2601  -23.1488   15.1888 H         1 UNK         0.0831 
    111 H111      -54.4345  -24.5801   16.0499 H         1 UNK         0.3133 
    112 H112      -52.6997  -25.7576   17.0579 H         1 UNK         0.0566 
    113 H113      -53.5532  -27.8250   18.1086 H         1 UNK         0.0814 
    114 H114      -54.8760  -27.1180   17.2048 H         1 UNK         0.0814 
    115 H115      -54.0074  -28.4990   16.5503 H         1 UNK         0.0814 
    116 H116      -51.4393  -27.2952   15.0989 H         1 UNK         0.3091 
    117 H117      -48.8227  -28.6884   17.1285 H         1 UNK         0.0702 
    118 H118      -48.6720  -29.6565   14.8749 H         1 UNK         0.0785 
    119 H119      -50.1513  -28.8562   14.3684 H         1 UNK         0.0785 
    120 H120      -50.2070  -30.1135   15.5963 H         1 UNK         0.0785 
    121 H121      -48.9504  -26.7705   14.8624 H         1 UNK         0.2998 
    122 H122      -47.0142  -24.3284   16.6897 H         1 UNK         0.0697 
    123 H123      -46.8672  -25.7463   13.9757 H         1 UNK         0.0825 
    124 H124      -45.5792  -25.6831   15.1695 H         1 UNK         0.0825 
    125 H125      -46.1103  -24.2080   14.3774 H         1 UNK         0.0825 
    126 H126      -48.6809  -24.0359   14.3924 H         1 UNK         0.3029 
    127 H127      -51.6697  -23.1251   16.0709 H         1 UNK         0.0897 
    128 H128      -51.4503  -21.0014   14.7848 H         1 UNK         0.0792 
    129 H129      -50.4437  -21.0012   16.2239 H         1 UNK         0.0792 
    130 H130      -49.7093  -21.2494   14.6507 H         1 UNK         0.0792 
    131 H131      -52.0299  -24.1802   14.1927 H         1 UNK         0.3086 
    132 H132      -51.7180  -25.3193   12.4087 H         1 UNK         0.0583 
    133 H133      -52.4113  -22.9334   11.3765 H         1 UNK         0.1020 
    134 H134      -51.3473  -23.3772   10.0875 H         1 UNK         0.1020 
    135 H135      -53.2051  -25.7447    8.0351 H         1 UNK         0.0694 
    136 H136      -51.6147  -25.2808    8.5806 H         1 UNK         0.0694 
    137 H137      -49.7109  -25.0078   10.3433 H         1 UNK         0.2989 
    138 H138      -47.3164  -27.1405   11.8102 H         1 UNK         0.1055 
    139 H139      -47.6707  -28.7062    9.9330 H         1 UNK         0.0806 
    140 H140      -49.2606  -28.0167    9.6140 H         1 UNK         0.0806 
    141 H141      -48.9633  -28.8958   11.1056 H         1 UNK         0.0806 
    142 H142      -47.7642  -26.1422    9.1197 H         1 UNK         0.3061 
    143 H143      -46.4673  -22.9622    9.5963 H         1 UNK         0.0734 
    144 H144      -44.2463  -24.1089    9.7983 H         1 UNK         0.0832 
    145 H145      -44.6916  -25.2083    8.5000 H         1 UNK         0.0832 
    146 H146      -44.5037  -23.4843    8.1784 H         1 UNK         0.0832 
    147 H147      -46.5831  -24.1151    7.1264 H         1 UNK         0.3156 
    148 H148      -50.0283  -24.2101    6.4557 H         1 UNK         0.0589 
    149 H149      -48.0266  -21.9852    5.8025 H         1 UNK         0.0808 
    150 H150      -49.5091  -22.3390    4.9159 H         1 UNK         0.0808 
    151 H151      -49.5892  -21.7700    6.5752 H         1 UNK         0.0808 
    152 H152      -48.9448  -25.4711    5.0319 H         1 UNK         0.3098 
    153 H153      -47.3593  -25.6465    3.0409 H         1 UNK         0.0720 
    154 H154      -45.0603  -26.5187    2.6896 H         1 UNK         0.0791 
    155 H155      -44.5808  -25.9669    4.2951 H         1 UNK         0.0791 
    156 H156      -45.0214  -24.8025    3.0532 H         1 UNK         0.0791 
    157 H157      -46.2401  -27.7384    4.7190 H         1 UNK         0.3028 
@<TRIPOS>BOND
     1    1    2 1    
     2    1   82 1    
     3    1   83 1    
     4    1   84 1    
     5    2    3 2    
     6    2    4 am   BACKBONE|DICT|INTERRES
     7    4    5 1    
     8    4   85 1    
     9    5    6 1    
    10    5   80 1    
    11    5   86 1    
    12    6    7 1    
    13    6   87 1    
    14    6   88 1    
    15    7    8 1    
    16    8    9 1    
    17    8   89 1    
    18    8   90 1    
    19    9   10 ar   
    20    9   14 ar   
    21   10   11 ar   
    22   10   91 1    
    23   11   12 ar   
    24   11   58 1    
    25   12   13 ar   
    26   12   92 1    
    27   13   14 ar   
    28   13   15 1    
    29   14   93 1    
    30   15   16 1    
    31   15   94 1    
    32   15   95 1    
    33   16   17 1    
    34   17   18 1    
    35   17   96 1    
    36   17   97 1    
    37   18   19 1    
    38   18   22 1    
    39   18   98 1    
    40   19   20 am   BACKBONE|DICT|INTERRES
    41   19   21 2    
    42   20   99 1    
    43   20  100 1    
    44   22   23 am   BACKBONE|DICT|INTERRES
    45   22  101 1    
    46   23   24 2    
    47   23   25 1    
    48   25   26 1    
    49   25   27 1    
    50   25  102 1    
    51   26  103 1    
    52   26  104 1    
    53   26  105 1    
    54   27   28 am   BACKBONE|DICT|INTERRES
    55   27  106 1    
    56   28   29 2    
    57   28   30 1    
    58   30   31 1    
    59   30   32 1    
    60   30  107 1    
    61   31  108 1    
    62   31  109 1    
    63   31  110 1    
    64   32   33 am   BACKBONE|DICT|INTERRES
    65   32  111 1    
    66   33   34 2    
    67   33   35 1    
    68   35   36 1    
    69   35   37 1    
    70   35  112 1    
    71   36  113 1    
    72   36  114 1    
    73   36  115 1    
    74   37   38 am   BACKBONE|DICT|INTERRES
    75   37  116 1    
    76   38   39 2    
    77   38   40 1    
    78   40   41 1    
    79   40   42 1    
    80   40  117 1    
    81   41  118 1    
    82   41  119 1    
    83   41  120 1    
    84   42   43 am   BACKBONE|DICT|INTERRES
    85   42  121 1    
    86   43   44 2    
    87   43   45 1    
    88   45   46 1    
    89   45   47 1    
    90   45  122 1    
    91   46  123 1    
    92   46  124 1    
    93   46  125 1    
    94   47   48 am   BACKBONE|DICT|INTERRES
    95   47  126 1    
    96   48   49 2    
    97   48   50 1    
    98   50   51 1    
    99   50   52 1    
   100   50  127 1    
   101   51  128 1    
   102   51  129 1    
   103   51  130 1    
   104   52   53 am   BACKBONE|DICT|INTERRES
   105   52  131 1    
   106   53   54 2    
   107   53   55 1    
   108   55   56 1    
   109   55   59 1    
   110   55  132 1    
   111   56   57 1    
   112   56  133 1    
   113   56  134 1    
   114   57   58 1    
   115   58  135 1    
   116   58  136 1    
   117   59   60 am   BACKBONE|DICT|INTERRES
   118   59  137 1    
   119   60   61 2    
   120   60   62 1    
   121   62   63 1    
   122   62   64 1    
   123   62  138 1    
   124   63  139 1    
   125   63  140 1    
   126   63  141 1    
   127   64   65 am   BACKBONE|DICT|INTERRES
   128   64  142 1    
   129   65   66 2    
   130   65   67 1    
   131   67   68 1    
   132   67   69 1    
   133   67  143 1    
   134   68  144 1    
   135   68  145 1    
   136   68  146 1    
   137   69   70 am   BACKBONE|DICT|INTERRES
   138   69  147 1    
   139   70   71 2    
   140   70   72 1    
   141   72   73 1    
   142   72   74 1    
   143   72  148 1    
   144   73  149 1    
   145   73  150 1    
   146   73  151 1    
   147   74   75 am   BACKBONE|DICT|INTERRES
   148   74  152 1    
   149   75   76 2    
   150   75   77 1    
   151   77   78 1    
   152   77   79 1    
   153   77  153 1    
   154   78  154 1    
   155   78  155 1    
   156   78  156 1    
   157   79   80 am   BACKBONE|DICT|INTERRES
   158   79  157 1    
   159   80   81 2    
@<TRIPOS>SUBSTRUCTURE
     1 UNK         1 GROUP             0       ****    0 ROOT    
