@<TRIPOS>MOLECULE
3R207
157   159    1
SMALL
USER_CHARGES


@<TRIPOS>ATOM
      1 CA        -49.4159  -30.7117    6.5805 C.3       0 UNK        -0.1975 
      2 C         -49.5172  -29.9298    5.2816 C.2       0 UNK         0.4852 
      3 O         -48.5514  -29.8785    4.5192 O.2       0 UNK        -0.5216 
      4 N         -50.6741  -29.3048    5.0251 N.am      1 UNK        -0.4461 
      5 CA        -51.0288  -28.5928    3.7885 C.3       1 UNK         0.0864 
      6 C6        -52.5701  -28.5565    3.5851 C.3       14 UNK        -0.0898 
      7 S7        -53.5148  -27.5136    4.7559 S.3       14 UNK        -0.2598 
      8 C8        -54.1511  -28.7092    5.9799 C.3       14 UNK         0.0286 
      9 C9        -53.1703  -29.0491    7.1008 C.ar      14 UNK        -0.0844 
     10 C10       -52.2639  -28.1036    7.5988 C.ar      14 UNK        -0.0881 
     11 C11       -51.3970  -28.4260    8.6459 C.ar      14 UNK        -0.0643 
     12 C12       -51.4645  -29.6930    9.2285 C.ar      14 UNK        -0.0930 
     13 C13       -52.3876  -30.6346    8.7675 C.ar      14 UNK        -0.0827 
     14 C14       -53.2198  -30.3159    7.6899 C.ar      14 UNK        -0.1249 
     15 C15       -52.5073  -31.9848    9.4571 C.3       14 UNK         0.0141 
     16 S16       -54.0805  -32.1436   10.3640 S.3       14 UNK        -0.2313 
     17 C17       -54.0165  -30.7404   11.5360 C.3       14 UNK        -0.0915 
     18 CA        -54.7981  -29.4865   11.0532 C.3       13 UNK         0.0968 
     19 C         -56.3234  -29.7540   10.9131 C.2       13 UNK         0.5732 
     20 N         -56.8272  -29.8846    9.6930 N.am      13 UNK        -0.7310 
     21 O         -57.0430  -29.8753   11.9025 O.2       13 UNK        -0.5035 
     22 N         -54.5243  -28.3428   11.9330 N.am      13 UNK        -0.4233 
     23 C         -54.8799  -27.0747   11.6849 C.2       13 UNK         0.4989 
     24 O         -55.4106  -26.7158   10.6327 O.2       13 UNK        -0.4996 
     25 CA        -54.5707  -26.0077   12.7607 C.3       12 UNK         0.0216 
     26 CB        -55.7702  -25.0661   12.9959 C.3       12 UNK        -0.1964 
     27 N         -54.0586  -26.5149   14.0437 N.am      12 UNK        -0.4276 
     28 C         -54.6672  -27.3231   14.9263 C.2       12 UNK         0.5020 
     29 O         -55.7859  -27.8083   14.7663 O.2       12 UNK        -0.5489 
     30 CA        -53.8765  -27.6599   16.1984 C.3       11 UNK         0.0294 
     31 CB        -52.8751  -28.7946   15.9221 C.3       11 UNK        -0.2019 
     32 N         -53.1518  -26.4903   16.6929 N.am      11 UNK        -0.4493 
     33 C         -53.6187  -25.6154   17.5920 C.2       11 UNK         0.4932 
     34 O         -54.7100  -25.7303   18.1523 O.2       11 UNK        -0.5029 
     35 CA        -52.7198  -24.3997   17.9021 C.3       10 UNK         0.0280 
     36 CB        -52.9783  -23.8008   19.3010 C.3       10 UNK        -0.1976 
     37 N         -51.2887  -24.6586   17.6928 N.am      10 UNK        -0.4242 
     38 C         -50.5093  -25.5397   18.3420 C.2       10 UNK         0.5072 
     39 O         -50.8987  -26.2398   19.2776 O.2       10 UNK        -0.5224 
     40 CA        -49.0546  -25.7046   17.8548 C.3       9 UNK         0.0343 
     41 CB        -48.8730  -27.0801   17.1906 C.3       9 UNK        -0.2003 
     42 N         -48.6211  -24.6714   16.9113 N.am      9 UNK        -0.4272 
     43 C         -48.3486  -23.3977   17.2270 C.2       9 UNK         0.4988 
     44 O         -48.3471  -22.9596   18.3775 O.2       9 UNK        -0.5108 
     45 CA        -48.0840  -22.4421   16.0497 C.3       8 UNK         0.0248 
     46 CB        -46.6094  -22.4976   15.6182 C.3       8 UNK        -0.2001 
     47 N         -48.9507  -22.7164   14.8976 N.am      8 UNK        -0.4140 
     48 C         -50.2853  -22.5762   14.8976 C.2       8 UNK         0.5028 
     49 O         -50.9308  -22.1583   15.8579 O.2       8 UNK        -0.5428 
     50 CA        -51.0323  -23.0372   13.6388 C.3       7 UNK         0.0264 
     51 CB        -51.0168  -21.9461   12.5572 C.3       7 UNK        -0.1988 
     52 N         -50.4684  -24.2768   13.1049 N.am      7 UNK        -0.4454 
     53 C         -50.6711  -25.4869   13.6484 C.2       7 UNK         0.5027 
     54 O         -51.3939  -25.6808   14.6273 O.2       7 UNK        -0.5083 
     55 CA        -49.9539  -26.6933   13.0052 C.3       6 UNK         0.0844 
     56 C56       -50.8509  -27.3770   11.9448 C.3       14 UNK        -0.0967 
     57 S57       -51.1160  -26.3575   10.4465 S.3       14 UNK        -0.2604 
     58 C58       -50.3953  -27.3981    9.1449 C.3       14 UNK         0.0134 
     59 N         -48.6331  -26.3595   12.4709 N.am      6 UNK        -0.4116 
     60 C         -47.6153  -25.8429   13.1708 C.2       5 UNK         0.5034 
     61 O         -47.6396  -25.6746   14.3894 O.2       5 UNK        -0.5045 
     62 CA        -46.3843  -25.3804   12.3723 C.3       5 UNK         0.0224 
     63 CB        -45.2778  -26.4441   12.4370 C.3       5 UNK        -0.1978 
     64 N         -46.6492  -25.0490   10.9655 N.am      5 UNK        -0.4737 
     65 C         -47.5276  -24.1492   10.5048 C.2       4 UNK         0.5027 
     66 O         -48.2864  -23.5148   11.2382 O.2       4 UNK        -0.5211 
     67 CA        -47.6068  -23.9325    8.9797 C.3       4 UNK         0.0297 
     68 CB        -46.7082  -22.7553    8.5566 C.3       4 UNK        -0.1993 
     69 N         -47.3543  -25.1184    8.1396 N.am      4 UNK        -0.4486 
     70 C         -46.2314  -25.8425    8.0041 C.2       3 UNK         0.4961 
     71 O         -45.1995  -25.6387    8.6434 O.2       3 UNK        -0.5105 
     72 CA        -46.2667  -27.0178    7.0112 C.3       3 UNK         0.0299 
     73 CB        -46.5634  -28.3328    7.7497 C.3       3 UNK        -0.1972 
     74 N         -47.2285  -26.8482    5.9169 N.am      3 UNK        -0.4305 
     75 C         -47.0737  -25.9945    4.8925 C.2       2 UNK         0.5006 
     76 O         -46.1205  -25.2201    4.7973 O.2       2 UNK        -0.5106 
     77 CA        -48.1440  -26.0071    3.7849 C.3       2 UNK         0.0296 
     78 CB        -47.5233  -25.9126    2.3775 C.3       2 UNK        -0.2002 
     79 N         -49.0030  -27.1924    3.8592 N.am      2 UNK        -0.4032 
     80 C         -50.3193  -27.2210    3.6216 C.2       1 UNK         0.5000 
     81 O         -50.9558  -26.2242    3.2736 O.2       1 UNK        -0.5238 
     82 H82       -48.6579  -31.4903    6.4992 H         1 UNK         0.0889 
     83 H83       -50.3628  -31.1935    6.8206 H         1 UNK         0.0889 
     84 H84       -49.1415  -30.0534    7.4029 H         1 UNK         0.0889 
     85 H85       -51.4093  -29.3334    5.7209 H         1 UNK         0.3028 
     86 H86       -50.6403  -29.1986    2.9666 H         1 UNK         0.0864 
     87 H87       -52.7932  -28.1948    2.5798 H         1 UNK         0.0720 
     88 H88       -52.9674  -29.5722    3.6132 H         1 UNK         0.0720 
     89 H89       -54.4786  -29.6130    5.4639 H         1 UNK         0.0814 
     90 H90       -55.0434  -28.2808    6.4380 H         1 UNK         0.0814 
     91 H91       -52.2294  -27.1087    7.1769 H         1 UNK         0.1469 
     92 H92       -50.8089  -29.9437   10.0501 H         1 UNK         0.1381 
     93 H93       -53.9346  -31.0476    7.3379 H         1 UNK         0.1206 
     94 H94       -52.4458  -32.7776    8.7104 H         1 UNK         0.0813 
     95 H95       -51.6782  -32.1484   10.1473 H         1 UNK         0.0813 
     96 H96       -52.9704  -30.4857   11.7120 H         1 UNK         0.0638 
     97 H97       -54.4048  -31.0825   12.4971 H         1 UNK         0.0638 
     98 H98       -54.4128  -29.2086   10.0712 H         1 UNK         0.0568 
     99 H99       -56.2375  -29.8029    8.8804 H         1 UNK         0.3450 
    100 H100      -57.8114  -30.0710    9.5850 H         1 UNK         0.3450 
    101 H101      -54.1678  -28.5626   12.8490 H         1 UNK         0.2987 
    102 H102      -53.7624  -25.4048   12.3432 H         1 UNK         0.0766 
    103 H103      -55.5255  -24.2847   13.7154 H         1 UNK         0.0798 
    104 H104      -56.6402  -25.6067   13.3699 H         1 UNK         0.0798 
    105 H105      -56.0694  -24.5696   12.0719 H         1 UNK         0.0798 
    106 H106      -53.1298  -26.1823   14.2937 H         1 UNK         0.3198 
    107 H107      -54.5832  -28.0046   16.9567 H         1 UNK         0.0843 
    108 H108      -53.3865  -29.6865   15.5571 H         1 UNK         0.0831 
    109 H109      -52.3422  -29.0776   16.8302 H         1 UNK         0.0831 
    110 H110      -52.1318  -28.5132   15.1751 H         1 UNK         0.0831 
    111 H111      -52.2758  -26.2666   16.2298 H         1 UNK         0.3133 
    112 H112      -52.9906  -23.6392   17.1684 H         1 UNK         0.0566 
    113 H113      -52.3377  -22.9387   19.4869 H         1 UNK         0.0814 
    114 H114      -54.0104  -23.4619   19.3972 H         1 UNK         0.0814 
    115 H115      -52.8014  -24.5286   20.0933 H         1 UNK         0.0814 
    116 H116      -50.8662  -24.1168   16.9493 H         1 UNK         0.3091 
    117 H117      -48.4084  -25.6583   18.7337 H         1 UNK         0.0702 
    118 H118      -47.8398  -27.2380   16.8801 H         1 UNK         0.0785 
    119 H119      -49.5070  -27.1877   16.3100 H         1 UNK         0.0785 
    120 H120      -49.1310  -27.8862   17.8787 H         1 UNK         0.0785 
    121 H121      -48.4987  -24.9642   15.9453 H         1 UNK         0.2998 
    122 H122      -48.3000  -21.4277   16.3920 H         1 UNK         0.0697 
    123 H123      -46.3218  -23.4915   15.2747 H         1 UNK         0.0825 
    124 H124      -45.9527  -22.2409   16.4505 H         1 UNK         0.0825 
    125 H125      -46.4028  -21.7906   14.8145 H         1 UNK         0.0825 
    126 H126      -48.5083  -23.0820   14.0664 H         1 UNK         0.3029 
    127 H127      -52.0731  -23.2215   13.9159 H         1 UNK         0.0897 
    128 H128      -51.5679  -22.2604   11.6706 H         1 UNK         0.0792 
    129 H129      -51.4840  -21.0306   12.9224 H         1 UNK         0.0792 
    130 H130      -50.0023  -21.6926   12.2479 H         1 UNK         0.0792 
    131 H131      -49.8427  -24.1871   12.3089 H         1 UNK         0.3086 
    132 H132      -49.7889  -27.4153   13.8076 H         1 UNK         0.0583 
    133 H133      -51.8216  -27.6332   12.3695 H         1 UNK         0.1020 
    134 H134      -50.4042  -28.3319   11.6689 H         1 UNK         0.1020 
    135 H135      -50.0840  -26.7579    8.3186 H         1 UNK         0.0694 
    136 H136      -49.4907  -27.8844    9.5111 H         1 UNK         0.0694 
    137 H137      -48.5267  -26.4277   11.4703 H         1 UNK         0.2989 
    138 H138      -46.0175  -24.4720   12.8543 H         1 UNK         0.1055 
    139 H139      -45.0356  -26.6958   13.4708 H         1 UNK         0.0806 
    140 H140      -44.3593  -26.0901   11.9682 H         1 UNK         0.0806 
    141 H141      -45.5752  -27.3666   11.9365 H         1 UNK         0.0806 
    142 H142      -46.0327  -25.4662   10.2710 H         1 UNK         0.3061 
    143 H143      -48.6388  -23.6445    8.7716 H         1 UNK         0.0734 
    144 H144      -46.9655  -21.8507    9.1096 H         1 UNK         0.0832 
    145 H145      -45.6536  -22.9596    8.7441 H         1 UNK         0.0832 
    146 H146      -46.8225  -22.5302    7.4962 H         1 UNK         0.0832 
    147 H147      -48.1376  -25.4007    7.5687 H         1 UNK         0.3156 
    148 H148      -45.2701  -27.0991    6.5715 H         1 UNK         0.0589 
    149 H149      -47.5491  -28.3250    8.2128 H         1 UNK         0.0808 
    150 H150      -46.5143  -29.1875    7.0744 H         1 UNK         0.0808 
    151 H151      -45.8342  -28.5079    8.5423 H         1 UNK         0.0808 
    152 H152      -48.0434  -27.4414    5.9305 H         1 UNK         0.3098 
    153 H153      -48.7486  -25.1133    3.9522 H         1 UNK         0.0720 
    154 H154      -48.2935  -25.8708    1.6071 H         1 UNK         0.0791 
    155 H155      -46.8822  -26.7688    2.1644 H         1 UNK         0.0791 
    156 H156      -46.9160  -25.0128    2.2713 H         1 UNK         0.0791 
    157 H157      -48.5542  -28.0817    4.0742 H         1 UNK         0.3028 
@<TRIPOS>BOND
     1    1    2 1    
     2    1   82 1    
     3    1   83 1    
     4    1   84 1    
     5    2    3 2    
     6    2    4 am   BACKBONE|DICT|INTERRES
     7    4    5 1    
     8    4   85 1    
     9    5    6 1    
    10    5   80 1    
    11    5   86 1    
    12    6    7 1    
    13    6   87 1    
    14    6   88 1    
    15    7    8 1    
    16    8    9 1    
    17    8   89 1    
    18    8   90 1    
    19    9   10 ar   
    20    9   14 ar   
    21   10   11 ar   
    22   10   91 1    
    23   11   12 ar   
    24   11   58 1    
    25   12   13 ar   
    26   12   92 1    
    27   13   14 ar   
    28   13   15 1    
    29   14   93 1    
    30   15   16 1    
    31   15   94 1    
    32   15   95 1    
    33   16   17 1    
    34   17   18 1    
    35   17   96 1    
    36   17   97 1    
    37   18   19 1    
    38   18   22 1    
    39   18   98 1    
    40   19   20 am   BACKBONE|DICT|INTERRES
    41   19   21 2    
    42   20   99 1    
    43   20  100 1    
    44   22   23 am   BACKBONE|DICT|INTERRES
    45   22  101 1    
    46   23   24 2    
    47   23   25 1    
    48   25   26 1    
    49   25   27 1    
    50   25  102 1    
    51   26  103 1    
    52   26  104 1    
    53   26  105 1    
    54   27   28 am   BACKBONE|DICT|INTERRES
    55   27  106 1    
    56   28   29 2    
    57   28   30 1    
    58   30   31 1    
    59   30   32 1    
    60   30  107 1    
    61   31  108 1    
    62   31  109 1    
    63   31  110 1    
    64   32   33 am   BACKBONE|DICT|INTERRES
    65   32  111 1    
    66   33   34 2    
    67   33   35 1    
    68   35   36 1    
    69   35   37 1    
    70   35  112 1    
    71   36  113 1    
    72   36  114 1    
    73   36  115 1    
    74   37   38 am   BACKBONE|DICT|INTERRES
    75   37  116 1    
    76   38   39 2    
    77   38   40 1    
    78   40   41 1    
    79   40   42 1    
    80   40  117 1    
    81   41  118 1    
    82   41  119 1    
    83   41  120 1    
    84   42   43 am   BACKBONE|DICT|INTERRES
    85   42  121 1    
    86   43   44 2    
    87   43   45 1    
    88   45   46 1    
    89   45   47 1    
    90   45  122 1    
    91   46  123 1    
    92   46  124 1    
    93   46  125 1    
    94   47   48 am   BACKBONE|DICT|INTERRES
    95   47  126 1    
    96   48   49 2    
    97   48   50 1    
    98   50   51 1    
    99   50   52 1    
   100   50  127 1    
   101   51  128 1    
   102   51  129 1    
   103   51  130 1    
   104   52   53 am   BACKBONE|DICT|INTERRES
   105   52  131 1    
   106   53   54 2    
   107   53   55 1    
   108   55   56 1    
   109   55   59 1    
   110   55  132 1    
   111   56   57 1    
   112   56  133 1    
   113   56  134 1    
   114   57   58 1    
   115   58  135 1    
   116   58  136 1    
   117   59   60 am   BACKBONE|DICT|INTERRES
   118   59  137 1    
   119   60   61 2    
   120   60   62 1    
   121   62   63 1    
   122   62   64 1    
   123   62  138 1    
   124   63  139 1    
   125   63  140 1    
   126   63  141 1    
   127   64   65 am   BACKBONE|DICT|INTERRES
   128   64  142 1    
   129   65   66 2    
   130   65   67 1    
   131   67   68 1    
   132   67   69 1    
   133   67  143 1    
   134   68  144 1    
   135   68  145 1    
   136   68  146 1    
   137   69   70 am   BACKBONE|DICT|INTERRES
   138   69  147 1    
   139   70   71 2    
   140   70   72 1    
   141   72   73 1    
   142   72   74 1    
   143   72  148 1    
   144   73  149 1    
   145   73  150 1    
   146   73  151 1    
   147   74   75 am   BACKBONE|DICT|INTERRES
   148   74  152 1    
   149   75   76 2    
   150   75   77 1    
   151   77   78 1    
   152   77   79 1    
   153   77  153 1    
   154   78  154 1    
   155   78  155 1    
   156   78  156 1    
   157   79   80 am   BACKBONE|DICT|INTERRES
   158   79  157 1    
   159   80   81 2    
@<TRIPOS>SUBSTRUCTURE
     1 UNK         1 GROUP             0       ****    0 ROOT    
