@<TRIPOS>MOLECULE
3R207
157   159    1
SMALL
USER_CHARGES


@<TRIPOS>ATOM
      1 CA        -50.1101  -28.7682    9.7633 C.3       0 UNK        -0.1975 
      2 C         -49.3226  -29.4130    8.6341 C.2       0 UNK         0.4852 
      3 O         -48.2484  -29.9631    8.8741 O.2       0 UNK        -0.5216 
      4 N         -49.8371  -29.3340    7.3999 N.am      1 UNK        -0.4461 
      5 CA        -49.1835  -29.8483    6.1871 C.3       1 UNK         0.0864 
      6 C6        -50.2276  -30.1979    5.0963 C.3       14 UNK        -0.0898 
      7 S7        -51.1131  -28.7550    4.4036 S.3       14 UNK        -0.2598 
      8 C8        -52.8109  -29.0082    5.0051 C.3       14 UNK         0.0286 
      9 C9        -53.0053  -28.5211    6.4345 C.ar      14 UNK        -0.0844 
     10 C10       -52.9060  -27.1567    6.7275 C.ar      14 UNK        -0.0881 
     11 C11       -53.1839  -26.6781    8.0116 C.ar      14 UNK        -0.0643 
     12 C12       -53.5668  -27.5846    9.0069 C.ar      14 UNK        -0.0930 
     13 C13       -53.6562  -28.9522    8.7311 C.ar      14 UNK        -0.0827 
     14 C14       -53.3639  -29.4176    7.4457 C.ar      14 UNK        -0.1249 
     15 C15       -54.1173  -29.9135    9.8148 C.3       14 UNK         0.0141 
     16 S16       -55.9332  -30.0436    9.8144 S.3       14 UNK        -0.2313 
     17 C17       -56.2381  -30.7183   11.4795 C.3       14 UNK        -0.0915 
     18 CA        -56.3551  -29.5835   12.5446 C.3       13 UNK         0.0968 
     19 C         -57.7211  -28.8449   12.5566 C.2       13 UNK         0.5732 
     20 N         -57.8569  -27.7879   13.3462 N.am      13 UNK        -0.7310 
     21 O         -58.6748  -29.2362   11.8874 O.2       13 UNK        -0.5035 
     22 N         -56.0136  -30.0102   13.9061 N.am      13 UNK        -0.4233 
     23 C         -54.8171  -30.4399   14.3177 C.2       13 UNK         0.4989 
     24 O         -53.8561  -30.6309   13.5709 O.2       13 UNK        -0.4996 
     25 CA        -54.6617  -30.6209   15.8338 C.3       12 UNK         0.0216 
     26 CB        -53.4730  -31.5276   16.2037 C.3       12 UNK        -0.1964 
     27 N         -54.4356  -29.2918   16.3895 N.am      12 UNK        -0.4276 
     28 C         -55.2791  -28.6141   17.1776 C.2       12 UNK         0.5020 
     29 O         -56.3076  -29.0968   17.6533 O.2       12 UNK        -0.5489 
     30 CA        -54.9406  -27.1352   17.4645 C.3       11 UNK         0.0294 
     31 CB        -54.1862  -27.0063   18.7974 C.3       11 UNK        -0.2019 
     32 N         -54.1579  -26.4901   16.4035 N.am      11 UNK        -0.4493 
     33 C         -54.5661  -26.3368   15.1353 C.2       11 UNK         0.4932 
     34 O         -55.7025  -26.6147   14.7511 O.2       11 UNK        -0.5029 
     35 CA        -53.5417  -25.8246   14.1029 C.3       10 UNK         0.0280 
     36 CB        -53.7769  -24.3265   13.8460 C.3       10 UNK        -0.1976 
     37 N         -52.1149  -26.0672   14.3929 N.am      10 UNK        -0.4242 
     38 C         -51.5661  -27.2386   14.7596 C.2       10 UNK         0.5072 
     39 O         -52.2240  -28.2471   15.0079 O.2       10 UNK        -0.5224 
     40 CA        -50.0374  -27.3514   14.8769 C.3       9 UNK         0.0343 
     41 CB        -49.4889  -28.2467   13.7534 C.3       9 UNK        -0.2003 
     42 N         -49.3014  -26.0867   14.8794 N.am      9 UNK        -0.4272 
     43 C         -49.2084  -25.2516   15.9234 C.2       9 UNK         0.4988 
     44 O         -49.8682  -25.3754   16.9557 O.2       9 UNK        -0.5108 
     45 CA        -48.1839  -24.1088   15.8157 C.3       8 UNK         0.0248 
     46 CB        -46.7652  -24.6378   16.0850 C.3       8 UNK        -0.2001 
     47 N         -48.2184  -23.4790   14.4952 N.am      8 UNK        -0.4140 
     48 C         -48.7306  -22.2665   14.2400 C.2       8 UNK         0.5028 
     49 O         -49.1090  -21.4842   15.1136 O.2       8 UNK        -0.5428 
     50 CA        -48.8759  -21.8489   12.7600 C.3       7 UNK         0.0264 
     51 CB        -47.6802  -20.9842   12.3292 C.3       7 UNK        -0.1988 
     52 N         -49.0349  -22.9557   11.8075 N.am      7 UNK        -0.4454 
     53 C         -49.9427  -23.9401   11.9020 C.2       7 UNK         0.5027 
     54 O         -50.7669  -24.0189   12.8117 O.2       7 UNK        -0.5083 
     55 CA        -49.8586  -25.0862   10.8716 C.3       6 UNK         0.0844 
     56 C56       -50.6776  -24.7828    9.5922 C.3       14 UNK        -0.0967 
     57 S57       -52.4743  -24.7113    9.9016 S.3       14 UNK        -0.2604 
     58 C58       -53.1590  -25.1748    8.2768 C.3       14 UNK         0.0134 
     59 N         -48.4766  -25.4625   10.5518 N.am      6 UNK        -0.4116 
     60 C         -47.5193  -25.8028   11.4296 C.2       5 UNK         0.5034 
     61 O         -47.6739  -25.8182   12.6503 O.2       5 UNK        -0.5045 
     62 CA        -46.1381  -26.1265   10.8489 C.3       5 UNK         0.0224 
     63 CB        -46.1438  -27.4723   10.1062 C.3       5 UNK        -0.1978 
     64 N         -45.6898  -25.0558    9.9596 N.am      5 UNK        -0.4737 
     65 C         -45.2219  -23.8750   10.3890 C.2       4 UNK         0.5027 
     66 O         -45.0120  -23.6113   11.5725 O.2       4 UNK        -0.5211 
     67 CA        -44.9578  -22.7983    9.3223 C.3       4 UNK         0.0297 
     68 CB        -43.4923  -22.8472    8.8619 C.3       4 UNK        -0.1993 
     69 N         -45.8380  -22.9090    8.1557 N.am      4 UNK        -0.4486 
     70 C         -47.1630  -22.7053    8.1765 C.2       3 UNK         0.4961 
     71 O         -47.7985  -22.3948    9.1845 O.2       3 UNK        -0.5105 
     72 CA        -47.9077  -22.9509    6.8529 C.3       3 UNK         0.0299 
     73 CB        -47.7613  -21.7441    5.9125 C.3       3 UNK        -0.1972 
     74 N         -47.4749  -24.1756    6.1665 N.am      3 UNK        -0.4305 
     75 C         -47.6041  -25.4037    6.6839 C.2       2 UNK         0.5006 
     76 O         -48.0658  -25.6257    7.8066 O.2       2 UNK        -0.5106 
     77 CA        -47.1229  -26.5864    5.8401 C.3       2 UNK         0.0296 
     78 CB        -45.6372  -26.8847    6.1178 C.3       2 UNK        -0.2002 
     79 N         -47.9681  -27.7107    6.2204 N.am      2 UNK        -0.4032 
     80 C         -48.0713  -28.9136    5.6471 C.2       1 UNK         0.5000 
     81 O         -47.3593  -29.2906    4.7139 O.2       1 UNK        -0.5238 
     82 H82       -50.6786  -29.5213   10.3082 H         1 UNK         0.0889 
     83 H83       -50.8018  -28.0143    9.3910 H         1 UNK         0.0889 
     84 H84       -49.4284  -28.2823   10.4591 H         1 UNK         0.0889 
     85 H85       -50.7367  -28.8933    7.2533 H         1 UNK         0.3028 
     86 H86       -48.6817  -30.7815    6.4526 H         1 UNK         0.0864 
     87 H87       -49.7398  -30.7157    4.2683 H         1 UNK         0.0720 
     88 H88       -50.9478  -30.9132    5.4962 H         1 UNK         0.0720 
     89 H89       -53.0887  -30.0582    4.9009 H         1 UNK         0.0814 
     90 H90       -53.4915  -28.4548    4.3564 H         1 UNK         0.0814 
     91 H91       -52.6467  -26.4625    5.9393 H         1 UNK         0.1469 
     92 H92       -53.8200  -27.2239    9.9944 H         1 UNK         0.1381 
     93 H93       -53.4595  -30.4720    7.2244 H         1 UNK         0.1206 
     94 H94       -53.6805  -30.9019    9.6644 H         1 UNK         0.0813 
     95 H95       -53.7681  -29.5671   10.7893 H         1 UNK         0.0813 
     96 H96       -57.1378  -31.3354   11.4591 H         1 UNK         0.0638 
     97 H97       -55.4250  -31.4070   11.7071 H         1 UNK         0.0638 
     98 H98       -55.6207  -28.8164   12.2905 H         1 UNK         0.0568 
     99 H99       -58.7425  -27.3086   13.3731 H         1 UNK         0.3450 
    100 H100      -57.0708  -27.4214   13.8806 H         1 UNK         0.3450 
    101 H101      -56.7373  -29.8440   14.5925 H         1 UNK         0.2987 
    102 H102      -55.5763  -31.0693   16.2277 H         1 UNK         0.0766 
    103 H103      -52.5249  -31.1176   15.8519 H         1 UNK         0.0798 
    104 H104      -53.3985  -31.6581   17.2833 H         1 UNK         0.0798 
    105 H105      -53.5863  -32.5184   15.7622 H         1 UNK         0.0798 
    106 H106      -53.6363  -28.7984   15.9882 H         1 UNK         0.3198 
    107 H107      -55.8867  -26.5965   17.5503 H         1 UNK         0.0843 
    108 H108      -54.7555  -27.4557   19.6123 H         1 UNK         0.0831 
    109 H109      -54.0177  -25.9618   19.0602 H         1 UNK         0.0831 
    110 H110      -53.2172  -27.5061   18.7627 H         1 UNK         0.0831 
    111 H111      -53.2051  -26.2390   16.6255 H         1 UNK         0.3133 
    112 H112      -53.7576  -26.3571   13.1746 H         1 UNK         0.0566 
    113 H113      -53.3085  -24.0051   12.9167 H         1 UNK         0.0814 
    114 H114      -54.8400  -24.1003   13.7489 H         1 UNK         0.0814 
    115 H115      -53.3838  -23.7108   14.6555 H         1 UNK         0.0814 
    116 H116      -51.4863  -25.3069   14.1487 H         1 UNK         0.3091 
    117 H117      -49.8339  -27.8523   15.8259 H         1 UNK         0.0702 
    118 H118      -48.4149  -28.4031   13.8557 H         1 UNK         0.0785 
    119 H119      -49.6735  -27.8112   12.7726 H         1 UNK         0.0785 
    120 H120      -49.9618  -29.2299   13.7667 H         1 UNK         0.0785 
    121 H121      -48.7077  -25.9248   14.0679 H         1 UNK         0.2998 
    122 H122      -48.4223  -23.3803   16.5934 H         1 UNK         0.0697 
    123 H123      -46.4546  -25.3681   15.3362 H         1 UNK         0.0825 
    124 H124      -46.7073  -25.1234   17.0601 H         1 UNK         0.0825 
    125 H125      -46.0357  -23.8278   16.0827 H         1 UNK         0.0825 
    126 H126      -47.9440  -24.0591   13.7103 H         1 UNK         0.3029 
    127 H127      -49.7801  -21.2410   12.6907 H         1 UNK         0.0897 
    128 H128      -47.8217  -20.5810   11.3262 H         1 UNK         0.0792 
    129 H129      -47.5466  -20.1359   13.0021 H         1 UNK         0.0792 
    130 H130      -46.7506  -21.5545   12.3332 H         1 UNK         0.0792 
    131 H131      -48.4296  -22.9378   10.9909 H         1 UNK         0.3086 
    132 H132      -50.3024  -25.9642   11.3446 H         1 UNK         0.0583 
    133 H133      -50.3527  -23.8480    9.1314 H         1 UNK         0.1020 
    134 H134      -50.4998  -25.5616    8.8495 H         1 UNK         0.1020 
    135 H135      -54.1840  -24.8064    8.2212 H         1 UNK         0.0694 
    136 H136      -52.6022  -24.6508    7.4981 H         1 UNK         0.0694 
    137 H137      -48.2430  -25.4683    9.5601 H         1 UNK         0.2989 
    138 H138      -45.4377  -26.2067   11.6838 H         1 UNK         0.1055 
    139 H139      -45.1474  -27.7307    9.7480 H         1 UNK         0.0806 
    140 H140      -46.8162  -27.4700    9.2489 H         1 UNK         0.0806 
    141 H141      -46.4679  -28.2790   10.7655 H         1 UNK         0.0806 
    142 H142      -45.8649  -25.1727    8.9725 H         1 UNK         0.3061 
    143 H143      -45.1394  -21.8266    9.7872 H         1 UNK         0.0734 
    144 H144      -42.8144  -22.7412    9.7102 H         1 UNK         0.0832 
    145 H145      -43.2528  -23.7912    8.3706 H         1 UNK         0.0832 
    146 H146      -43.2661  -22.0381    8.1671 H         1 UNK         0.0832 
    147 H147      -45.4070  -23.1658    7.2795 H         1 UNK         0.3156 
    148 H148      -48.9676  -23.0643    7.0908 H         1 UNK         0.0589 
    149 H149      -46.7274  -21.5935    5.5997 H         1 UNK         0.0808 
    150 H150      -48.3694  -21.8642    5.0157 H         1 UNK         0.0808 
    151 H151      -48.0901  -20.8265    6.4028 H         1 UNK         0.0808 
    152 H152      -47.0839  -24.0698    5.2408 H         1 UNK         0.3098 
    153 H153      -47.2758  -26.3677    4.7816 H         1 UNK         0.0720 
    154 H154      -45.2754  -27.7128    5.5085 H         1 UNK         0.0791 
    155 H155      -45.4645  -27.1426    7.1629 H         1 UNK         0.0791 
    156 H156      -45.0129  -26.0211    5.8854 H         1 UNK         0.0791 
    157 H157      -48.5886  -27.4926    6.9901 H         1 UNK         0.3028 
@<TRIPOS>BOND
     1    1    2 1    
     2    1   82 1    
     3    1   83 1    
     4    1   84 1    
     5    2    3 2    
     6    2    4 am   BACKBONE|DICT|INTERRES
     7    4    5 1    
     8    4   85 1    
     9    5    6 1    
    10    5   80 1    
    11    5   86 1    
    12    6    7 1    
    13    6   87 1    
    14    6   88 1    
    15    7    8 1    
    16    8    9 1    
    17    8   89 1    
    18    8   90 1    
    19    9   10 ar   
    20    9   14 ar   
    21   10   11 ar   
    22   10   91 1    
    23   11   12 ar   
    24   11   58 1    
    25   12   13 ar   
    26   12   92 1    
    27   13   14 ar   
    28   13   15 1    
    29   14   93 1    
    30   15   16 1    
    31   15   94 1    
    32   15   95 1    
    33   16   17 1    
    34   17   18 1    
    35   17   96 1    
    36   17   97 1    
    37   18   19 1    
    38   18   22 1    
    39   18   98 1    
    40   19   20 am   BACKBONE|DICT|INTERRES
    41   19   21 2    
    42   20   99 1    
    43   20  100 1    
    44   22   23 am   BACKBONE|DICT|INTERRES
    45   22  101 1    
    46   23   24 2    
    47   23   25 1    
    48   25   26 1    
    49   25   27 1    
    50   25  102 1    
    51   26  103 1    
    52   26  104 1    
    53   26  105 1    
    54   27   28 am   BACKBONE|DICT|INTERRES
    55   27  106 1    
    56   28   29 2    
    57   28   30 1    
    58   30   31 1    
    59   30   32 1    
    60   30  107 1    
    61   31  108 1    
    62   31  109 1    
    63   31  110 1    
    64   32   33 am   BACKBONE|DICT|INTERRES
    65   32  111 1    
    66   33   34 2    
    67   33   35 1    
    68   35   36 1    
    69   35   37 1    
    70   35  112 1    
    71   36  113 1    
    72   36  114 1    
    73   36  115 1    
    74   37   38 am   BACKBONE|DICT|INTERRES
    75   37  116 1    
    76   38   39 2    
    77   38   40 1    
    78   40   41 1    
    79   40   42 1    
    80   40  117 1    
    81   41  118 1    
    82   41  119 1    
    83   41  120 1    
    84   42   43 am   BACKBONE|DICT|INTERRES
    85   42  121 1    
    86   43   44 2    
    87   43   45 1    
    88   45   46 1    
    89   45   47 1    
    90   45  122 1    
    91   46  123 1    
    92   46  124 1    
    93   46  125 1    
    94   47   48 am   BACKBONE|DICT|INTERRES
    95   47  126 1    
    96   48   49 2    
    97   48   50 1    
    98   50   51 1    
    99   50   52 1    
   100   50  127 1    
   101   51  128 1    
   102   51  129 1    
   103   51  130 1    
   104   52   53 am   BACKBONE|DICT|INTERRES
   105   52  131 1    
   106   53   54 2    
   107   53   55 1    
   108   55   56 1    
   109   55   59 1    
   110   55  132 1    
   111   56   57 1    
   112   56  133 1    
   113   56  134 1    
   114   57   58 1    
   115   58  135 1    
   116   58  136 1    
   117   59   60 am   BACKBONE|DICT|INTERRES
   118   59  137 1    
   119   60   61 2    
   120   60   62 1    
   121   62   63 1    
   122   62   64 1    
   123   62  138 1    
   124   63  139 1    
   125   63  140 1    
   126   63  141 1    
   127   64   65 am   BACKBONE|DICT|INTERRES
   128   64  142 1    
   129   65   66 2    
   130   65   67 1    
   131   67   68 1    
   132   67   69 1    
   133   67  143 1    
   134   68  144 1    
   135   68  145 1    
   136   68  146 1    
   137   69   70 am   BACKBONE|DICT|INTERRES
   138   69  147 1    
   139   70   71 2    
   140   70   72 1    
   141   72   73 1    
   142   72   74 1    
   143   72  148 1    
   144   73  149 1    
   145   73  150 1    
   146   73  151 1    
   147   74   75 am   BACKBONE|DICT|INTERRES
   148   74  152 1    
   149   75   76 2    
   150   75   77 1    
   151   77   78 1    
   152   77   79 1    
   153   77  153 1    
   154   78  154 1    
   155   78  155 1    
   156   78  156 1    
   157   79   80 am   BACKBONE|DICT|INTERRES
   158   79  157 1    
   159   80   81 2    
@<TRIPOS>SUBSTRUCTURE
     1 UNK         1 GROUP             0       ****    0 ROOT    
