@<TRIPOS>MOLECULE
3R207
157   159    1
SMALL
USER_CHARGES


@<TRIPOS>ATOM
      1 CA        -49.7546  -27.3347    2.9631 C.3       0 UNK        -0.1975 
      2 C         -49.6378  -27.1367    4.4663 C.2       0 UNK         0.4852 
      3 O         -48.5251  -27.1200    4.9933 O.2       0 UNK        -0.5216 
      4 N         -50.7742  -26.9616    5.1568 N.am      1 UNK        -0.4461 
      5 CA        -50.8889  -26.8241    6.6186 C.3       1 UNK         0.0864 
      6 C6        -50.5840  -28.1494    7.3680 C.3       14 UNK        -0.0898 
      7 S7        -51.7170  -29.4853    6.8514 S.3       14 UNK        -0.2598 
      8 C8        -50.9457  -30.9437    7.6178 C.3       14 UNK         0.0286 
      9 C9        -51.0877  -30.9264    9.1325 C.ar      14 UNK        -0.0844 
     10 C10       -50.0365  -30.4688    9.9297 C.ar      14 UNK        -0.0881 
     11 C11       -50.1522  -30.4499   11.3258 C.ar      14 UNK        -0.0643 
     12 C12       -51.3433  -30.8934   11.9118 C.ar      14 UNK        -0.0930 
     13 C13       -52.4030  -31.3585   11.1280 C.ar      14 UNK        -0.0827 
     14 C14       -52.2624  -31.3819    9.7367 C.ar      14 UNK        -0.1249 
     15 C15       -53.6712  -31.8925   11.7864 C.3       14 UNK         0.0141 
     16 S16       -55.1860  -31.0833   11.1757 S.3       14 UNK        -0.2313 
     17 C17       -55.3273  -29.6064   12.2446 C.3       14 UNK        -0.0915 
     18 CA        -54.5822  -28.3176   11.7768 C.3       13 UNK         0.0968 
     19 C         -54.6487  -28.0279   10.2461 C.2       13 UNK         0.5732 
     20 N         -53.6609  -28.4839    9.4908 N.am      13 UNK        -0.7310 
     21 O         -55.5711  -27.4010    9.7302 O.2       13 UNK        -0.5035 
     22 N         -54.9389  -27.1319   12.5773 N.am      13 UNK        -0.4233 
     23 C         -56.1405  -26.5442   12.6890 C.2       13 UNK         0.4989 
     24 O         -57.2001  -27.0132   12.2697 O.2       13 UNK        -0.4996 
     25 CA        -56.1316  -25.1737   13.3861 C.3       12 UNK         0.0216 
     26 CB        -57.5027  -24.4610   13.3890 C.3       12 UNK        -0.1964 
     27 N         -55.5454  -25.2578   14.7264 N.am      12 UNK        -0.4276 
     28 C         -56.0709  -25.8156   15.8255 C.2       12 UNK         0.5020 
     29 O         -57.1924  -26.3233   15.8871 O.2       12 UNK        -0.5489 
     30 CA        -55.1628  -25.7868   17.0668 C.3       11 UNK         0.0294 
     31 CB        -55.8460  -26.3278   18.3419 C.3       11 UNK        -0.2019 
     32 N         -53.8813  -26.4567   16.8221 N.am      11 UNK        -0.4493 
     33 C         -53.6721  -27.7581   16.5622 C.2       11 UNK         0.4932 
     34 O         -54.5724  -28.5952   16.4949 O.2       11 UNK        -0.5029 
     35 CA        -52.2185  -28.2288   16.3389 C.3       10 UNK         0.0280 
     36 CB        -52.0721  -28.9198   14.9741 C.3       10 UNK        -0.1976 
     37 N         -51.2176  -27.1637   16.4347 N.am      10 UNK        -0.4242 
     38 C         -50.8013  -26.5765   17.5646 C.2       10 UNK         0.5072 
     39 O         -51.1568  -26.9223   18.6914 O.2       10 UNK        -0.5224 
     40 CA        -49.8727  -25.3600   17.4023 C.3       9 UNK         0.0343 
     41 CB        -48.3986  -25.7963   17.3916 C.3       9 UNK        -0.2003 
     42 N         -50.1630  -24.5779   16.1947 N.am      9 UNK        -0.4272 
     43 C         -51.2938  -23.8884   15.9804 C.2       9 UNK         0.4988 
     44 O         -52.2207  -23.8232   16.7880 O.2       9 UNK        -0.5108 
     45 CA        -51.4326  -23.1972   14.6135 C.3       8 UNK         0.0248 
     46 CB        -50.5584  -21.9346   14.5436 C.3       8 UNK        -0.2001 
     47 N         -51.0993  -24.0913   13.5030 N.am      8 UNK        -0.4140 
     48 C         -51.8179  -25.1695   13.1596 C.2       8 UNK         0.5028 
     49 O         -52.8776  -25.4908   13.6972 O.2       8 UNK        -0.5428 
     50 CA        -51.2497  -26.0717   12.0522 C.3       7 UNK         0.0264 
     51 CB        -51.7482  -25.6084   10.6754 C.3       7 UNK        -0.1988 
     52 N         -49.7888  -26.1718   12.0381 N.am      7 UNK        -0.4454 
     53 C         -49.0145  -26.5322   13.0754 C.2       7 UNK         0.5027 
     54 O         -49.4576  -26.7946   14.1933 O.2       7 UNK        -0.5083 
     55 CA        -47.4920  -26.6312   12.8361 C.3       6 UNK         0.0844 
     56 C56       -47.0140  -28.1049   12.8387 C.3       14 UNK        -0.0967 
     57 S57       -47.6591  -29.0781   11.4319 S.3       14 UNK        -0.2604 
     58 C58       -49.0205  -29.9892   12.2453 C.3       14 UNK         0.0134 
     59 N         -47.0510  -25.9278   11.6301 N.am      6 UNK        -0.4116 
     60 C         -47.0778  -24.6043   11.4353 C.2       5 UNK         0.5034 
     61 O         -47.4589  -23.8023   12.2891 O.2       5 UNK        -0.5045 
     62 CA        -46.6757  -24.0816   10.0452 C.3       5 UNK         0.0224 
     63 CB        -45.4231  -23.1858   10.1150 C.3       5 UNK        -0.1978 
     64 N         -46.5420  -25.1148    9.0059 N.am      5 UNK        -0.4737 
     65 C         -45.5897  -26.0473    8.8495 C.2       4 UNK         0.5027 
     66 O         -44.6826  -26.2516    9.6549 O.2       4 UNK        -0.5211 
     67 CA        -45.6762  -26.9032    7.5727 C.3       4 UNK         0.0297 
     68 CB        -46.5531  -28.1405    7.8206 C.3       4 UNK        -0.1993 
     69 N         -46.2039  -26.1438    6.4345 N.am      4 UNK        -0.4486 
     70 C         -45.5625  -25.1239    5.8423 C.2       3 UNK         0.4961 
     71 O         -44.3963  -24.8115    6.0847 O.2       3 UNK        -0.5105 
     72 CA        -46.3730  -24.2794    4.8456 C.3       3 UNK         0.0299 
     73 CB        -46.3728  -24.9155    3.4458 C.3       3 UNK        -0.1972 
     74 N         -47.7474  -24.0698    5.3106 N.am      3 UNK        -0.4305 
     75 C         -48.0876  -23.2288    6.3003 C.2       2 UNK         0.5006 
     76 O         -47.2895  -22.4811    6.8649 O.2       2 UNK        -0.5106 
     77 CA        -49.5596  -23.2122    6.7520 C.3       2 UNK         0.0296 
     78 CB        -50.3112  -22.0477    6.0867 C.3       2 UNK        -0.2002 
     79 N         -50.2718  -24.4631    6.4814 N.am      2 UNK        -0.4032 
     80 C         -50.0792  -25.6143    7.1422 C.2       1 UNK         0.5000 
     81 O         -49.2844  -25.7361    8.0778 O.2       1 UNK        -0.5238 
     82 H82       -49.2368  -26.5333    2.4370 H         1 UNK         0.0889 
     83 H83       -50.7928  -27.3448    2.6320 H         1 UNK         0.0889 
     84 H84       -49.2980  -28.2814    2.6760 H         1 UNK         0.0889 
     85 H85       -51.6541  -26.9863    4.6600 H         1 UNK         0.3028 
     86 H86       -51.9321  -26.5755    6.8211 H         1 UNK         0.0864 
     87 H87       -49.5581  -28.4689    7.1838 H         1 UNK         0.0720 
     88 H88       -50.6818  -28.0182    8.4464 H         1 UNK         0.0720 
     89 H89       -49.8957  -30.9982    7.3259 H         1 UNK         0.0814 
     90 H90       -51.4183  -31.8421    7.2182 H         1 UNK         0.0814 
     91 H91       -49.1284  -30.1362    9.4483 H         1 UNK         0.1469 
     92 H92       -51.4356  -30.8993   12.9885 H         1 UNK         0.1381 
     93 H93       -53.0729  -31.7492    9.1216 H         1 UNK         0.1206 
     94 H94       -53.6225  -31.8064   12.8729 H         1 UNK         0.0813 
     95 H95       -53.7422  -32.9594   11.5708 H         1 UNK         0.0813 
     96 H96       -55.0083  -29.8659   13.2551 H         1 UNK         0.0638 
     97 H97       -56.3966  -29.4141   12.3230 H         1 UNK         0.0638 
     98 H98       -53.5293  -28.4876   12.0019 H         1 UNK         0.0568 
     99 H99       -53.6941  -28.3263    8.4971 H         1 UNK         0.3450 
    100 H100      -52.9402  -29.0776    9.8741 H         1 UNK         0.3450 
    101 H101      -54.1529  -26.6296   12.9827 H         1 UNK         0.2987 
    102 H102      -55.4533  -24.5463   12.8054 H         1 UNK         0.0766 
    103 H103      -57.4448  -23.4903   13.8811 H         1 UNK         0.0798 
    104 H104      -58.2717  -25.0478   13.8918 H         1 UNK         0.0798 
    105 H105      -57.8488  -24.2879   12.3694 H         1 UNK         0.0798 
    106 H106      -54.5680  -24.9855   14.7666 H         1 UNK         0.3198 
    107 H107      -54.9267  -24.7370   17.2500 H         1 UNK         0.0843 
    108 H108      -56.1561  -27.3672   18.2319 H         1 UNK         0.0831 
    109 H109      -56.7399  -25.7489   18.5768 H         1 UNK         0.0831 
    110 H110      -55.1825  -26.2647   19.2043 H         1 UNK         0.0831 
    111 H111      -53.0746  -25.8436   16.8292 H         1 UNK         0.3133 
    112 H112      -52.0008  -28.9661   17.1141 H         1 UNK         0.0566 
    113 H113      -52.2956  -28.2369   14.1563 H         1 UNK         0.0814 
    114 H114      -51.0599  -29.2974   14.8333 H         1 UNK         0.0814 
    115 H115      -52.7514  -29.7687   14.8859 H         1 UNK         0.0814 
    116 H116      -50.7931  -26.8587   15.5622 H         1 UNK         0.3091 
    117 H117      -50.0293  -24.7093   18.2653 H         1 UNK         0.0702 
    118 H118      -47.7302  -24.9366   17.3423 H         1 UNK         0.0785 
    119 H119      -48.1731  -26.4468   16.5458 H         1 UNK         0.0785 
    120 H120      -48.1500  -26.3470   18.2999 H         1 UNK         0.0785 
    121 H121      -49.4806  -24.6272   15.4523 H         1 UNK         0.2998 
    122 H122      -52.4756  -22.8935   14.4996 H         1 UNK         0.0697 
    123 H123      -49.4949  -22.1698   14.6044 H         1 UNK         0.0825 
    124 H124      -50.7900  -21.2539   15.3642 H         1 UNK         0.0825 
    125 H125      -50.7267  -21.3883   13.6153 H         1 UNK         0.0825 
    126 H126      -50.2378  -23.9103   13.0067 H         1 UNK         0.3029 
    127 H127      -51.6285  -27.0786   12.2279 H         1 UNK         0.0897 
    128 H128      -51.3153  -24.6492   10.3884 H         1 UNK         0.0792 
    129 H129      -52.8331  -25.4933   10.6654 H         1 UNK         0.0792 
    130 H130      -51.4974  -26.3335    9.9026 H         1 UNK         0.0792 
    131 H131      -49.3364  -26.0091   11.1498 H         1 UNK         0.3086 
    132 H132      -47.0186  -26.1334   13.6849 H         1 UNK         0.0583 
    133 H133      -45.9242  -28.1321   12.7913 H         1 UNK         0.1020 
    134 H134      -47.2704  -28.5924   13.7818 H         1 UNK         0.1020 
    135 H135      -48.6002  -30.8600   12.7499 H         1 UNK         0.0694 
    136 H136      -49.4518  -29.3613   13.0242 H         1 UNK         0.0694 
    137 H137      -46.7027  -26.5075   10.8795 H         1 UNK         0.2989 
    138 H138      -47.5051  -23.4520    9.7184 H         1 UNK         0.1055 
    139 H139      -45.5841  -22.3427   10.7880 H         1 UNK         0.0806 
    140 H140      -45.1781  -22.7750    9.1351 H         1 UNK         0.0806 
    141 H141      -44.5512  -23.7284   10.4808 H         1 UNK         0.0806 
    142 H142      -47.3072  -25.1404    8.3392 H         1 UNK         0.3061 
    143 H143      -44.6683  -27.2382    7.3189 H         1 UNK         0.0734 
    144 H144      -46.1118  -28.7816    8.5848 H         1 UNK         0.0832 
    145 H145      -46.6665  -28.7401    6.9172 H         1 UNK         0.0832 
    146 H146      -47.5481  -27.8636    8.1686 H         1 UNK         0.0832 
    147 H147      -47.1341  -26.3915    6.1040 H         1 UNK         0.3156 
    148 H148      -45.8890  -23.3035    4.7647 H         1 UNK         0.0589 
    149 H149      -46.7953  -25.9198    3.4493 H         1 UNK         0.0808 
    150 H150      -46.9394  -24.3138    2.7350 H         1 UNK         0.0808 
    151 H151      -45.3555  -24.9972    3.0609 H         1 UNK         0.0808 
    152 H152      -48.4550  -24.6763    4.9232 H         1 UNK         0.3098 
    153 H153      -49.5661  -23.0474    7.8318 H         1 UNK         0.0720 
    154 H154      -51.3333  -21.9709    6.4580 H         1 UNK         0.0791 
    155 H155      -50.3537  -22.1594    5.0025 H         1 UNK         0.0791 
    156 H156      -49.8205  -21.0961    6.2968 H         1 UNK         0.0791 
    157 H157      -50.9362  -24.4524    5.7207 H         1 UNK         0.3028 
@<TRIPOS>BOND
     1    1    2 1    
     2    1   82 1    
     3    1   83 1    
     4    1   84 1    
     5    2    3 2    
     6    2    4 am   BACKBONE|DICT|INTERRES
     7    4    5 1    
     8    4   85 1    
     9    5    6 1    
    10    5   80 1    
    11    5   86 1    
    12    6    7 1    
    13    6   87 1    
    14    6   88 1    
    15    7    8 1    
    16    8    9 1    
    17    8   89 1    
    18    8   90 1    
    19    9   10 ar   
    20    9   14 ar   
    21   10   11 ar   
    22   10   91 1    
    23   11   12 ar   
    24   11   58 1    
    25   12   13 ar   
    26   12   92 1    
    27   13   14 ar   
    28   13   15 1    
    29   14   93 1    
    30   15   16 1    
    31   15   94 1    
    32   15   95 1    
    33   16   17 1    
    34   17   18 1    
    35   17   96 1    
    36   17   97 1    
    37   18   19 1    
    38   18   22 1    
    39   18   98 1    
    40   19   20 am   BACKBONE|DICT|INTERRES
    41   19   21 2    
    42   20   99 1    
    43   20  100 1    
    44   22   23 am   BACKBONE|DICT|INTERRES
    45   22  101 1    
    46   23   24 2    
    47   23   25 1    
    48   25   26 1    
    49   25   27 1    
    50   25  102 1    
    51   26  103 1    
    52   26  104 1    
    53   26  105 1    
    54   27   28 am   BACKBONE|DICT|INTERRES
    55   27  106 1    
    56   28   29 2    
    57   28   30 1    
    58   30   31 1    
    59   30   32 1    
    60   30  107 1    
    61   31  108 1    
    62   31  109 1    
    63   31  110 1    
    64   32   33 am   BACKBONE|DICT|INTERRES
    65   32  111 1    
    66   33   34 2    
    67   33   35 1    
    68   35   36 1    
    69   35   37 1    
    70   35  112 1    
    71   36  113 1    
    72   36  114 1    
    73   36  115 1    
    74   37   38 am   BACKBONE|DICT|INTERRES
    75   37  116 1    
    76   38   39 2    
    77   38   40 1    
    78   40   41 1    
    79   40   42 1    
    80   40  117 1    
    81   41  118 1    
    82   41  119 1    
    83   41  120 1    
    84   42   43 am   BACKBONE|DICT|INTERRES
    85   42  121 1    
    86   43   44 2    
    87   43   45 1    
    88   45   46 1    
    89   45   47 1    
    90   45  122 1    
    91   46  123 1    
    92   46  124 1    
    93   46  125 1    
    94   47   48 am   BACKBONE|DICT|INTERRES
    95   47  126 1    
    96   48   49 2    
    97   48   50 1    
    98   50   51 1    
    99   50   52 1    
   100   50  127 1    
   101   51  128 1    
   102   51  129 1    
   103   51  130 1    
   104   52   53 am   BACKBONE|DICT|INTERRES
   105   52  131 1    
   106   53   54 2    
   107   53   55 1    
   108   55   56 1    
   109   55   59 1    
   110   55  132 1    
   111   56   57 1    
   112   56  133 1    
   113   56  134 1    
   114   57   58 1    
   115   58  135 1    
   116   58  136 1    
   117   59   60 am   BACKBONE|DICT|INTERRES
   118   59  137 1    
   119   60   61 2    
   120   60   62 1    
   121   62   63 1    
   122   62   64 1    
   123   62  138 1    
   124   63  139 1    
   125   63  140 1    
   126   63  141 1    
   127   64   65 am   BACKBONE|DICT|INTERRES
   128   64  142 1    
   129   65   66 2    
   130   65   67 1    
   131   67   68 1    
   132   67   69 1    
   133   67  143 1    
   134   68  144 1    
   135   68  145 1    
   136   68  146 1    
   137   69   70 am   BACKBONE|DICT|INTERRES
   138   69  147 1    
   139   70   71 2    
   140   70   72 1    
   141   72   73 1    
   142   72   74 1    
   143   72  148 1    
   144   73  149 1    
   145   73  150 1    
   146   73  151 1    
   147   74   75 am   BACKBONE|DICT|INTERRES
   148   74  152 1    
   149   75   76 2    
   150   75   77 1    
   151   77   78 1    
   152   77   79 1    
   153   77  153 1    
   154   78  154 1    
   155   78  155 1    
   156   78  156 1    
   157   79   80 am   BACKBONE|DICT|INTERRES
   158   79  157 1    
   159   80   81 2    
@<TRIPOS>SUBSTRUCTURE
     1 UNK         1 GROUP             0       ****    0 ROOT    
