@<TRIPOS>MOLECULE
3R207
157   159    1
SMALL
USER_CHARGES


@<TRIPOS>ATOM
      1 CA        -44.8568  -28.8956    4.1000 C.3       0 UNK        -0.1975 
      2 C         -46.2776  -28.3517    4.1020 C.2       0 UNK         0.4852 
      3 O         -46.4938  -27.2042    3.7107 O.2       0 UNK        -0.5216 
      4 N         -47.2493  -29.1642    4.5385 N.am      1 UNK        -0.4461 
      5 CA        -48.6487  -28.7611    4.7153 C.3       1 UNK         0.0864 
      6 C6        -49.5782  -29.9955    4.8203 C.3       14 UNK        -0.0898 
      7 S7        -51.2686  -29.6390    4.2312 S.3       14 UNK        -0.2598 
      8 C8        -52.2961  -30.4623    5.4886 C.3       14 UNK         0.0286 
      9 C9        -52.4100  -29.6378    6.7620 C.ar      14 UNK        -0.0844 
     10 C10       -51.5761  -29.9009    7.8518 C.ar      14 UNK        -0.0881 
     11 C11       -51.6866  -29.1484    9.0222 C.ar      14 UNK        -0.0643 
     12 C12       -52.6391  -28.1297    9.1008 C.ar      14 UNK        -0.0930 
     13 C13       -53.5038  -27.8721    8.0303 C.ar      14 UNK        -0.0827 
     14 C14       -53.3716  -28.6269    6.8598 C.ar      14 UNK        -0.1249 
     15 C15       -54.5695  -26.7757    8.0855 C.3       14 UNK         0.0141 
     16 S16       -55.1723  -26.3451    9.7544 S.3       14 UNK        -0.2313 
     17 C17       -56.1536  -27.8176   10.2118 C.3       14 UNK        -0.0915 
     18 CA        -55.9486  -28.2670   11.6856 C.3       13 UNK         0.0968 
     19 C         -54.6477  -29.1031   11.8745 C.2       13 UNK         0.5732 
     20 N         -53.6699  -28.6489   12.6484 N.am      13 UNK        -0.7310 
     21 O         -54.5380  -30.1970   11.3271 O.2       13 UNK        -0.5035 
     22 N         -56.1333  -27.1403   12.6169 N.am      13 UNK        -0.4233 
     23 C         -56.3040  -27.2389   13.9396 C.2       13 UNK         0.4989 
     24 O         -56.3503  -28.3125   14.5426 O.2       13 UNK        -0.4996 
     25 CA        -56.4543  -25.9002   14.6858 C.3       12 UNK         0.0216 
     26 CB        -57.9025  -25.3739   14.6184 C.3       12 UNK        -0.1964 
     27 N         -55.9499  -25.9539   16.0632 N.am      12 UNK        -0.4276 
     28 C         -56.4544  -26.5713   17.1414 C.2       12 UNK         0.5020 
     29 O         -57.5511  -27.1331   17.1796 O.2       12 UNK        -0.5489 
     30 CA        -55.5498  -26.5653   18.3940 C.3       11 UNK         0.0294 
     31 CB        -56.2285  -27.2017   19.6220 C.3       11 UNK        -0.2019 
     32 N         -54.2738  -27.2491   18.1499 N.am      11 UNK        -0.4493 
     33 C         -53.2551  -26.7495   17.4391 C.2       11 UNK         0.4932 
     34 O         -53.2723  -25.6243   16.9341 O.2       11 UNK        -0.5029 
     35 CA        -52.0600  -27.6867   17.2045 C.3       10 UNK         0.0280 
     36 CB        -52.4083  -28.7369   16.1377 C.3       10 UNK        -0.1976 
     37 N         -50.8901  -26.9301   16.7583 N.am      10 UNK        -0.4242 
     38 C         -50.0572  -26.2755   17.5785 C.2       10 UNK         0.5072 
     39 O         -50.1114  -26.3404   18.8081 O.2       10 UNK        -0.5224 
     40 CA        -48.9835  -25.3923   16.9204 C.3       9 UNK         0.0343 
     41 CB        -47.7985  -26.2431   16.4376 C.3       9 UNK        -0.2003 
     42 N         -49.5051  -24.5936   15.8086 N.am      9 UNK        -0.4272 
     43 C         -50.3722  -23.5780   15.9435 C.2       9 UNK         0.4988 
     44 O         -50.8008  -23.1821   17.0280 O.2       9 UNK        -0.5108 
     45 CA        -50.8188  -22.8577   14.6620 C.3       8 UNK         0.0248 
     46 CB        -49.8381  -21.7245   14.3157 C.3       8 UNK        -0.2001 
     47 N         -50.9154  -23.7736   13.5258 N.am      8 UNK        -0.4140 
     48 C         -52.0385  -24.3920   13.1338 C.2       8 UNK         0.5028 
     49 O         -53.1396  -24.2301   13.6603 O.2       8 UNK        -0.5428 
     50 CA        -51.9210  -25.3507   11.9347 C.3       7 UNK         0.0264 
     51 CB        -52.1516  -24.5809   10.6231 C.3       7 UNK        -0.1988 
     52 N         -50.6346  -26.0435   11.8483 N.am      7 UNK        -0.4454 
     53 C         -50.0967  -26.8465   12.7799 C.2       7 UNK         0.5027 
     54 O         -50.6537  -27.1498   13.8347 O.2       7 UNK        -0.5083 
     55 CA        -48.6535  -27.3317   12.5138 C.3       6 UNK         0.0844 
     56 C56       -48.6153  -28.7035   11.7970 C.3       14 UNK        -0.0967 
     57 S57       -49.1823  -28.6354   10.0606 S.3       14 UNK        -0.2604 
     58 C58       -50.7976  -29.4510   10.2147 C.3       14 UNK         0.0134 
     59 N         -47.8419  -26.3318   11.8133 N.am      6 UNK        -0.4116 
     60 C         -47.5951  -25.0831   12.2311 C.2       5 UNK         0.5034 
     61 O         -48.0160  -24.6305   13.2971 O.2       5 UNK        -0.5045 
     62 CA        -46.8293  -24.1574   11.2720 C.3       5 UNK         0.0224 
     63 CB        -45.7275  -23.3513   11.9905 C.3       5 UNK        -0.1978 
     64 N         -46.3328  -24.8289   10.0615 N.am      5 UNK        -0.4737 
     65 C         -45.2955  -25.6734    9.9318 C.2       4 UNK         0.5027 
     66 O         -44.5862  -26.0320   10.8711 O.2       4 UNK        -0.5211 
     67 CA        -45.0097  -26.2445    8.5246 C.3       4 UNK         0.0297 
     68 CB        -45.1657  -27.7747    8.5208 C.3       4 UNK        -0.1993 
     69 N         -45.8663  -25.6745    7.4788 N.am      4 UNK        -0.4486 
     70 C         -45.7548  -24.4243    7.0012 C.2       3 UNK         0.4961 
     71 O         -44.8184  -23.6758    7.2820 O.2       3 UNK        -0.5105 
     72 CA        -46.8882  -23.8841    6.1058 C.3       3 UNK         0.0299 
     73 CB        -46.3962  -23.6876    4.6628 C.3       3 UNK        -0.1972 
     74 N         -48.1010  -24.7073    6.0959 N.am      3 UNK        -0.4305 
     75 C         -48.9104  -24.9340    7.1432 C.2       2 UNK         0.5006 
     76 O         -48.7414  -24.4389    8.2588 O.2       2 UNK        -0.5106 
     77 CA        -50.0737  -25.9207    6.9193 C.3       2 UNK         0.0296 
     78 CB        -51.3490  -25.1531    6.5411 C.3       2 UNK        -0.2002 
     79 N         -49.8056  -26.9392    5.8946 N.am      2 UNK        -0.4032 
     80 C         -48.7879  -27.8115    5.9256 C.2       1 UNK         0.5000 
     81 O         -47.9596  -27.8553    6.8391 O.2       1 UNK        -0.5238 
     82 H82       -44.4473  -28.8721    3.0906 H         1 UNK         0.0889 
     83 H83       -44.8127  -29.9229    4.4612 H         1 UNK         0.0889 
     84 H84       -44.2225  -28.2833    4.7405 H         1 UNK         0.0889 
     85 H85       -47.0100  -30.0831    4.8817 H         1 UNK         0.3028 
     86 H86       -48.9239  -28.1990    3.8196 H         1 UNK         0.0864 
     87 H87       -49.5884  -30.3997    5.8331 H         1 UNK         0.0720 
     88 H88       -49.2030  -30.8017    4.1875 H         1 UNK         0.0720 
     89 H89       -51.8949  -31.4543    5.7023 H         1 UNK         0.0814 
     90 H90       -53.2918  -30.6250    5.0731 H         1 UNK         0.0814 
     91 H91       -50.8410  -30.6914    7.7957 H         1 UNK         0.1469 
     92 H92       -52.7119  -27.5536   10.0107 H         1 UNK         0.1381 
     93 H93       -54.0212  -28.4289    6.0179 H         1 UNK         0.1206 
     94 H94       -55.4284  -27.0586    7.4748 H         1 UNK         0.0813 
     95 H95       -54.1592  -25.8721    7.6356 H         1 UNK         0.0813 
     96 H96       -55.9429  -28.6359    9.5205 H         1 UNK         0.0638 
     97 H97       -57.2037  -27.5673   10.0546 H         1 UNK         0.0638 
     98 H98       -56.7544  -28.9695   11.9067 H         1 UNK         0.0568 
     99 H99       -52.8518  -29.2173   12.7881 H         1 UNK         0.3450 
    100 H100      -53.7693  -27.7738   13.1331 H         1 UNK         0.3450 
    101 H101      -56.0917  -26.2258   12.1908 H         1 UNK         0.2987 
    102 H102      -55.8143  -25.1740   14.1812 H         1 UNK         0.0766 
    103 H103      -58.0101  -24.4348   15.1612 H         1 UNK         0.0798 
    104 H104      -58.6163  -26.0861   15.0334 H         1 UNK         0.0798 
    105 H105      -58.2013  -25.1871   13.5862 H         1 UNK         0.0798 
    106 H106      -55.0070  -25.5865   16.1817 H         1 UNK         0.3198 
    107 H107      -55.3446  -25.5201   18.6372 H         1 UNK         0.0843 
    108 H108      -56.4598  -28.2548   19.4566 H         1 UNK         0.0831 
    109 H109      -57.1661  -26.6952   19.8553 H         1 UNK         0.0831 
    110 H110      -55.5963  -27.1308   20.5073 H         1 UNK         0.0831 
    111 H111      -54.2029  -28.1967   18.4930 H         1 UNK         0.3133 
    112 H112      -51.8247  -28.2004   18.1390 H         1 UNK         0.0566 
    113 H113      -51.5576  -29.3835   15.9217 H         1 UNK         0.0814 
    114 H114      -53.2293  -29.3773   16.4621 H         1 UNK         0.0814 
    115 H115      -52.7149  -28.2658   15.2045 H         1 UNK         0.0814 
    116 H116      -50.7898  -26.8120   15.7537 H         1 UNK         0.3091 
    117 H117      -48.6120  -24.6989   17.6780 H         1 UNK         0.0702 
    118 H118      -47.0334  -25.6297   15.9608 H         1 UNK         0.0785 
    119 H119      -48.1138  -27.0039   15.7248 H         1 UNK         0.0785 
    120 H120      -47.3269  -26.7599   17.2744 H         1 UNK         0.0785 
    121 H121      -49.1291  -24.7924   14.8873 H         1 UNK         0.2998 
    122 H122      -51.7959  -22.4096   14.8557 H         1 UNK         0.0697 
    123 H123      -48.8341  -22.1016   14.1166 H         1 UNK         0.0825 
    124 H124      -49.7610  -21.0119   15.1381 H         1 UNK         0.0825 
    125 H125      -50.1682  -21.1698   13.4373 H         1 UNK         0.0825 
    126 H126      -50.0469  -24.0011   13.0591 H         1 UNK         0.3029 
    127 H127      -52.7019  -26.1048   12.0376 H         1 UNK         0.0897 
    128 H128      -52.1427  -25.2451    9.7594 H         1 UNK         0.0792 
    129 H129      -51.3897  -23.8171   10.4617 H         1 UNK         0.0792 
    130 H130      -53.1198  -24.0783   10.6316 H         1 UNK         0.0792 
    131 H131      -50.0936  -25.8786   11.0116 H         1 UNK         0.3086 
    132 H132      -48.1890  -27.4700   13.4904 H         1 UNK         0.0583 
    133 H133      -47.5908  -29.0793   11.7936 H         1 UNK         0.1020 
    134 H134      -49.1881  -29.4461   12.3563 H         1 UNK         0.1020 
    135 H135      -50.6524  -30.5278   10.3129 H         1 UNK         0.0694 
    136 H136      -51.2891  -29.1223   11.1306 H         1 UNK         0.0694 
    137 H137      -47.4762  -26.6089   10.9143 H         1 UNK         0.2989 
    138 H138      -47.5701  -23.4393   10.9163 H         1 UNK         0.1055 
    139 H139      -46.1538  -22.7223   12.7732 H         1 UNK         0.0806 
    140 H140      -45.2011  -22.6936   11.2988 H         1 UNK         0.0806 
    141 H141      -44.9915  -23.9989   12.4673 H         1 UNK         0.0806 
    142 H142      -46.8889  -24.6490    9.2311 H         1 UNK         0.3061 
    143 H143      -43.9713  -26.0081    8.2835 H         1 UNK         0.0734 
    144 H144      -44.9690  -28.1939    7.5339 H         1 UNK         0.0832 
    145 H145      -44.4666  -28.2412    9.2160 H         1 UNK         0.0832 
    146 H146      -46.1701  -28.0786    8.8189 H         1 UNK         0.0832 
    147 H147      -46.6557  -26.2444    7.1893 H         1 UNK         0.3156 
    148 H148      -47.1651  -22.9054    6.5031 H         1 UNK         0.0589 
    149 H149      -46.0956  -24.6309    4.2066 H         1 UNK         0.0808 
    150 H150      -47.1670  -23.2397    4.0355 H         1 UNK         0.0808 
    151 H151      -45.5311  -23.0236    4.6322 H         1 UNK         0.0808 
    152 H152      -48.3093  -25.1802    5.2281 H         1 UNK         0.3098 
    153 H153      -50.2502  -26.4460    7.8605 H         1 UNK         0.0720 
    154 H154      -52.1824  -25.8326    6.3691 H         1 UNK         0.0791 
    155 H155      -51.2115  -24.5615    5.6351 H         1 UNK         0.0791 
    156 H156      -51.6435  -24.4686    7.3378 H         1 UNK         0.0791 
    157 H157      -50.4607  -26.9915    5.1273 H         1 UNK         0.3028 
@<TRIPOS>BOND
     1    1    2 1    
     2    1   82 1    
     3    1   83 1    
     4    1   84 1    
     5    2    3 2    
     6    2    4 am   BACKBONE|DICT|INTERRES
     7    4    5 1    
     8    4   85 1    
     9    5    6 1    
    10    5   80 1    
    11    5   86 1    
    12    6    7 1    
    13    6   87 1    
    14    6   88 1    
    15    7    8 1    
    16    8    9 1    
    17    8   89 1    
    18    8   90 1    
    19    9   10 ar   
    20    9   14 ar   
    21   10   11 ar   
    22   10   91 1    
    23   11   12 ar   
    24   11   58 1    
    25   12   13 ar   
    26   12   92 1    
    27   13   14 ar   
    28   13   15 1    
    29   14   93 1    
    30   15   16 1    
    31   15   94 1    
    32   15   95 1    
    33   16   17 1    
    34   17   18 1    
    35   17   96 1    
    36   17   97 1    
    37   18   19 1    
    38   18   22 1    
    39   18   98 1    
    40   19   20 am   BACKBONE|DICT|INTERRES
    41   19   21 2    
    42   20   99 1    
    43   20  100 1    
    44   22   23 am   BACKBONE|DICT|INTERRES
    45   22  101 1    
    46   23   24 2    
    47   23   25 1    
    48   25   26 1    
    49   25   27 1    
    50   25  102 1    
    51   26  103 1    
    52   26  104 1    
    53   26  105 1    
    54   27   28 am   BACKBONE|DICT|INTERRES
    55   27  106 1    
    56   28   29 2    
    57   28   30 1    
    58   30   31 1    
    59   30   32 1    
    60   30  107 1    
    61   31  108 1    
    62   31  109 1    
    63   31  110 1    
    64   32   33 am   BACKBONE|DICT|INTERRES
    65   32  111 1    
    66   33   34 2    
    67   33   35 1    
    68   35   36 1    
    69   35   37 1    
    70   35  112 1    
    71   36  113 1    
    72   36  114 1    
    73   36  115 1    
    74   37   38 am   BACKBONE|DICT|INTERRES
    75   37  116 1    
    76   38   39 2    
    77   38   40 1    
    78   40   41 1    
    79   40   42 1    
    80   40  117 1    
    81   41  118 1    
    82   41  119 1    
    83   41  120 1    
    84   42   43 am   BACKBONE|DICT|INTERRES
    85   42  121 1    
    86   43   44 2    
    87   43   45 1    
    88   45   46 1    
    89   45   47 1    
    90   45  122 1    
    91   46  123 1    
    92   46  124 1    
    93   46  125 1    
    94   47   48 am   BACKBONE|DICT|INTERRES
    95   47  126 1    
    96   48   49 2    
    97   48   50 1    
    98   50   51 1    
    99   50   52 1    
   100   50  127 1    
   101   51  128 1    
   102   51  129 1    
   103   51  130 1    
   104   52   53 am   BACKBONE|DICT|INTERRES
   105   52  131 1    
   106   53   54 2    
   107   53   55 1    
   108   55   56 1    
   109   55   59 1    
   110   55  132 1    
   111   56   57 1    
   112   56  133 1    
   113   56  134 1    
   114   57   58 1    
   115   58  135 1    
   116   58  136 1    
   117   59   60 am   BACKBONE|DICT|INTERRES
   118   59  137 1    
   119   60   61 2    
   120   60   62 1    
   121   62   63 1    
   122   62   64 1    
   123   62  138 1    
   124   63  139 1    
   125   63  140 1    
   126   63  141 1    
   127   64   65 am   BACKBONE|DICT|INTERRES
   128   64  142 1    
   129   65   66 2    
   130   65   67 1    
   131   67   68 1    
   132   67   69 1    
   133   67  143 1    
   134   68  144 1    
   135   68  145 1    
   136   68  146 1    
   137   69   70 am   BACKBONE|DICT|INTERRES
   138   69  147 1    
   139   70   71 2    
   140   70   72 1    
   141   72   73 1    
   142   72   74 1    
   143   72  148 1    
   144   73  149 1    
   145   73  150 1    
   146   73  151 1    
   147   74   75 am   BACKBONE|DICT|INTERRES
   148   74  152 1    
   149   75   76 2    
   150   75   77 1    
   151   77   78 1    
   152   77   79 1    
   153   77  153 1    
   154   78  154 1    
   155   78  155 1    
   156   78  156 1    
   157   79   80 am   BACKBONE|DICT|INTERRES
   158   79  157 1    
   159   80   81 2    
@<TRIPOS>SUBSTRUCTURE
     1 UNK         1 GROUP             0       ****    0 ROOT    
