@<TRIPOS>MOLECULE
3R207
157   159    1
SMALL
USER_CHARGES


@<TRIPOS>ATOM
      1 CA        -48.2910  -24.5907    2.7526 C.3       0 UNK        -0.1975 
      2 C         -48.9222  -24.4728    4.1315 C.2       0 UNK         0.4852 
      3 O         -49.3447  -23.3833    4.5225 O.2       0 UNK        -0.5216 
      4 N         -48.9793  -25.5815    4.8809 N.am      1 UNK        -0.4461 
      5 CA        -49.5566  -25.6828    6.2267 C.3       1 UNK         0.0864 
      6 C6        -49.8802  -27.1513    6.5945 C.3       14 UNK        -0.0898 
      7 S7        -51.1108  -27.9437    5.5041 S.3       14 UNK        -0.2598 
      8 C8        -52.6605  -27.7903    6.4681 C.3       14 UNK         0.0286 
      9 C9        -52.7088  -28.4936    7.8303 C.ar      14 UNK        -0.0844 
     10 C10       -51.6753  -29.3059    8.3154 C.ar      14 UNK        -0.0881 
     11 C11       -51.7313  -29.8514    9.6003 C.ar      14 UNK        -0.0643 
     12 C12       -52.8597  -29.6312   10.3945 C.ar      14 UNK        -0.0930 
     13 C13       -53.9277  -28.8750    9.9025 C.ar      14 UNK        -0.0827 
     14 C14       -53.8379  -28.2980    8.6320 C.ar      14 UNK        -0.1249 
     15 C15       -55.1931  -28.7048   10.7269 C.3       14 UNK         0.0141 
     16 S16       -56.2975  -30.1291   10.4734 S.3       14 UNK        -0.2313 
     17 C17       -57.8999  -29.5057   11.0868 C.3       14 UNK        -0.0915 
     18 CA        -57.8970  -29.0054   12.5564 C.3       13 UNK         0.0968 
     19 C         -59.3276  -28.5708   12.9909 C.2       13 UNK         0.5732 
     20 N         -59.9620  -29.2304   13.9528 N.am      13 UNK        -0.7310 
     21 O         -59.8695  -27.6128   12.4446 O.2       13 UNK        -0.5035 
     22 N         -57.2265  -29.9545   13.4601 N.am      13 UNK        -0.4233 
     23 C         -56.7517  -29.6397   14.6705 C.2       13 UNK         0.4989 
     24 O         -56.9069  -28.5350   15.1949 O.2       13 UNK        -0.4996 
     25 CA        -55.9660  -30.7239   15.4380 C.3       12 UNK         0.0216 
     26 CB        -55.6858  -32.0135   14.6296 C.3       12 UNK        -0.1964 
     27 N         -54.7282  -30.1638   15.9956 N.am      12 UNK        -0.4276 
     28 C         -53.7106  -29.6322   15.3029 C.2       12 UNK         0.5020 
     29 O         -53.6025  -29.6744   14.0751 O.2       12 UNK        -0.5489 
     30 CA        -52.6460  -28.8878   16.1202 C.3       11 UNK         0.0294 
     31 CB        -51.2418  -29.4673   15.8852 C.3       11 UNK        -0.2019 
     32 N         -52.6629  -27.4824   15.7257 N.am      11 UNK        -0.4493 
     33 C         -53.5428  -26.5794   16.1773 C.2       11 UNK         0.4932 
     34 O         -54.3546  -26.8056   17.0769 O.2       11 UNK        -0.5029 
     35 CA        -53.4848  -25.1926   15.5096 C.3       10 UNK         0.0280 
     36 CB        -54.4170  -24.1531   16.1674 C.3       10 UNK        -0.1976 
     37 N         -52.1111  -24.6905   15.4127 N.am      10 UNK        -0.4242 
     38 C         -51.2644  -24.4138   16.4168 C.2       10 UNK         0.5072 
     39 O         -51.5625  -24.4705   17.6106 O.2       10 UNK        -0.5224 
     40 CA        -49.8238  -24.0265   16.0322 C.3       9 UNK         0.0343 
     41 CB        -48.8710  -25.2026   16.3053 C.3       9 UNK        -0.2003 
     42 N         -49.6796  -23.6230   14.6320 N.am      9 UNK        -0.4272 
     43 C         -50.1244  -22.4744   14.1050 C.2       9 UNK         0.4988 
     44 O         -50.6558  -21.5770   14.7592 O.2       9 UNK        -0.5108 
     45 CA        -49.9781  -22.3199   12.5823 C.3       8 UNK         0.0248 
     46 CB        -48.5658  -21.8386   12.2093 C.3       8 UNK        -0.2001 
     47 N         -50.2821  -23.5629   11.8670 N.am      8 UNK        -0.4140 
     48 C         -51.5123  -24.0773   11.7235 C.2       8 UNK         0.5028 
     49 O         -52.5317  -23.5529   12.1710 O.2       8 UNK        -0.5428 
     50 CA        -51.6239  -25.4087   10.9618 C.3       7 UNK         0.0264 
     51 CB        -51.6887  -25.1472    9.4515 C.3       7 UNK        -0.1988 
     52 N         -50.5278  -26.3346   11.2680 N.am      7 UNK        -0.4454 
     53 C         -50.3974  -26.9491   12.4532 C.2       7 UNK         0.5027 
     54 O         -51.1934  -26.8068   13.3829 O.2       7 UNK        -0.5083 
     55 CA        -49.1457  -27.8215   12.6791 C.3       6 UNK         0.0844 
     56 C56       -49.3749  -29.3006   12.2732 C.3       14 UNK        -0.0967 
     57 S57       -49.1218  -29.6581   10.4996 S.3       14 UNK        -0.2604 
     58 C58       -50.5689  -30.6912   10.1037 C.3       14 UNK         0.0134 
     59 N         -47.9051  -27.2602   12.1293 N.am      6 UNK        -0.4116 
     60 C         -47.3964  -26.0523   12.4024 C.2       5 UNK         0.5034 
     61 O         -47.9666  -25.2241   13.1097 O.2       5 UNK        -0.5045 
     62 CA        -46.0381  -25.6691   11.7903 C.3       5 UNK         0.0224 
     63 CB        -44.8921  -25.9522   12.7799 C.3       5 UNK        -0.1978 
     64 N         -45.7573  -26.2345   10.4640 N.am      5 UNK        -0.4737 
     65 C         -45.5464  -27.5099   10.1051 C.2       4 UNK         0.5027 
     66 O         -45.5801  -28.4520   10.8962 O.2       4 UNK        -0.5211 
     67 CA        -45.2900  -27.7956    8.6137 C.3       4 UNK         0.0297 
     68 CB        -46.3768  -28.7277    8.0517 C.3       4 UNK        -0.1993 
     69 N         -45.2570  -26.5673    7.8140 N.am      4 UNK        -0.4486 
     70 C         -44.1452  -25.8815    7.5095 C.2       3 UNK         0.4961 
     71 O         -43.0109  -26.2529    7.8113 O.2       3 UNK        -0.5105 
     72 CA        -44.3137  -24.5505    6.7489 C.3       3 UNK         0.0299 
     73 CB        -44.0698  -24.7609    5.2455 C.3       3 UNK        -0.1972 
     74 N         -45.6226  -23.9183    6.9345 N.am      3 UNK        -0.4305 
     75 C         -46.0899  -23.4249    8.0909 C.2       2 UNK         0.5006 
     76 O         -45.4433  -23.4006    9.1374 O.2       2 UNK        -0.5106 
     77 CA        -47.5544  -22.9486    8.0978 C.3       2 UNK         0.0296 
     78 CB        -47.6453  -21.4552    7.7500 C.3       2 UNK        -0.2002 
     79 N         -48.4223  -23.7193    7.1985 N.am      2 UNK        -0.4032 
     80 C         -48.6354  -25.0391    7.2884 C.2       1 UNK         0.5000 
     81 O         -48.1068  -25.7408    8.1537 O.2       1 UNK        -0.5238 
     82 H82       -47.4286  -23.9291    2.6767 H         1 UNK         0.0889 
     83 H83       -49.0102  -24.3028    1.9863 H         1 UNK         0.0889 
     84 H84       -47.9591  -25.6070    2.5413 H         1 UNK         0.0889 
     85 H85       -48.6209  -26.4475    4.5037 H         1 UNK         0.3028 
     86 H86       -50.4944  -25.1230    6.2428 H         1 UNK         0.0864 
     87 H87       -50.2236  -27.2068    7.6265 H         1 UNK         0.0720 
     88 H88       -48.9751  -27.7590    6.5519 H         1 UNK         0.0720 
     89 H89       -53.4752  -28.1776    5.8547 H         1 UNK         0.0814 
     90 H90       -52.8656  -26.7284    6.6115 H         1 UNK         0.0814 
     91 H91       -50.7996  -29.5028    7.7148 H         1 UNK         0.1469 
     92 H92       -52.9212  -30.0653   11.3838 H         1 UNK         0.1381 
     93 H93       -54.6577  -27.6975    8.2612 H         1 UNK         0.1206 
     94 H94       -55.7063  -27.7837   10.4466 H         1 UNK         0.0813 
     95 H95       -54.9436  -28.6169   11.7859 H         1 UNK         0.0813 
     96 H96       -58.6238  -30.3143   10.9686 H         1 UNK         0.0638 
     97 H97       -58.2268  -28.7087   10.4162 H         1 UNK         0.0638 
     98 H98       -57.3057  -28.0882   12.5785 H         1 UNK         0.0568 
     99 H99       -60.8862  -28.9362   14.2265 H         1 UNK         0.3450 
    100 H100      -59.5256  -30.0155   14.4079 H         1 UNK         0.3450 
    101 H101      -57.0542  -30.8762   13.0878 H         1 UNK         0.2987 
    102 H102      -56.5882  -30.9995   16.2908 H         1 UNK         0.0766 
    103 H103      -55.1086  -32.7255   15.2196 H         1 UNK         0.0798 
    104 H104      -55.1251  -31.8161   13.7150 H         1 UNK         0.0798 
    105 H105      -56.6130  -32.5152   14.3498 H         1 UNK         0.0798 
    106 H106      -54.7360  -30.0239   16.9968 H         1 UNK         0.3198 
    107 H107      -52.8728  -28.9682   17.1857 H         1 UNK         0.0843 
    108 H108      -50.9539  -29.4087   14.8366 H         1 UNK         0.0831 
    109 H109      -51.1999  -30.5172   16.1775 H         1 UNK         0.0831 
    110 H110      -50.4903  -28.9350   16.4685 H         1 UNK         0.0831 
    111 H111      -52.0854  -27.2311   14.9243 H         1 UNK         0.3133 
    112 H112      -53.8257  -25.3348   14.4828 H         1 UNK         0.0566 
    113 H113      -54.3614  -23.1923   15.6557 H         1 UNK         0.0814 
    114 H114      -55.4558  -24.4829   16.1267 H         1 UNK         0.0814 
    115 H115      -54.1703  -23.9900   17.2168 H         1 UNK         0.0814 
    116 H116      -51.7388  -24.6443   14.4738 H         1 UNK         0.3091 
    117 H117      -49.5273  -23.1863   16.6634 H         1 UNK         0.0702 
    118 H118      -47.8370  -24.9352   16.0865 H         1 UNK         0.0785 
    119 H119      -49.1262  -26.0739   15.7004 H         1 UNK         0.0785 
    120 H120      -48.9133  -25.5072   17.3519 H         1 UNK         0.0785 
    121 H121      -49.1804  -24.2720   14.0250 H         1 UNK         0.2998 
    122 H122      -50.6906  -21.5586   12.2569 H         1 UNK         0.0697 
    123 H123      -47.8004  -22.5655   12.4830 H         1 UNK         0.0825 
    124 H124      -48.3255  -20.9063   12.7223 H         1 UNK         0.0825 
    125 H125      -48.4811  -21.6473   11.1396 H         1 UNK         0.0825 
    126 H126      -49.4961  -24.0929   11.5205 H         1 UNK         0.3029 
    127 H127      -52.5601  -25.8871   11.2604 H         1 UNK         0.0897 
    128 H128      -52.5473  -24.5221    9.2026 H         1 UNK         0.0792 
    129 H129      -51.7974  -26.0759    8.8964 H         1 UNK         0.0792 
    130 H130      -50.7984  -24.6322    9.0942 H         1 UNK         0.0792 
    131 H131      -49.8404  -26.5113   10.5485 H         1 UNK         0.3086 
    132 H132      -48.9976  -27.8237   13.7612 H         1 UNK         0.0583 
    133 H133      -48.6775  -29.9316   12.8263 H         1 UNK         0.1020 
    134 H134      -50.3680  -29.6348   12.5796 H         1 UNK         0.1020 
    135 H135      -50.2838  -31.4025    9.3272 H         1 UNK         0.0694 
    136 H136      -50.8577  -31.2907   10.9683 H         1 UNK         0.0694 
    137 H137      -47.3428  -27.8839   11.5586 H         1 UNK         0.2989 
    138 H138      -46.0736  -24.5887   11.6386 H         1 UNK         0.1055 
    139 H139      -45.0601  -25.4357   13.7261 H         1 UNK         0.0806 
    140 H140      -43.9358  -25.6058   12.3878 H         1 UNK         0.0806 
    141 H141      -44.7982  -27.0149   13.0052 H         1 UNK         0.0806 
    142 H142      -45.7245  -25.5452    9.7228 H         1 UNK         0.3061 
    143 H143      -44.3308  -28.3121    8.5396 H         1 UNK         0.0734 
    144 H144      -46.2389  -28.9097    6.9860 H         1 UNK         0.0832 
    145 H145      -46.3543  -29.6970    8.5517 H         1 UNK         0.0832 
    146 H146      -47.3750  -28.3163    8.2001 H         1 UNK         0.0832 
    147 H147      -46.1626  -26.1731    7.5845 H         1 UNK         0.3156 
    148 H148      -43.5551  -23.8610    7.1256 H         1 UNK         0.0589 
    149 H149      -44.8115  -25.4280    4.8043 H         1 UNK         0.0808 
    150 H150      -44.0992  -23.8167    4.7013 H         1 UNK         0.0808 
    151 H151      -43.0883  -25.2031    5.0678 H         1 UNK         0.0808 
    152 H152      -46.2280  -23.8868    6.1276 H         1 UNK         0.3098 
    153 H153      -47.9337  -23.0864    9.1124 H         1 UNK         0.0720 
    154 H154      -48.6666  -21.0869    7.8499 H         1 UNK         0.0791 
    155 H155      -47.3149  -21.2566    6.7296 H         1 UNK         0.0791 
    156 H156      -47.0213  -20.8599    8.4182 H         1 UNK         0.0791 
    157 H157      -48.8455  -23.2294    6.4145 H         1 UNK         0.3028 
@<TRIPOS>BOND
     1    1    2 1    
     2    1   82 1    
     3    1   83 1    
     4    1   84 1    
     5    2    3 2    
     6    2    4 am   BACKBONE|DICT|INTERRES
     7    4    5 1    
     8    4   85 1    
     9    5    6 1    
    10    5   80 1    
    11    5   86 1    
    12    6    7 1    
    13    6   87 1    
    14    6   88 1    
    15    7    8 1    
    16    8    9 1    
    17    8   89 1    
    18    8   90 1    
    19    9   10 ar   
    20    9   14 ar   
    21   10   11 ar   
    22   10   91 1    
    23   11   12 ar   
    24   11   58 1    
    25   12   13 ar   
    26   12   92 1    
    27   13   14 ar   
    28   13   15 1    
    29   14   93 1    
    30   15   16 1    
    31   15   94 1    
    32   15   95 1    
    33   16   17 1    
    34   17   18 1    
    35   17   96 1    
    36   17   97 1    
    37   18   19 1    
    38   18   22 1    
    39   18   98 1    
    40   19   20 am   BACKBONE|DICT|INTERRES
    41   19   21 2    
    42   20   99 1    
    43   20  100 1    
    44   22   23 am   BACKBONE|DICT|INTERRES
    45   22  101 1    
    46   23   24 2    
    47   23   25 1    
    48   25   26 1    
    49   25   27 1    
    50   25  102 1    
    51   26  103 1    
    52   26  104 1    
    53   26  105 1    
    54   27   28 am   BACKBONE|DICT|INTERRES
    55   27  106 1    
    56   28   29 2    
    57   28   30 1    
    58   30   31 1    
    59   30   32 1    
    60   30  107 1    
    61   31  108 1    
    62   31  109 1    
    63   31  110 1    
    64   32   33 am   BACKBONE|DICT|INTERRES
    65   32  111 1    
    66   33   34 2    
    67   33   35 1    
    68   35   36 1    
    69   35   37 1    
    70   35  112 1    
    71   36  113 1    
    72   36  114 1    
    73   36  115 1    
    74   37   38 am   BACKBONE|DICT|INTERRES
    75   37  116 1    
    76   38   39 2    
    77   38   40 1    
    78   40   41 1    
    79   40   42 1    
    80   40  117 1    
    81   41  118 1    
    82   41  119 1    
    83   41  120 1    
    84   42   43 am   BACKBONE|DICT|INTERRES
    85   42  121 1    
    86   43   44 2    
    87   43   45 1    
    88   45   46 1    
    89   45   47 1    
    90   45  122 1    
    91   46  123 1    
    92   46  124 1    
    93   46  125 1    
    94   47   48 am   BACKBONE|DICT|INTERRES
    95   47  126 1    
    96   48   49 2    
    97   48   50 1    
    98   50   51 1    
    99   50   52 1    
   100   50  127 1    
   101   51  128 1    
   102   51  129 1    
   103   51  130 1    
   104   52   53 am   BACKBONE|DICT|INTERRES
   105   52  131 1    
   106   53   54 2    
   107   53   55 1    
   108   55   56 1    
   109   55   59 1    
   110   55  132 1    
   111   56   57 1    
   112   56  133 1    
   113   56  134 1    
   114   57   58 1    
   115   58  135 1    
   116   58  136 1    
   117   59   60 am   BACKBONE|DICT|INTERRES
   118   59  137 1    
   119   60   61 2    
   120   60   62 1    
   121   62   63 1    
   122   62   64 1    
   123   62  138 1    
   124   63  139 1    
   125   63  140 1    
   126   63  141 1    
   127   64   65 am   BACKBONE|DICT|INTERRES
   128   64  142 1    
   129   65   66 2    
   130   65   67 1    
   131   67   68 1    
   132   67   69 1    
   133   67  143 1    
   134   68  144 1    
   135   68  145 1    
   136   68  146 1    
   137   69   70 am   BACKBONE|DICT|INTERRES
   138   69  147 1    
   139   70   71 2    
   140   70   72 1    
   141   72   73 1    
   142   72   74 1    
   143   72  148 1    
   144   73  149 1    
   145   73  150 1    
   146   73  151 1    
   147   74   75 am   BACKBONE|DICT|INTERRES
   148   74  152 1    
   149   75   76 2    
   150   75   77 1    
   151   77   78 1    
   152   77   79 1    
   153   77  153 1    
   154   78  154 1    
   155   78  155 1    
   156   78  156 1    
   157   79   80 am   BACKBONE|DICT|INTERRES
   158   79  157 1    
   159   80   81 2    
@<TRIPOS>SUBSTRUCTURE
     1 UNK         1 GROUP             0       ****    0 ROOT    
