@<TRIPOS>MOLECULE
3R207
157   159    1
SMALL
USER_CHARGES


@<TRIPOS>ATOM
      1 CA        -52.0079  -31.1528    5.0895 C.3       0 UNK        -0.1975 
      2 C         -51.2531  -29.9750    4.4919 C.2       0 UNK         0.4852 
      3 O         -50.4218  -30.1676    3.6040 O.2       0 UNK        -0.5216 
      4 N         -51.5318  -28.7570    4.9757 N.am      1 UNK        -0.4461 
      5 CA        -50.8819  -27.5160    4.5363 C.3       1 UNK         0.0864 
      6 C6        -51.6791  -26.2628    4.9682 C.3       14 UNK        -0.0898 
      7 S7        -53.3826  -26.1580    4.3013 S.3       14 UNK        -0.2598 
      8 C8        -54.4587  -27.1755    5.3873 C.3       14 UNK         0.0286 
      9 C9        -53.9909  -27.3079    6.8326 C.ar      14 UNK        -0.0844 
     10 C10       -53.7005  -26.1744    7.5988 C.ar      14 UNK        -0.0881 
     11 C11       -53.1635  -26.3075    8.8814 C.ar      14 UNK        -0.0643 
     12 C12       -52.9844  -27.5810    9.4263 C.ar      14 UNK        -0.0930 
     13 C13       -53.3501  -28.7184    8.7034 C.ar      14 UNK        -0.0827 
     14 C14       -53.8428  -28.5768    7.4031 C.ar      14 UNK        -0.1249 
     15 C15       -53.2094  -30.0962    9.3291 C.3       14 UNK         0.0141 
     16 S16       -54.8086  -30.6700    9.9775 S.3       14 UNK        -0.2313 
     17 C17       -54.3053  -32.1681   10.8895 C.3       14 UNK        -0.0915 
     18 CA        -55.1321  -32.3816   12.1850 C.3       13 UNK         0.0968 
     19 C         -54.7013  -33.6939   12.8958 C.2       13 UNK         0.5732 
     20 N         -55.3205  -34.8161   12.5559 N.am      13 UNK        -0.7310 
     21 O         -53.7848  -33.7094   13.7161 O.2       13 UNK        -0.5035 
     22 N         -55.0677  -31.2046   13.0624 N.am      13 UNK        -0.4233 
     23 C         -55.7931  -31.0135   14.1717 C.2       13 UNK         0.4989 
     24 O         -56.6271  -31.8135   14.5980 O.2       13 UNK        -0.4996 
     25 CA        -55.5646  -29.6935   14.9301 C.3       12 UNK         0.0216 
     26 CB        -54.5577  -29.8953   16.0743 C.3       12 UNK        -0.1964 
     27 N         -55.0967  -28.6056   14.0666 N.am      12 UNK        -0.4276 
     28 C         -55.8443  -27.9515   13.1688 C.2       12 UNK         0.5020 
     29 O         -57.0450  -28.1684   12.9958 O.2       12 UNK        -0.5489 
     30 CA        -55.1224  -26.8629   12.3465 C.3       11 UNK         0.0294 
     31 CB        -56.0304  -26.2270   11.2772 C.3       11 UNK        -0.2019 
     32 N         -54.5558  -25.8034   13.1893 N.am      11 UNK        -0.4493 
     33 C         -53.4672  -25.9258   13.9598 C.2       11 UNK         0.4932 
     34 O         -52.7779  -26.9501   14.0027 O.2       11 UNK        -0.5029 
     35 CA        -53.1230  -24.7334   14.8639 C.3       10 UNK         0.0280 
     36 CB        -54.2799  -24.4338   15.8432 C.3       10 UNK        -0.1976 
     37 N         -51.9068  -25.0675   15.5990 N.am      10 UNK        -0.4242 
     38 C         -51.1746  -24.2577   16.3707 C.2       10 UNK         0.5072 
     39 O         -51.4170  -23.0620   16.5412 O.2       10 UNK        -0.5224 
     40 CA        -49.9844  -24.8865   17.1083 C.3       9 UNK         0.0343 
     41 CB        -50.0487  -26.4247   17.2269 C.3       9 UNK        -0.2003 
     42 N         -48.7531  -24.5073   16.4259 N.am      9 UNK        -0.4272 
     43 C         -47.6461  -24.0569   17.0263 C.2       9 UNK         0.4988 
     44 O         -47.5440  -23.8816   18.2417 O.2       9 UNK        -0.5108 
     45 CA        -46.4296  -23.7744   16.1298 C.3       8 UNK         0.0248 
     46 CB        -45.6106  -25.0596   15.9285 C.3       8 UNK        -0.2001 
     47 N         -46.7751  -23.1991   14.8264 N.am      8 UNK        -0.4140 
     48 C         -47.2339  -21.9505   14.6521 C.2       8 UNK         0.5028 
     49 O         -47.4298  -21.1573   15.5740 O.2       8 UNK        -0.5428 
     50 CA        -47.5048  -21.4977   13.2074 C.3       7 UNK         0.0264 
     51 CB        -46.1910  -21.1595   12.4837 C.3       7 UNK        -0.1988 
     52 N         -48.2467  -22.4906   12.4318 N.am      7 UNK        -0.4454 
     53 C         -49.5368  -22.8038   12.6246 C.2       7 UNK         0.5027 
     54 O         -50.2672  -22.2415   13.4394 O.2       7 UNK        -0.5083 
     55 CA        -50.1030  -23.9477   11.7594 C.3       6 UNK         0.0844 
     56 C56       -50.5772  -23.3908   10.3914 C.3       14 UNK        -0.0967 
     57 S57       -51.0084  -24.6802    9.1824 S.3       14 UNK        -0.2604 
     58 C58       -52.7129  -25.0809    9.6521 C.3       14 UNK         0.0134 
     59 N         -49.1496  -25.0573   11.6461 N.am      6 UNK        -0.4116 
     60 C         -48.7110  -25.7940   12.6774 C.2       5 UNK         0.5034 
     61 O         -49.0996  -25.6567   13.8363 O.2       5 UNK        -0.5045 
     62 CA        -47.6091  -26.8191   12.3787 C.3       5 UNK         0.0224 
     63 CB        -48.2139  -28.1545   11.9159 C.3       5 UNK        -0.1978 
     64 N         -46.6603  -26.3171   11.3817 N.am      5 UNK        -0.4737 
     65 C         -45.7602  -25.3536   11.6283 C.2       4 UNK         0.5027 
     66 O         -45.6173  -24.8246   12.7292 O.2       4 UNK        -0.5211 
     67 CA        -44.9082  -24.8607   10.4461 C.3       4 UNK         0.0297 
     68 CB        -43.6751  -25.7583   10.2603 C.3       4 UNK        -0.1993 
     69 N         -45.6568  -24.7877    9.1900 N.am      4 UNK        -0.4486 
     70 C         -46.7152  -23.9927    8.9799 C.2       3 UNK         0.4961 
     71 O         -47.1352  -23.1824    9.8064 O.2       3 UNK        -0.5105 
     72 CA        -47.4596  -24.1605    7.6420 C.3       3 UNK         0.0299 
     73 CB        -46.8947  -23.1916    6.5920 C.3       3 UNK        -0.1972 
     74 N         -47.4621  -25.5253    7.0946 N.am      3 UNK        -0.4305 
     75 C         -47.8555  -26.6319    7.7418 C.2       2 UNK         0.5006 
     76 O         -48.2032  -26.6482    8.9227 O.2       2 UNK        -0.5106 
     77 CA        -47.8771  -27.9349    6.9264 C.3       2 UNK         0.0296 
     78 CB        -47.7100  -29.1779    7.8207 C.3       2 UNK        -0.2002 
     79 N         -49.1401  -28.0402    6.1998 N.am      2 UNK        -0.4032 
     80 C         -49.4331  -27.3969    5.0601 C.2       1 UNK         0.5000 
     81 O         -48.6188  -26.7088    4.4405 O.2       1 UNK        -0.5238 
     82 H82       -52.8395  -31.4331    4.4436 H         1 UNK         0.0889 
     83 H83       -52.4005  -30.9225    6.0785 H         1 UNK         0.0889 
     84 H84       -51.3472  -32.0140    5.1873 H         1 UNK         0.0889 
     85 H85       -52.2362  -28.6450    5.6924 H         1 UNK         0.3028 
     86 H86       -50.8311  -27.5277    3.4453 H         1 UNK         0.0864 
     87 H87       -51.1679  -25.3693    4.6036 H         1 UNK         0.0720 
     88 H88       -51.6717  -26.1581    6.0514 H         1 UNK         0.0720 
     89 H89       -54.5558  -28.1610    4.9290 H         1 UNK         0.0814 
     90 H90       -55.4613  -26.7460    5.3827 H         1 UNK         0.0814 
     91 H91       -53.8195  -25.1899    7.1668 H         1 UNK         0.1469 
     92 H92       -52.5542  -27.6845   10.4127 H         1 UNK         0.1381 
     93 H93       -54.1168  -29.4589    6.8408 H         1 UNK         0.1206 
     94 H94       -52.8385  -30.8098    8.5923 H         1 UNK         0.0813 
     95 H95       -52.4734  -30.0698   10.1344 H         1 UNK         0.0813 
     96 H96       -53.2417  -32.1080   11.1284 H         1 UNK         0.0638 
     97 H97       -54.4205  -33.0202   10.2171 H         1 UNK         0.0638 
     98 H98       -56.1794  -32.4936   11.8970 H         1 UNK         0.0568 
     99 H99       -56.0637  -34.8169   11.8746 H         1 UNK         0.3450 
    100 H100      -55.0433  -35.6801   12.9951 H         1 UNK         0.3450 
    101 H101      -54.4065  -30.4934   12.7937 H         1 UNK         0.2987 
    102 H102      -56.5209  -29.3949   15.3649 H         1 UNK         0.0766 
    103 H103      -54.8913  -30.6812   16.7535 H         1 UNK         0.0798 
    104 H104      -54.4404  -28.9864   16.6649 H         1 UNK         0.0798 
    105 H105      -53.5737  -30.1829   15.7013 H         1 UNK         0.0798 
    106 H106      -54.1283  -28.3101   14.1652 H         1 UNK         0.3198 
    107 H107      -54.3048  -27.3635   11.8295 H         1 UNK         0.0843 
    108 H108      -56.8911  -25.7260   11.7217 H         1 UNK         0.0831 
    109 H109      -56.4107  -26.9860   10.5918 H         1 UNK         0.0831 
    110 H110      -55.4904  -25.4966   10.6756 H         1 UNK         0.0831 
    111 H111      -55.0865  -24.9454   13.2392 H         1 UNK         0.3133 
    112 H112      -52.9268  -23.8637   14.2338 H         1 UNK         0.0566 
    113 H113      -54.5023  -25.2946   16.4754 H         1 UNK         0.0814 
    114 H114      -55.1968  -24.1711   15.3150 H         1 UNK         0.0814 
    115 H115      -54.0485  -23.5936   16.4975 H         1 UNK         0.0814 
    116 H116      -51.6029  -26.0239   15.4539 H         1 UNK         0.3091 
    117 H117      -50.0019  -24.4714   18.1182 H         1 UNK         0.0702 
    118 H118      -49.2443  -26.7976   17.8612 H         1 UNK         0.0785 
    119 H119      -49.9538  -26.9171   16.2581 H         1 UNK         0.0785 
    120 H120      -50.9875  -26.7482   17.6790 H         1 UNK         0.0785 
    121 H121      -48.7561  -24.6450   15.4180 H         1 UNK         0.2998 
    122 H122      -45.7973  -23.0543   16.6536 H         1 UNK         0.0697 
    123 H123      -44.6925  -24.8622   15.3748 H         1 UNK         0.0825 
    124 H124      -46.1755  -25.8152   15.3814 H         1 UNK         0.0825 
    125 H125      -45.3234  -25.4956   16.8864 H         1 UNK         0.0825 
    126 H126      -46.5714  -23.7704   14.0095 H         1 UNK         0.3029 
    127 H127      -48.1084  -20.5885   13.2535 H         1 UNK         0.0897 
    128 H128      -45.5477  -22.0341   12.3804 H         1 UNK         0.0792 
    129 H129      -45.6280  -20.4018   13.0302 H         1 UNK         0.0792 
    130 H130      -46.3798  -20.7664   11.4844 H         1 UNK         0.0792 
    131 H131      -47.7458  -22.9480   11.6746 H         1 UNK         0.3086 
    132 H132      -50.9786  -24.3429   12.2789 H         1 UNK         0.0583 
    133 H133      -51.4336  -22.7272   10.5265 H         1 UNK         0.1020 
    134 H134      -49.7981  -22.7791    9.9324 H         1 UNK         0.1020 
    135 H135      -52.7673  -25.2665   10.7258 H         1 UNK         0.0694 
    136 H136      -53.3659  -24.2326    9.4417 H         1 UNK         0.0694 
    137 H137      -48.8045  -25.2661   10.7173 H         1 UNK         0.2989 
    138 H138      -47.0638  -26.9995   13.3078 H         1 UNK         0.1055 
    139 H139      -47.4383  -28.8886   11.6977 H         1 UNK         0.0806 
    140 H140      -48.8282  -28.0389   11.0227 H         1 UNK         0.0806 
    141 H141      -48.8527  -28.5778   12.6923 H         1 UNK         0.0806 
    142 H142      -46.8046  -26.6258   10.4264 H         1 UNK         0.3061 
    143 H143      -44.5642  -23.8524   10.6863 H         1 UNK         0.0734 
    144 H144      -43.9524  -26.7788    9.9929 H         1 UNK         0.0832 
    145 H145      -43.0159  -25.3728    9.4823 H         1 UNK         0.0832 
    146 H146      -43.0908  -25.8106   11.1803 H         1 UNK         0.0832 
    147 H147      -45.3842  -25.4220    8.4535 H         1 UNK         0.3156 
    148 H148      -48.5009  -23.8890    7.8202 H         1 UNK         0.0589 
    149 H149      -47.4870  -23.2080    5.6768 H         1 UNK         0.0808 
    150 H150      -45.8639  -23.4346    6.3308 H         1 UNK         0.0808 
    151 H151      -46.9043  -22.1654    6.9625 H         1 UNK         0.0808 
    152 H152      -47.2446  -25.6139    6.1104 H         1 UNK         0.3098 
    153 H153      -47.0476  -27.9161    6.2161 H         1 UNK         0.0720 
    154 H154      -46.7834  -29.1239    8.3937 H         1 UNK         0.0791 
    155 H155      -47.6703  -30.0905    7.2257 H         1 UNK         0.0791 
    156 H156      -48.5283  -29.2799    8.5351 H         1 UNK         0.0791 
    157 H157      -49.8791  -28.5538    6.6563 H         1 UNK         0.3028 
@<TRIPOS>BOND
     1    1    2 1    
     2    1   82 1    
     3    1   83 1    
     4    1   84 1    
     5    2    3 2    
     6    2    4 am   BACKBONE|DICT|INTERRES
     7    4    5 1    
     8    4   85 1    
     9    5    6 1    
    10    5   80 1    
    11    5   86 1    
    12    6    7 1    
    13    6   87 1    
    14    6   88 1    
    15    7    8 1    
    16    8    9 1    
    17    8   89 1    
    18    8   90 1    
    19    9   10 ar   
    20    9   14 ar   
    21   10   11 ar   
    22   10   91 1    
    23   11   12 ar   
    24   11   58 1    
    25   12   13 ar   
    26   12   92 1    
    27   13   14 ar   
    28   13   15 1    
    29   14   93 1    
    30   15   16 1    
    31   15   94 1    
    32   15   95 1    
    33   16   17 1    
    34   17   18 1    
    35   17   96 1    
    36   17   97 1    
    37   18   19 1    
    38   18   22 1    
    39   18   98 1    
    40   19   20 am   BACKBONE|DICT|INTERRES
    41   19   21 2    
    42   20   99 1    
    43   20  100 1    
    44   22   23 am   BACKBONE|DICT|INTERRES
    45   22  101 1    
    46   23   24 2    
    47   23   25 1    
    48   25   26 1    
    49   25   27 1    
    50   25  102 1    
    51   26  103 1    
    52   26  104 1    
    53   26  105 1    
    54   27   28 am   BACKBONE|DICT|INTERRES
    55   27  106 1    
    56   28   29 2    
    57   28   30 1    
    58   30   31 1    
    59   30   32 1    
    60   30  107 1    
    61   31  108 1    
    62   31  109 1    
    63   31  110 1    
    64   32   33 am   BACKBONE|DICT|INTERRES
    65   32  111 1    
    66   33   34 2    
    67   33   35 1    
    68   35   36 1    
    69   35   37 1    
    70   35  112 1    
    71   36  113 1    
    72   36  114 1    
    73   36  115 1    
    74   37   38 am   BACKBONE|DICT|INTERRES
    75   37  116 1    
    76   38   39 2    
    77   38   40 1    
    78   40   41 1    
    79   40   42 1    
    80   40  117 1    
    81   41  118 1    
    82   41  119 1    
    83   41  120 1    
    84   42   43 am   BACKBONE|DICT|INTERRES
    85   42  121 1    
    86   43   44 2    
    87   43   45 1    
    88   45   46 1    
    89   45   47 1    
    90   45  122 1    
    91   46  123 1    
    92   46  124 1    
    93   46  125 1    
    94   47   48 am   BACKBONE|DICT|INTERRES
    95   47  126 1    
    96   48   49 2    
    97   48   50 1    
    98   50   51 1    
    99   50   52 1    
   100   50  127 1    
   101   51  128 1    
   102   51  129 1    
   103   51  130 1    
   104   52   53 am   BACKBONE|DICT|INTERRES
   105   52  131 1    
   106   53   54 2    
   107   53   55 1    
   108   55   56 1    
   109   55   59 1    
   110   55  132 1    
   111   56   57 1    
   112   56  133 1    
   113   56  134 1    
   114   57   58 1    
   115   58  135 1    
   116   58  136 1    
   117   59   60 am   BACKBONE|DICT|INTERRES
   118   59  137 1    
   119   60   61 2    
   120   60   62 1    
   121   62   63 1    
   122   62   64 1    
   123   62  138 1    
   124   63  139 1    
   125   63  140 1    
   126   63  141 1    
   127   64   65 am   BACKBONE|DICT|INTERRES
   128   64  142 1    
   129   65   66 2    
   130   65   67 1    
   131   67   68 1    
   132   67   69 1    
   133   67  143 1    
   134   68  144 1    
   135   68  145 1    
   136   68  146 1    
   137   69   70 am   BACKBONE|DICT|INTERRES
   138   69  147 1    
   139   70   71 2    
   140   70   72 1    
   141   72   73 1    
   142   72   74 1    
   143   72  148 1    
   144   73  149 1    
   145   73  150 1    
   146   73  151 1    
   147   74   75 am   BACKBONE|DICT|INTERRES
   148   74  152 1    
   149   75   76 2    
   150   75   77 1    
   151   77   78 1    
   152   77   79 1    
   153   77  153 1    
   154   78  154 1    
   155   78  155 1    
   156   78  156 1    
   157   79   80 am   BACKBONE|DICT|INTERRES
   158   79  157 1    
   159   80   81 2    
@<TRIPOS>SUBSTRUCTURE
     1 UNK         1 GROUP             0       ****    0 ROOT    
