@<TRIPOS>MOLECULE
3R207
157   159    1
SMALL
USER_CHARGES


@<TRIPOS>ATOM
      1 CA        -46.7140  -29.4053    4.6798 C.3       0 UNK        -0.1975 
      2 C         -47.6071  -28.1774    4.7659 C.2       0 UNK         0.4852 
      3 O         -47.5290  -27.4515    5.7573 O.2       0 UNK        -0.5216 
      4 N         -48.4363  -27.9550    3.7319 N.am      1 UNK        -0.4461 
      5 CA        -49.4092  -26.8645    3.5474 C.3       1 UNK         0.0864 
      6 C6        -50.8411  -27.2104    4.0548 C.3       14 UNK        -0.0898 
      7 S7        -51.0083  -27.5751    5.8381 S.3       14 UNK        -0.2598 
      8 C8        -51.2663  -29.3742    5.8172 C.3       14 UNK         0.0286 
      9 C9        -51.4775  -29.8930    7.2294 C.ar      14 UNK        -0.0844 
     10 C10       -50.3988  -30.3864    7.9691 C.ar      14 UNK        -0.0881 
     11 C11       -50.5853  -30.8157    9.2862 C.ar      14 UNK        -0.0643 
     12 C12       -51.8650  -30.7806    9.8511 C.ar      14 UNK        -0.0930 
     13 C13       -52.9413  -30.2565    9.1323 C.ar      14 UNK        -0.0827 
     14 C14       -52.7456  -29.8304    7.8153 C.ar      14 UNK        -0.1249 
     15 C15       -54.2980  -30.0870    9.7985 C.3       14 UNK         0.0141 
     16 S16       -54.3298  -28.5664   10.8064 S.3       14 UNK        -0.2313 
     17 C17       -54.1865  -29.2004   12.5151 C.3       14 UNK        -0.0915 
     18 CA        -55.4893  -28.9399   13.3232 C.3       13 UNK         0.0968 
     19 C         -55.5461  -29.7328   14.6616 C.2       13 UNK         0.5732 
     20 N         -56.0236  -29.1589   15.7618 N.am      13 UNK        -0.7310 
     21 O         -55.1817  -30.9055   14.7022 O.2       13 UNK        -0.5035 
     22 N         -55.7092  -27.5002   13.5209 N.am      13 UNK        -0.4233 
     23 C         -56.7868  -26.8102   13.1314 C.2       13 UNK         0.4989 
     24 O         -57.7252  -27.3046   12.5035 O.2       13 UNK        -0.4996 
     25 CA        -56.8236  -25.3093   13.4939 C.3       12 UNK         0.0216 
     26 CB        -58.2622  -24.7610   13.6104 C.3       12 UNK        -0.1964 
     27 N         -56.0403  -24.9594   14.6863 N.am      12 UNK        -0.4276 
     28 C         -56.2112  -25.4176   15.9347 C.2       12 UNK         0.5020 
     29 O         -57.0644  -26.2445   16.2662 O.2       12 UNK        -0.5489 
     30 CA        -55.2097  -24.8975   16.9817 C.3       11 UNK         0.0294 
     31 CB        -55.9438  -24.3502   18.2178 C.3       11 UNK        -0.2019 
     32 N         -54.2247  -25.8979   17.4108 N.am      11 UNK        -0.4493 
     33 C         -53.5095  -26.7049   16.6151 C.2       11 UNK         0.4932 
     34 O         -53.6596  -26.7963   15.3966 O.2       11 UNK        -0.5029 
     35 CA        -52.3915  -27.5055   17.2847 C.3       10 UNK         0.0280 
     36 CB        -52.4467  -28.9916   16.8909 C.3       10 UNK        -0.1976 
     37 N         -51.1483  -26.9228   16.7997 N.am      10 UNK        -0.4242 
     38 C         -50.1871  -26.3769   17.5512 C.2       10 UNK         0.5072 
     39 O         -50.1620  -26.4228   18.7821 O.2       10 UNK        -0.5224 
     40 CA        -49.0758  -25.6223   16.7991 C.3       9 UNK         0.0343 
     41 CB        -48.0662  -26.6037   16.1819 C.3       9 UNK        -0.2003 
     42 N         -49.5927  -24.7320   15.7549 N.am      9 UNK        -0.4272 
     43 C         -50.3655  -23.6556   15.9737 C.2       9 UNK         0.4988 
     44 O         -50.7076  -23.2700   17.0918 O.2       9 UNK        -0.5108 
     45 CA        -50.8403  -22.8750   14.7389 C.3       8 UNK         0.0248 
     46 CB        -49.7421  -21.9208   14.2400 C.3       8 UNK        -0.2001 
     47 N         -51.2260  -23.7886   13.6650 N.am      8 UNK        -0.4140 
     48 C         -52.4685  -24.2544   13.4745 C.2       8 UNK         0.5028 
     49 O         -53.4583  -23.8505   14.0896 O.2       8 UNK        -0.5428 
     50 CA        -52.6569  -25.3488   12.4072 C.3       7 UNK         0.0264 
     51 CB        -53.2937  -24.7592   11.1386 C.3       7 UNK        -0.1988 
     52 N         -51.4284  -26.0602   12.0403 N.am      7 UNK        -0.4454 
     53 C         -50.7398  -26.8779   12.8516 C.2       7 UNK         0.5027 
     54 O         -51.0334  -27.0981   14.0225 O.2       7 UNK        -0.5083 
     55 CA        -49.4780  -27.5368   12.2676 C.3       6 UNK         0.0844 
     56 C56       -49.8999  -28.7882   11.4716 C.3       14 UNK        -0.0967 
     57 S57       -48.5122  -29.7556   10.7907 S.3       14 UNK        -0.2604 
     58 C58       -49.3905  -31.2191   10.1383 C.3       14 UNK         0.0134 
     59 N         -48.6558  -26.6104   11.4806 N.am      6 UNK        -0.4116 
     60 C         -48.1764  -25.4307   11.9036 C.2       5 UNK         0.5034 
     61 O         -48.4620  -24.9362   12.9974 O.2       5 UNK        -0.5045 
     62 CA        -47.2568  -24.6516   10.9400 C.3       5 UNK         0.0224 
     63 CB        -46.1612  -23.8682   11.6929 C.3       5 UNK        -0.1978 
     64 N         -46.6691  -25.4554    9.8561 N.am      5 UNK        -0.4737 
     65 C         -45.8367  -26.5046    9.9662 C.2       4 UNK         0.5027 
     66 O         -45.4606  -26.9699   11.0418 O.2       4 UNK        -0.5211 
     67 CA        -45.3462  -27.1625    8.6619 C.3       4 UNK         0.0297 
     68 CB        -46.0512  -28.5088    8.4357 C.3       4 UNK        -0.1993 
     69 N         -45.5239  -26.3182    7.4763 N.am      4 UNK        -0.4486 
     70 C         -44.7483  -25.2634    7.1880 C.2       3 UNK         0.4961 
     71 O         -43.7822  -24.9205    7.8708 O.2       3 UNK        -0.5105 
     72 CA        -45.0997  -24.4414    5.9356 C.3       3 UNK         0.0299 
     73 CB        -44.3783  -25.0141    4.7051 C.3       3 UNK        -0.1972 
     74 N         -46.5310  -24.3381    5.6415 N.am      3 UNK        -0.4305 
     75 C         -47.4898  -23.8638    6.4471 C.2       2 UNK         0.5006 
     76 O         -47.2925  -23.5026    7.6073 O.2       2 UNK        -0.5106 
     77 CA        -48.9187  -23.7853    5.8751 C.3       2 UNK         0.0296 
     78 CB        -49.1186  -22.4994    5.0496 C.3       2 UNK        -0.2002 
     79 N         -49.3397  -24.9807    5.1316 N.am      2 UNK        -0.4032 
     80 C         -48.8687  -25.4828    3.9811 C.2       1 UNK         0.5000 
     81 O         -48.0026  -24.9357    3.2937 O.2       1 UNK        -0.5238 
     82 H82       -46.8360  -29.9365    3.7362 H         1 UNK         0.0889 
     83 H83       -46.9494  -30.0940    5.4907 H         1 UNK         0.0889 
     84 H84       -45.6682  -29.1137    4.7728 H         1 UNK         0.0889 
     85 H85       -48.3935  -28.5985    2.9544 H         1 UNK         0.3028 
     86 H86       -49.5031  -26.7739    2.4638 H         1 UNK         0.0864 
     87 H87       -51.5262  -26.3947    3.8160 H         1 UNK         0.0720 
     88 H88       -51.2181  -28.0639    3.4895 H         1 UNK         0.0720 
     89 H89       -50.4065  -29.8609    5.3542 H         1 UNK         0.0814 
     90 H90       -52.1332  -29.6150    5.1998 H         1 UNK         0.0814 
     91 H91       -49.4067  -30.3927    7.5383 H         1 UNK         0.1469 
     92 H92       -52.0098  -31.0896   10.8772 H         1 UNK         0.1381 
     93 H93       -53.5721  -29.4123    7.2566 H         1 UNK         0.1206 
     94 H94       -54.5420  -30.9642   10.3988 H         1 UNK         0.0813 
     95 H95       -55.0799  -30.0164    9.0409 H         1 UNK         0.0813 
     96 H96       -53.3368  -28.7151   12.9984 H         1 UNK         0.0638 
     97 H97       -53.9460  -30.2636   12.4830 H         1 UNK         0.0638 
     98 H98       -56.3133  -29.3549   12.7408 H         1 UNK         0.0568 
     99 H99       -56.0726  -29.6973   16.6110 H         1 UNK         0.3450 
    100 H100      -56.3529  -28.2012   15.7528 H         1 UNK         0.3450 
    101 H101      -55.0071  -27.0438   14.0994 H         1 UNK         0.2987 
    102 H102      -56.3432  -24.7941   12.6613 H         1 UNK         0.0766 
    103 H103      -58.2633  -23.6964   13.8442 H         1 UNK         0.0798 
    104 H104      -58.8285  -25.2760   14.3872 H         1 UNK         0.0798 
    105 H105      -58.8078  -24.8848   12.6742 H         1 UNK         0.0798 
    106 H106      -55.2143  -24.3861   14.5106 H         1 UNK         0.3198 
    107 H107      -54.6478  -24.0719   16.5402 H         1 UNK         0.0843 
    108 H108      -56.4722  -25.1392   18.7547 H         1 UNK         0.0831 
    109 H109      -56.6832  -23.6007   17.9318 H         1 UNK         0.0831 
    110 H110      -55.2539  -23.8724   18.9135 H         1 UNK         0.0831 
    111 H111      -54.0195  -25.9131   18.3992 H         1 UNK         0.3133 
    112 H112      -52.4746  -27.4209   18.3702 H         1 UNK         0.0566 
    113 H113      -52.3755  -29.1282   15.8105 H         1 UNK         0.0814 
    114 H114      -51.6334  -29.5522   17.3514 H         1 UNK         0.0814 
    115 H115      -53.3828  -29.4461   17.2164 H         1 UNK         0.0814 
    116 H116      -51.0933  -26.8379   15.7830 H         1 UNK         0.3091 
    117 H117      -48.5453  -25.0030   17.5253 H         1 UNK         0.0702 
    118 H118      -47.2485  -26.0759   15.6903 H         1 UNK         0.0785 
    119 H119      -48.5354  -27.2542   15.4436 H         1 UNK         0.0785 
    120 H120      -47.6268  -27.2437   16.9482 H         1 UNK         0.0785 
    121 H121      -49.3160  -24.9449   14.8021 H         1 UNK         0.2998 
    122 H122      -51.7005  -22.2697   15.0334 H         1 UNK         0.0697 
    123 H123      -48.8375  -22.4539   13.9457 H         1 UNK         0.0825 
    124 H124      -49.4614  -21.2115   15.0197 H         1 UNK         0.0825 
    125 H125      -50.0823  -21.3407   13.3822 H         1 UNK         0.0825 
    126 H126      -50.4707  -24.1919   13.1250 H         1 UNK         0.3029 
    127 H127      -53.3472  -26.0835   12.8240 H         1 UNK         0.0897 
    128 H128      -54.2267  -24.2446   11.3716 H         1 UNK         0.0792 
    129 H129      -53.5299  -25.5387   10.4140 H         1 UNK         0.0792 
    130 H130      -52.6357  -24.0363   10.6549 H         1 UNK         0.0792 
    131 H131      -51.1008  -25.9367   11.0934 H         1 UNK         0.3086 
    132 H132      -48.8618  -27.8632   13.1073 H         1 UNK         0.0583 
    133 H133      -50.4908  -29.4544   12.1044 H         1 UNK         0.1020 
    134 H134      -50.5475  -28.4903   10.6444 H         1 UNK         0.1020 
    135 H135      -48.6973  -31.8199    9.5478 H         1 UNK         0.0694 
    136 H136      -49.7098  -31.8467   10.9718 H         1 UNK         0.0694 
    137 H137      -48.3492  -26.9482   10.5804 H         1 UNK         0.2989 
    138 H138      -47.9006  -23.9193   10.4501 H         1 UNK         0.1055 
    139 H139      -46.5976  -23.1544   12.3928 H         1 UNK         0.0806 
    140 H140      -45.5359  -23.3009   11.0034 H         1 UNK         0.0806 
    141 H141      -45.5130  -24.5303   12.2677 H         1 UNK         0.0806 
    142 H142      -46.8795  -25.1228    8.9206 H         1 UNK         0.3061 
    143 H143      -44.2794  -27.3620    8.7838 H         1 UNK         0.0734 
    144 H144      -45.6641  -29.0154    7.5521 H         1 UNK         0.0832 
    145 H145      -45.8963  -29.1774    9.2834 H         1 UNK         0.0832 
    146 H146      -47.1275  -28.3858    8.3081 H         1 UNK         0.0832 
    147 H147      -46.2880  -26.5640    6.8472 H         1 UNK         0.3156 
    148 H148      -44.7356  -23.4258    6.1024 H         1 UNK         0.0589 
    149 H149      -44.5235  -24.3818    3.8290 H         1 UNK         0.0808 
    150 H150      -43.3034  -25.0847    4.8780 H         1 UNK         0.0808 
    151 H151      -44.7369  -26.0149    4.4596 H         1 UNK         0.0808 
    152 H152      -46.8267  -24.6156    4.7085 H         1 UNK         0.3098 
    153 H153      -49.5912  -23.7281    6.7325 H         1 UNK         0.0720 
    154 H154      -50.1475  -22.4085    4.7016 H         1 UNK         0.0791 
    155 H155      -48.4652  -22.4651    4.1774 H         1 UNK         0.0791 
    156 H156      -48.9002  -21.6157    5.6506 H         1 UNK         0.0791 
    157 H157      -49.9926  -25.5795    5.6247 H         1 UNK         0.3028 
@<TRIPOS>BOND
     1    1    2 1    
     2    1   82 1    
     3    1   83 1    
     4    1   84 1    
     5    2    3 2    
     6    2    4 am   BACKBONE|DICT|INTERRES
     7    4    5 1    
     8    4   85 1    
     9    5    6 1    
    10    5   80 1    
    11    5   86 1    
    12    6    7 1    
    13    6   87 1    
    14    6   88 1    
    15    7    8 1    
    16    8    9 1    
    17    8   89 1    
    18    8   90 1    
    19    9   10 ar   
    20    9   14 ar   
    21   10   11 ar   
    22   10   91 1    
    23   11   12 ar   
    24   11   58 1    
    25   12   13 ar   
    26   12   92 1    
    27   13   14 ar   
    28   13   15 1    
    29   14   93 1    
    30   15   16 1    
    31   15   94 1    
    32   15   95 1    
    33   16   17 1    
    34   17   18 1    
    35   17   96 1    
    36   17   97 1    
    37   18   19 1    
    38   18   22 1    
    39   18   98 1    
    40   19   20 am   BACKBONE|DICT|INTERRES
    41   19   21 2    
    42   20   99 1    
    43   20  100 1    
    44   22   23 am   BACKBONE|DICT|INTERRES
    45   22  101 1    
    46   23   24 2    
    47   23   25 1    
    48   25   26 1    
    49   25   27 1    
    50   25  102 1    
    51   26  103 1    
    52   26  104 1    
    53   26  105 1    
    54   27   28 am   BACKBONE|DICT|INTERRES
    55   27  106 1    
    56   28   29 2    
    57   28   30 1    
    58   30   31 1    
    59   30   32 1    
    60   30  107 1    
    61   31  108 1    
    62   31  109 1    
    63   31  110 1    
    64   32   33 am   BACKBONE|DICT|INTERRES
    65   32  111 1    
    66   33   34 2    
    67   33   35 1    
    68   35   36 1    
    69   35   37 1    
    70   35  112 1    
    71   36  113 1    
    72   36  114 1    
    73   36  115 1    
    74   37   38 am   BACKBONE|DICT|INTERRES
    75   37  116 1    
    76   38   39 2    
    77   38   40 1    
    78   40   41 1    
    79   40   42 1    
    80   40  117 1    
    81   41  118 1    
    82   41  119 1    
    83   41  120 1    
    84   42   43 am   BACKBONE|DICT|INTERRES
    85   42  121 1    
    86   43   44 2    
    87   43   45 1    
    88   45   46 1    
    89   45   47 1    
    90   45  122 1    
    91   46  123 1    
    92   46  124 1    
    93   46  125 1    
    94   47   48 am   BACKBONE|DICT|INTERRES
    95   47  126 1    
    96   48   49 2    
    97   48   50 1    
    98   50   51 1    
    99   50   52 1    
   100   50  127 1    
   101   51  128 1    
   102   51  129 1    
   103   51  130 1    
   104   52   53 am   BACKBONE|DICT|INTERRES
   105   52  131 1    
   106   53   54 2    
   107   53   55 1    
   108   55   56 1    
   109   55   59 1    
   110   55  132 1    
   111   56   57 1    
   112   56  133 1    
   113   56  134 1    
   114   57   58 1    
   115   58  135 1    
   116   58  136 1    
   117   59   60 am   BACKBONE|DICT|INTERRES
   118   59  137 1    
   119   60   61 2    
   120   60   62 1    
   121   62   63 1    
   122   62   64 1    
   123   62  138 1    
   124   63  139 1    
   125   63  140 1    
   126   63  141 1    
   127   64   65 am   BACKBONE|DICT|INTERRES
   128   64  142 1    
   129   65   66 2    
   130   65   67 1    
   131   67   68 1    
   132   67   69 1    
   133   67  143 1    
   134   68  144 1    
   135   68  145 1    
   136   68  146 1    
   137   69   70 am   BACKBONE|DICT|INTERRES
   138   69  147 1    
   139   70   71 2    
   140   70   72 1    
   141   72   73 1    
   142   72   74 1    
   143   72  148 1    
   144   73  149 1    
   145   73  150 1    
   146   73  151 1    
   147   74   75 am   BACKBONE|DICT|INTERRES
   148   74  152 1    
   149   75   76 2    
   150   75   77 1    
   151   77   78 1    
   152   77   79 1    
   153   77  153 1    
   154   78  154 1    
   155   78  155 1    
   156   78  156 1    
   157   79   80 am   BACKBONE|DICT|INTERRES
   158   79  157 1    
   159   80   81 2    
@<TRIPOS>SUBSTRUCTURE
     1 UNK         1 GROUP             0       ****    0 ROOT    
