@<TRIPOS>MOLECULE
3R207
157   159    1
SMALL
USER_CHARGES


@<TRIPOS>ATOM
      1 CA        -46.7550  -28.6378    0.1192 C.3       0 UNK        -0.1975 
      2 C         -47.5209  -27.9078    1.2125 C.2       0 UNK         0.4852 
      3 O         -47.8874  -26.7463    1.0306 O.2       0 UNK        -0.5216 
      4 N         -47.7633  -28.5791    2.3478 N.am      1 UNK        -0.4461 
      5 CA        -48.4828  -28.0351    3.5089 C.3       1 UNK         0.0864 
      6 C6        -48.9726  -29.1736    4.4444 C.3       14 UNK        -0.0898 
      7 S7        -50.5659  -28.7998    5.2505 S.3       14 UNK        -0.2598 
      8 C8        -50.0124  -28.4324    6.9413 C.3       14 UNK         0.0286 
      9 C9        -51.1820  -28.1119    7.8590 C.ar      14 UNK        -0.0844 
     10 C10       -51.7450  -26.8318    7.8604 C.ar      14 UNK        -0.0881 
     11 C11       -52.8096  -26.5238    8.7128 C.ar      14 UNK        -0.0643 
     12 C12       -53.3115  -27.5108    9.5660 C.ar      14 UNK        -0.0930 
     13 C13       -52.7594  -28.7947    9.5710 C.ar      14 UNK        -0.0827 
     14 C14       -51.6929  -29.0901    8.7173 C.ar      14 UNK        -0.1249 
     15 C15       -53.3138  -29.8514   10.5123 C.3       14 UNK         0.0141 
     16 S16       -54.9508  -30.4322    9.9726 S.3       14 UNK        -0.2313 
     17 C17       -55.5607  -31.2112   11.5054 C.3       14 UNK        -0.0915 
     18 CA        -56.7079  -30.4042   12.1693 C.3       13 UNK         0.0968 
     19 C         -57.2857  -31.1803   13.3843 C.2       13 UNK         0.5732 
     20 N         -58.2723  -32.0375   13.1605 N.am      13 UNK        -0.7310 
     21 O         -56.8211  -31.0440   14.5153 O.2       13 UNK        -0.5035 
     22 N         -56.2792  -29.0457   12.5300 N.am      13 UNK        -0.4233 
     23 C         -57.0855  -28.0548   12.9253 C.2       13 UNK         0.4989 
     24 O         -58.3145  -28.1430   12.9597 O.2       13 UNK        -0.4996 
     25 CA        -56.3893  -26.7503   13.3658 C.3       12 UNK         0.0216 
     26 CB        -57.3812  -25.6051   13.6415 C.3       12 UNK        -0.1964 
     27 N         -55.5501  -26.9484   14.5516 N.am      12 UNK        -0.4276 
     28 C         -54.3630  -27.5648   14.5577 C.2       12 UNK         0.5020 
     29 O         -53.8149  -27.9898   13.5396 O.2       12 UNK        -0.5489 
     30 CA        -53.6662  -27.6940   15.9145 C.3       11 UNK         0.0294 
     31 CB        -52.6871  -28.8809   15.9509 C.3       11 UNK        -0.2019 
     32 N         -52.9229  -26.4680   16.1793 N.am      11 UNK        -0.4493 
     33 C         -53.3369  -25.4627   16.9608 C.2       11 UNK         0.4932 
     34 O         -54.4461  -25.4354   17.4968 O.2       11 UNK        -0.5029 
     35 CA        -52.3440  -24.2996   17.1827 C.3       10 UNK         0.0280 
     36 CB        -52.5820  -23.5537   18.5128 C.3       10 UNK        -0.1976 
     37 N         -50.9390  -24.7107   17.0463 N.am      10 UNK        -0.4242 
     38 C         -50.2808  -25.6169   17.7882 C.2       10 UNK         0.5072 
     39 O         -50.7419  -26.1374   18.8049 O.2       10 UNK        -0.5224 
     40 CA        -48.8884  -26.0555   17.3025 C.3       9 UNK         0.0343 
     41 CB        -48.8844  -27.5586   16.9670 C.3       9 UNK        -0.2003 
     42 N         -48.4429  -25.3161   16.1163 N.am      9 UNK        -0.4272 
     43 C         -47.3424  -24.5540   16.0649 C.2       9 UNK         0.4988 
     44 O         -46.5945  -24.3583   17.0239 O.2       9 UNK        -0.5108 
     45 CA        -46.9981  -23.9080   14.7134 C.3       8 UNK         0.0248 
     46 CB        -46.1938  -24.8834   13.8380 C.3       8 UNK        -0.2001 
     47 N         -48.1606  -23.4295   13.9630 N.am      8 UNK        -0.4140 
     48 C         -48.9167  -22.3784   14.3113 C.2       8 UNK         0.5028 
     49 O         -48.7831  -21.7552   15.3645 O.2       8 UNK        -0.5428 
     50 CA        -49.9998  -21.9437   13.3152 C.3       7 UNK         0.0264 
     51 CB        -49.3733  -21.1966   12.1255 C.3       7 UNK        -0.1988 
     52 N         -50.7442  -23.0993   12.8193 N.am      7 UNK        -0.4454 
     53 C         -51.9921  -23.4193   13.1871 C.2       7 UNK         0.5027 
     54 O         -52.6750  -22.7350   13.9495 O.2       7 UNK        -0.5083 
     55 CA        -52.5955  -24.7243   12.6217 C.3       6 UNK         0.0844 
     56 C56       -53.5365  -24.4285   11.4277 C.3       14 UNK        -0.0967 
     57 S57       -52.6624  -24.0023    9.8758 S.3       14 UNK        -0.2604 
     58 C58       -53.4354  -25.1370    8.6799 C.3       14 UNK         0.0134 
     59 N         -51.5992  -25.7457   12.2908 N.am      6 UNK        -0.4116 
     60 C         -50.7227  -26.3001   13.1380 C.2       5 UNK         0.5034 
     61 O         -50.6941  -26.0739   14.3484 O.2       5 UNK        -0.5045 
     62 CA        -49.6360  -27.1950   12.5176 C.3       5 UNK         0.0224 
     63 CB        -50.0722  -28.6664   12.5378 C.3       5 UNK        -0.1978 
     64 N         -49.2610  -26.8199   11.1482 N.am      5 UNK        -0.4737 
     65 C         -48.8200  -25.6190   10.7537 C.2       4 UNK         0.5027 
     66 O         -48.6779  -24.6635   11.5185 O.2       4 UNK        -0.5211 
     67 CA        -48.5082  -25.4594    9.2575 C.3       4 UNK         0.0297 
     68 CB        -48.5091  -23.9837    8.8206 C.3       4 UNK        -0.1993 
     69 N         -47.2350  -26.0688    8.8748 N.am      4 UNK        -0.4486 
     70 C         -46.9565  -27.3777    8.8435 C.2       3 UNK         0.4961 
     71 O         -47.7490  -28.2582    9.1807 O.2       3 UNK        -0.5105 
     72 CA        -45.5786  -27.7593    8.2730 C.3       3 UNK         0.0299 
     73 CB        -45.2489  -29.2502    8.4739 C.3       3 UNK        -0.1972 
     74 N         -45.5116  -27.4465    6.8437 N.am      3 UNK        -0.4305 
     75 C         -45.3157  -26.2257    6.3255 C.2       2 UNK         0.5006 
     76 O         -45.1045  -25.2221    7.0087 O.2       2 UNK        -0.5106 
     77 CA        -45.3867  -26.0947    4.7943 C.3       2 UNK         0.0296 
     78 CB        -43.9926  -26.2764    4.1726 C.3       2 UNK        -0.2002 
     79 N         -46.3245  -27.0334    4.1693 N.am      2 UNK        -0.4032 
     80 C         -47.6621  -26.9707    4.2767 C.2       1 UNK         0.5000 
     81 O         -48.2488  -26.1106    4.9352 O.2       1 UNK        -0.5238 
     82 H82       -46.4959  -29.6554    0.4111 H         1 UNK         0.0889 
     83 H83       -45.8324  -28.1059   -0.1117 H         1 UNK         0.0889 
     84 H84       -47.3554  -28.6887   -0.7888 H         1 UNK         0.0889 
     85 H85       -47.4487  -29.5360    2.4312 H         1 UNK         0.3028 
     86 H86       -49.3604  -27.5199    3.1109 H         1 UNK         0.0864 
     87 H87       -48.2183  -29.4462    5.1855 H         1 UNK         0.0720 
     88 H88       -49.1472  -30.0825    3.8661 H         1 UNK         0.0720 
     89 H89       -49.3212  -27.5901    6.9181 H         1 UNK         0.0814 
     90 H90       -49.4508  -29.2832    7.3303 H         1 UNK         0.0814 
     91 H91       -51.3554  -26.0761    7.1916 H         1 UNK         0.1469 
     92 H92       -54.1445  -27.2940   10.2192 H         1 UNK         0.1381 
     93 H93       -51.2603  -30.0812    8.7194 H         1 UNK         0.1206 
     94 H94       -52.6368  -30.7039   10.5851 H         1 UNK         0.0813 
     95 H95       -53.3829  -29.4300   11.5134 H         1 UNK         0.0813 
     96 H96       -55.9071  -32.2119   11.2405 H         1 UNK         0.0638 
     97 H97       -54.7344  -31.3541   12.2045 H         1 UNK         0.0638 
     98 H98       -57.5102  -30.2974   11.4364 H         1 UNK         0.0568 
     99 H99       -58.6520  -32.1670   12.2356 H         1 UNK         0.3450 
    100 H100      -58.6495  -32.5618   13.9344 H         1 UNK         0.3450 
    101 H101      -55.2794  -28.8929   12.6169 H         1 UNK         0.2987 
    102 H102      -55.7514  -26.4384   12.5378 H         1 UNK         0.0766 
    103 H103      -58.0040  -25.4088   12.7676 H         1 UNK         0.0798 
    104 H104      -56.8597  -24.6776   13.8795 H         1 UNK         0.0798 
    105 H105      -58.0486  -25.8381   14.4722 H         1 UNK         0.0798 
    106 H106      -55.9243  -26.6209   15.4320 H         1 UNK         0.3198 
    107 H107      -54.4244  -27.8617   16.6827 H         1 UNK         0.0843 
    108 H108      -51.8824  -28.7634   15.2258 H         1 UNK         0.0831 
    109 H109      -53.1996  -29.8163   15.7224 H         1 UNK         0.0831 
    110 H110      -52.2335  -28.9883   16.9363 H         1 UNK         0.0831 
    111 H111      -52.0360  -26.3702   15.6917 H         1 UNK         0.3133 
    112 H112      -52.5292  -23.5887   16.3791 H         1 UNK         0.0566 
    113 H113      -51.8677  -22.7412   18.6454 H         1 UNK         0.0814 
    114 H114      -52.4989  -24.2186   19.3729 H         1 UNK         0.0814 
    115 H115      -53.5795  -23.1136   18.5402 H         1 UNK         0.0814 
    116 H116      -50.4611  -24.3499   16.2336 H         1 UNK         0.3091 
    117 H117      -48.2053  -25.8935   18.1386 H         1 UNK         0.0702 
    118 H118      -47.8920  -27.8935   16.6652 H         1 UNK         0.0785 
    119 H119      -49.5775  -27.7952   16.1591 H         1 UNK         0.0785 
    120 H120      -49.1767  -28.1559   17.8317 H         1 UNK         0.0785 
    121 H121      -49.0059  -25.4374   15.2815 H         1 UNK         0.2998 
    122 H122      -46.3632  -23.0434   14.9191 H         1 UNK         0.0697 
    123 H123      -46.7758  -25.7661   13.5732 H         1 UNK         0.0825 
    124 H124      -45.2977  -25.2267   14.3569 H         1 UNK         0.0825 
    125 H125      -45.8694  -24.4091   12.9114 H         1 UNK         0.0825 
    126 H126      -48.3297  -23.8737   13.0608 H         1 UNK         0.3029 
    127 H127      -50.6672  -21.2504   13.8321 H         1 UNK         0.0897 
    128 H128      -48.6938  -21.8319   11.5556 H         1 UNK         0.0792 
    129 H129      -48.8044  -20.3297   12.4644 H         1 UNK         0.0792 
    130 H130      -50.1404  -20.8337   11.4412 H         1 UNK         0.0792 
    131 H131      -50.2389  -23.7254   12.1994 H         1 UNK         0.3086 
    132 H132      -53.2083  -25.1381   13.4237 H         1 UNK         0.0583 
    133 H133      -54.1710  -25.2955   11.2571 H         1 UNK         0.1020 
    134 H134      -54.2294  -23.6200   11.6702 H         1 UNK         0.1020 
    135 H135      -54.5097  -25.1966    8.8614 H         1 UNK         0.0694 
    136 H136      -53.3261  -24.7106    7.6815 H         1 UNK         0.0694 
    137 H137      -51.5309  -25.9895   11.3130 H         1 UNK         0.2989 
    138 H138      -48.7431  -27.0962   13.1370 H         1 UNK         0.1055 
    139 H139      -50.9878  -28.8208   11.9674 H         1 UNK         0.0806 
    140 H140      -49.3026  -29.3164   12.1208 H         1 UNK         0.0806 
    141 H141      -50.2603  -29.0040   13.5569 H         1 UNK         0.0806 
    142 H142      -49.2466  -27.5632   10.4570 H         1 UNK         0.3061 
    143 H143      -49.3004  -25.9625    8.7056 H         1 UNK         0.0734 
    144 H144      -47.7097  -23.4182    9.3010 H         1 UNK         0.0832 
    145 H145      -48.3860  -23.8905    7.7412 H         1 UNK         0.0832 
    146 H146      -49.4523  -23.5009    9.0812 H         1 UNK         0.0832 
    147 H147      -46.5184  -25.4400    8.5278 H         1 UNK         0.3156 
    148 H148      -44.8240  -27.1758    8.8050 H         1 UNK         0.0589 
    149 H149      -44.2482  -29.4876    8.1126 H         1 UNK         0.0808 
    150 H150      -45.2821  -29.5166    9.5313 H         1 UNK         0.0808 
    151 H151      -45.9564  -29.8970    7.9533 H         1 UNK         0.0808 
    152 H152      -45.6959  -28.2082    6.2081 H         1 UNK         0.3098 
    153 H153      -45.7285  -25.0819    4.5700 H         1 UNK         0.0720 
    154 H154      -43.2797  -25.5705    4.6015 H         1 UNK         0.0791 
    155 H155      -44.0118  -26.1001    3.0968 H         1 UNK         0.0791 
    156 H156      -43.5997  -27.2797    4.3426 H         1 UNK         0.0791 
    157 H157      -45.9276  -27.7586    3.5898 H         1 UNK         0.3028 
@<TRIPOS>BOND
     1    1    2 1    
     2    1   82 1    
     3    1   83 1    
     4    1   84 1    
     5    2    3 2    
     6    2    4 am   BACKBONE|DICT|INTERRES
     7    4    5 1    
     8    4   85 1    
     9    5    6 1    
    10    5   80 1    
    11    5   86 1    
    12    6    7 1    
    13    6   87 1    
    14    6   88 1    
    15    7    8 1    
    16    8    9 1    
    17    8   89 1    
    18    8   90 1    
    19    9   10 ar   
    20    9   14 ar   
    21   10   11 ar   
    22   10   91 1    
    23   11   12 ar   
    24   11   58 1    
    25   12   13 ar   
    26   12   92 1    
    27   13   14 ar   
    28   13   15 1    
    29   14   93 1    
    30   15   16 1    
    31   15   94 1    
    32   15   95 1    
    33   16   17 1    
    34   17   18 1    
    35   17   96 1    
    36   17   97 1    
    37   18   19 1    
    38   18   22 1    
    39   18   98 1    
    40   19   20 am   BACKBONE|DICT|INTERRES
    41   19   21 2    
    42   20   99 1    
    43   20  100 1    
    44   22   23 am   BACKBONE|DICT|INTERRES
    45   22  101 1    
    46   23   24 2    
    47   23   25 1    
    48   25   26 1    
    49   25   27 1    
    50   25  102 1    
    51   26  103 1    
    52   26  104 1    
    53   26  105 1    
    54   27   28 am   BACKBONE|DICT|INTERRES
    55   27  106 1    
    56   28   29 2    
    57   28   30 1    
    58   30   31 1    
    59   30   32 1    
    60   30  107 1    
    61   31  108 1    
    62   31  109 1    
    63   31  110 1    
    64   32   33 am   BACKBONE|DICT|INTERRES
    65   32  111 1    
    66   33   34 2    
    67   33   35 1    
    68   35   36 1    
    69   35   37 1    
    70   35  112 1    
    71   36  113 1    
    72   36  114 1    
    73   36  115 1    
    74   37   38 am   BACKBONE|DICT|INTERRES
    75   37  116 1    
    76   38   39 2    
    77   38   40 1    
    78   40   41 1    
    79   40   42 1    
    80   40  117 1    
    81   41  118 1    
    82   41  119 1    
    83   41  120 1    
    84   42   43 am   BACKBONE|DICT|INTERRES
    85   42  121 1    
    86   43   44 2    
    87   43   45 1    
    88   45   46 1    
    89   45   47 1    
    90   45  122 1    
    91   46  123 1    
    92   46  124 1    
    93   46  125 1    
    94   47   48 am   BACKBONE|DICT|INTERRES
    95   47  126 1    
    96   48   49 2    
    97   48   50 1    
    98   50   51 1    
    99   50   52 1    
   100   50  127 1    
   101   51  128 1    
   102   51  129 1    
   103   51  130 1    
   104   52   53 am   BACKBONE|DICT|INTERRES
   105   52  131 1    
   106   53   54 2    
   107   53   55 1    
   108   55   56 1    
   109   55   59 1    
   110   55  132 1    
   111   56   57 1    
   112   56  133 1    
   113   56  134 1    
   114   57   58 1    
   115   58  135 1    
   116   58  136 1    
   117   59   60 am   BACKBONE|DICT|INTERRES
   118   59  137 1    
   119   60   61 2    
   120   60   62 1    
   121   62   63 1    
   122   62   64 1    
   123   62  138 1    
   124   63  139 1    
   125   63  140 1    
   126   63  141 1    
   127   64   65 am   BACKBONE|DICT|INTERRES
   128   64  142 1    
   129   65   66 2    
   130   65   67 1    
   131   67   68 1    
   132   67   69 1    
   133   67  143 1    
   134   68  144 1    
   135   68  145 1    
   136   68  146 1    
   137   69   70 am   BACKBONE|DICT|INTERRES
   138   69  147 1    
   139   70   71 2    
   140   70   72 1    
   141   72   73 1    
   142   72   74 1    
   143   72  148 1    
   144   73  149 1    
   145   73  150 1    
   146   73  151 1    
   147   74   75 am   BACKBONE|DICT|INTERRES
   148   74  152 1    
   149   75   76 2    
   150   75   77 1    
   151   77   78 1    
   152   77   79 1    
   153   77  153 1    
   154   78  154 1    
   155   78  155 1    
   156   78  156 1    
   157   79   80 am   BACKBONE|DICT|INTERRES
   158   79  157 1    
   159   80   81 2    
@<TRIPOS>SUBSTRUCTURE
     1 UNK         1 GROUP             0       ****    0 ROOT    
