@<TRIPOS>MOLECULE
3R207
157   159    1
SMALL
USER_CHARGES


@<TRIPOS>ATOM
      1 CA        -45.5873  -29.6560    3.5022 C.3       0 UNK        -0.1975 
      2 C         -45.7863  -29.8652    5.0014 C.2       0 UNK         0.4852 
      3 O         -44.8537  -30.2939    5.6783 O.2       0 UNK        -0.5216 
      4 N         -46.9689  -29.5850    5.5693 N.am      1 UNK        -0.4461 
      5 CA        -48.1726  -29.0483    4.9144 C.3       1 UNK         0.0864 
      6 C6        -49.4285  -29.2099    5.8054 C.3       14 UNK        -0.0898 
      7 S7        -49.7329  -30.9243    6.3479 S.3       14 UNK        -0.2598 
      8 C8        -51.5509  -30.9420    6.4634 C.3       14 UNK         0.0286 
      9 C9        -52.0632  -30.0411    7.5801 C.ar      14 UNK        -0.0844 
     10 C10       -52.4041  -28.7108    7.3146 C.ar      14 UNK        -0.0881 
     11 C11       -52.8874  -27.8819    8.3307 C.ar      14 UNK        -0.0643 
     12 C12       -53.0527  -28.3988    9.6170 C.ar      14 UNK        -0.0930 
     13 C13       -52.7223  -29.7285    9.8950 C.ar      14 UNK        -0.0827 
     14 C14       -52.2191  -30.5429    8.8758 C.ar      14 UNK        -0.1249 
     15 C15       -52.9329  -30.2873   11.2915 C.3       14 UNK         0.0141 
     16 S16       -54.5335  -31.1422   11.3976 S.3       14 UNK        -0.2313 
     17 C17       -54.8197  -31.1557   13.1961 C.3       14 UNK        -0.0915 
     18 CA        -55.8411  -30.0725   13.6387 C.3       13 UNK         0.0968 
     19 C         -56.3137  -30.3235   15.0922 C.2       13 UNK         0.5732 
     20 N         -57.3186  -31.1672   15.2812 N.am      13 UNK        -0.7310 
     21 O         -55.7612  -29.7852   16.0500 O.2       13 UNK        -0.5035 
     22 N         -55.2860  -28.7185   13.5363 N.am      13 UNK        -0.4233 
     23 C         -55.5532  -27.8219   12.5804 C.2       13 UNK         0.4989 
     24 O         -56.2632  -28.0456   11.5990 O.2       13 UNK        -0.4996 
     25 CA        -54.9094  -26.4330   12.7709 C.3       12 UNK         0.0216 
     26 CB        -55.4337  -25.3731   11.7792 C.3       12 UNK        -0.1964 
     27 N         -55.0095  -25.9534   14.1559 N.am      12 UNK        -0.4276 
     28 C         -56.1312  -25.7480   14.8670 C.2       12 UNK         0.5020 
     29 O         -57.2670  -25.8782   14.4085 O.2       12 UNK        -0.5489 
     30 CA        -55.9719  -25.3589   16.3489 C.3       11 UNK         0.0294 
     31 CB        -56.7660  -26.3143   17.2571 C.3       11 UNK        -0.2019 
     32 N         -54.5743  -25.3640   16.7841 N.am      11 UNK        -0.4493 
     33 C         -53.7563  -24.3079   16.7939 C.2       11 UNK         0.4932 
     34 O         -54.0918  -23.1771   16.4425 O.2       11 UNK        -0.5029 
     35 CA        -52.3157  -24.5598   17.2657 C.3       10 UNK         0.0280 
     36 CB        -52.2579  -24.8542   18.7778 C.3       10 UNK        -0.1976 
     37 N         -51.5927  -25.5762   16.4872 N.am      10 UNK        -0.4242 
     38 C         -51.8183  -26.8975   16.3917 C.2       10 UNK         0.5072 
     39 O         -52.7594  -27.4664   16.9466 O.2       10 UNK        -0.5224 
     40 CA        -50.8583  -27.7421   15.5267 C.3       9 UNK         0.0343 
     41 CB        -51.5914  -28.3393   14.3145 C.3       9 UNK        -0.2003 
     42 N         -49.6797  -27.0102   15.0573 N.am      9 UNK        -0.4272 
     43 C         -48.6380  -26.6638   15.8266 C.2       9 UNK         0.4988 
     44 O         -48.5099  -27.0079   17.0019 O.2       9 UNK        -0.5108 
     45 CA        -47.5818  -25.7405   15.1939 C.3       8 UNK         0.0248 
     46 CB        -46.4738  -26.5720   14.5293 C.3       8 UNK        -0.2001 
     47 N         -48.1407  -24.7829   14.2295 N.am      8 UNK        -0.4140 
     48 C         -49.0464  -23.8393   14.5324 C.2       8 UNK         0.5028 
     49 O         -49.4852  -23.6601   15.6677 O.2       8 UNK        -0.5428 
     50 CA        -49.5940  -22.9781   13.3828 C.3       7 UNK         0.0264 
     51 CB        -48.5992  -21.8692   13.0062 C.3       7 UNK        -0.1988 
     52 N         -49.9362  -23.7621   12.1956 N.am      7 UNK        -0.4454 
     53 C         -50.9029  -24.6919   12.1358 C.2       7 UNK         0.5027 
     54 O         -51.6595  -24.9614   13.0699 O.2       7 UNK        -0.5083 
     55 CA        -51.0070  -25.4837   10.8150 C.3       6 UNK         0.0844 
     56 C56       -51.8064  -24.6768    9.7584 C.3       14 UNK        -0.0967 
     57 S57       -51.7642  -25.3743    8.0697 S.3       14 UNK        -0.2604 
     58 C58       -53.2414  -26.4353    8.0250 C.3       14 UNK         0.0134 
     59 N         -49.6818  -25.9024   10.3498 N.am      6 UNK        -0.4116 
     60 C         -48.8633  -26.7290   11.0173 C.2       5 UNK         0.5034 
     61 O         -49.1549  -27.2812   12.0785 O.2       5 UNK        -0.5045 
     62 CA        -47.4573  -26.9203   10.4309 C.3       5 UNK         0.0224 
     63 CB        -47.4594  -28.0094    9.3461 C.3       5 UNK        -0.1978 
     64 N         -46.9242  -25.6651    9.8913 N.am      5 UNK        -0.4737 
     65 C         -46.5108  -24.6441   10.6582 C.2       4 UNK         0.5027 
     66 O         -46.4977  -24.6843   11.8865 O.2       4 UNK        -0.5211 
     67 CA        -46.0742  -23.3462    9.9552 C.3       4 UNK         0.0297 
     68 CB        -44.5765  -23.3998    9.6164 C.3       4 UNK        -0.1993 
     69 N         -46.8377  -23.0558    8.7416 N.am      4 UNK        -0.4486 
     70 C         -48.1608  -22.8450    8.6936 C.2       3 UNK         0.4961 
     71 O         -48.8804  -22.7875    9.6906 O.2       3 UNK        -0.5105 
     72 CA        -48.7956  -22.7392    7.2928 C.3       3 UNK         0.0299 
     73 CB        -48.9196  -21.2667    6.8721 C.3       3 UNK        -0.1972 
     74 N         -48.0821  -23.4910    6.2484 N.am      3 UNK        -0.4305 
     75 C         -47.8285  -24.8069    6.2916 C.2       2 UNK         0.5006 
     76 O         -48.1580  -25.5324    7.2331 O.2       2 UNK        -0.5106 
     77 CA        -46.9989  -25.3908    5.1373 C.3       2 UNK         0.0296 
     78 CB        -45.5182  -25.0016    5.2910 C.3       2 UNK        -0.2002 
     79 N         -47.1003  -26.8486    5.1584 N.am      2 UNK        -0.4032 
     80 C         -48.0362  -27.5610    4.5192 C.2       1 UNK         0.5000 
     81 O         -48.7910  -27.0914    3.6659 O.2       1 UNK        -0.5238 
     82 H82       -45.5666  -28.5950    3.2561 H         1 UNK         0.0889 
     83 H83       -46.3742  -30.1390    2.9244 H         1 UNK         0.0889 
     84 H84       -44.6387  -30.0870    3.1826 H         1 UNK         0.0889 
     85 H85       -47.0804  -29.7824    6.5536 H         1 UNK         0.3028 
     86 H86       -48.3462  -29.6135    3.9971 H         1 UNK         0.0864 
     87 H87       -50.3047  -28.8660    5.2534 H         1 UNK         0.0720 
     88 H88       -49.3642  -28.5812    6.6955 H         1 UNK         0.0720 
     89 H89       -51.9832  -30.6474    5.5058 H         1 UNK         0.0814 
     90 H90       -51.8805  -31.9672    6.6382 H         1 UNK         0.0814 
     91 H91       -52.2919  -28.3128    6.3159 H         1 UNK         0.1469 
     92 H92       -53.4488  -27.7677   10.3984 H         1 UNK         0.1381 
     93 H93       -51.9662  -31.5730    9.0877 H         1 UNK         0.1206 
     94 H94       -52.1294  -30.9779   11.5519 H         1 UNK         0.0813 
     95 H95       -52.8973  -29.4793   12.0219 H         1 UNK         0.0813 
     96 H96       -53.8733  -31.0442   13.7284 H         1 UNK         0.0638 
     97 H97       -55.1889  -32.1526   13.4442 H         1 UNK         0.0638 
     98 H98       -56.7269  -30.1439   13.0040 H         1 UNK         0.0568 
     99 H99       -57.6306  -31.3510   16.2219 H         1 UNK         0.3450 
    100 H100      -57.7714  -31.6243   14.5050 H         1 UNK         0.3450 
    101 H101      -54.7693  -28.4242   14.3531 H         1 UNK         0.2987 
    102 H102      -53.8466  -26.5644   12.5678 H         1 UNK         0.0766 
    103 H103      -54.9189  -24.4213   11.9102 H         1 UNK         0.0798 
    104 H104      -56.5027  -25.1968   11.9013 H         1 UNK         0.0798 
    105 H105      -55.2748  -25.6886   10.7480 H         1 UNK         0.0798 
    106 H106      -54.1315  -25.7829   14.6261 H         1 UNK         0.3198 
    107 H107      -56.3887  -24.3560   16.4641 H         1 UNK         0.0843 
    108 H108      -56.4112  -27.3418   17.1689 H         1 UNK         0.0831 
    109 H109      -57.8264  -26.3123   17.0010 H         1 UNK         0.0831 
    110 H110      -56.6883  -26.0217   18.3043 H         1 UNK         0.0831 
    111 H111      -54.1684  -26.2637   17.0389 H         1 UNK         0.3133 
    112 H112      -51.7713  -23.6287   17.1023 H         1 UNK         0.0566 
    113 H113      -51.2272  -24.9354   19.1233 H         1 UNK         0.0814 
    114 H114      -52.7281  -24.0518   19.3478 H         1 UNK         0.0814 
    115 H115      -52.7712  -25.7798   19.0397 H         1 UNK         0.0814 
    116 H116      -50.8033  -25.1999   15.9719 H         1 UNK         0.3091 
    117 H117      -50.5167  -28.5700   16.1515 H         1 UNK         0.0702 
    118 H118      -52.4523  -28.9309   14.6278 H         1 UNK         0.0785 
    119 H119      -51.9481  -27.5642   13.6376 H         1 UNK         0.0785 
    120 H120      -50.9365  -28.9996   13.7453 H         1 UNK         0.0785 
    121 H121      -49.6684  -26.7440   14.0785 H         1 UNK         0.2998 
    122 H122      -47.1308  -25.1607   16.0018 H         1 UNK         0.0697 
    123 H123      -46.8557  -27.1531   13.6900 H         1 UNK         0.0825 
    124 H124      -46.0330  -27.2740   15.2384 H         1 UNK         0.0825 
    125 H125      -45.6676  -25.9377   14.1607 H         1 UNK         0.0825 
    126 H126      -47.7652  -24.8210   13.2844 H         1 UNK         0.3029 
    127 H127      -50.5120  -22.5036   13.7365 H         1 UNK         0.0897 
    128 H128      -49.0030  -21.2213   12.2279 H         1 UNK         0.0792 
    129 H129      -47.6557  -22.2775   12.6443 H         1 UNK         0.0792 
    130 H130      -48.3729  -21.2400   13.8681 H         1 UNK         0.0792 
    131 H131      -49.4072  -23.5608   11.3496 H         1 UNK         0.3086 
    132 H132      -51.5644  -26.3962   11.0309 H         1 UNK         0.0583 
    133 H133      -52.8431  -24.5606   10.0784 H         1 UNK         0.1020 
    134 H134      -51.4140  -23.6611    9.6790 H         1 UNK         0.1020 
    135 H135      -54.0035  -26.0661    8.7114 H         1 UNK         0.0694 
    136 H136      -53.6816  -26.3739    7.0286 H         1 UNK         0.0694 
    137 H137      -49.3676  -25.5104    9.4721 H         1 UNK         0.2989 
    138 H138      -46.8011  -27.2514   11.2387 H         1 UNK         0.1055 
    139 H139      -47.7763  -28.9674    9.7606 H         1 UNK         0.0806 
    140 H140      -46.4658  -28.1512    8.9212 H         1 UNK         0.0806 
    141 H141      -48.1441  -27.7701    8.5335 H         1 UNK         0.0806 
    142 H142      -47.0034  -25.5332    8.8885 H         1 UNK         0.3061 
    143 H143      -46.2375  -22.5220   10.6523 H         1 UNK         0.0734 
    144 H144      -44.2288  -22.4553    9.1976 H         1 UNK         0.0832 
    145 H145      -43.9825  -23.5928   10.5110 H         1 UNK         0.0832 
    146 H146      -44.3509  -24.1905    8.8996 H         1 UNK         0.0832 
    147 H147      -46.3315  -23.0772    7.8691 H         1 UNK         0.3156 
    148 H148      -49.8012  -23.1574    7.3634 H         1 UNK         0.0589 
    149 H149      -47.9429  -20.7966    6.7501 H         1 UNK         0.0808 
    150 H150      -49.4625  -21.1659    5.9322 H         1 UNK         0.0808 
    151 H151      -49.4662  -20.6923    7.6217 H         1 UNK         0.0808 
    152 H152      -47.7674  -22.9623    5.4470 H         1 UNK         0.3098 
    153 H153      -47.3783  -24.9986    4.1913 H         1 UNK         0.0720 
    154 H154      -45.1075  -25.3338    6.2456 H         1 UNK         0.0791 
    155 H155      -45.3845  -23.9206    5.2355 H         1 UNK         0.0791 
    156 H156      -44.9118  -25.4395    4.4977 H         1 UNK         0.0791 
    157 H157      -46.5710  -27.3184    5.8784 H         1 UNK         0.3028 
@<TRIPOS>BOND
     1    1    2 1    
     2    1   82 1    
     3    1   83 1    
     4    1   84 1    
     5    2    3 2    
     6    2    4 am   BACKBONE|DICT|INTERRES
     7    4    5 1    
     8    4   85 1    
     9    5    6 1    
    10    5   80 1    
    11    5   86 1    
    12    6    7 1    
    13    6   87 1    
    14    6   88 1    
    15    7    8 1    
    16    8    9 1    
    17    8   89 1    
    18    8   90 1    
    19    9   10 ar   
    20    9   14 ar   
    21   10   11 ar   
    22   10   91 1    
    23   11   12 ar   
    24   11   58 1    
    25   12   13 ar   
    26   12   92 1    
    27   13   14 ar   
    28   13   15 1    
    29   14   93 1    
    30   15   16 1    
    31   15   94 1    
    32   15   95 1    
    33   16   17 1    
    34   17   18 1    
    35   17   96 1    
    36   17   97 1    
    37   18   19 1    
    38   18   22 1    
    39   18   98 1    
    40   19   20 am   BACKBONE|DICT|INTERRES
    41   19   21 2    
    42   20   99 1    
    43   20  100 1    
    44   22   23 am   BACKBONE|DICT|INTERRES
    45   22  101 1    
    46   23   24 2    
    47   23   25 1    
    48   25   26 1    
    49   25   27 1    
    50   25  102 1    
    51   26  103 1    
    52   26  104 1    
    53   26  105 1    
    54   27   28 am   BACKBONE|DICT|INTERRES
    55   27  106 1    
    56   28   29 2    
    57   28   30 1    
    58   30   31 1    
    59   30   32 1    
    60   30  107 1    
    61   31  108 1    
    62   31  109 1    
    63   31  110 1    
    64   32   33 am   BACKBONE|DICT|INTERRES
    65   32  111 1    
    66   33   34 2    
    67   33   35 1    
    68   35   36 1    
    69   35   37 1    
    70   35  112 1    
    71   36  113 1    
    72   36  114 1    
    73   36  115 1    
    74   37   38 am   BACKBONE|DICT|INTERRES
    75   37  116 1    
    76   38   39 2    
    77   38   40 1    
    78   40   41 1    
    79   40   42 1    
    80   40  117 1    
    81   41  118 1    
    82   41  119 1    
    83   41  120 1    
    84   42   43 am   BACKBONE|DICT|INTERRES
    85   42  121 1    
    86   43   44 2    
    87   43   45 1    
    88   45   46 1    
    89   45   47 1    
    90   45  122 1    
    91   46  123 1    
    92   46  124 1    
    93   46  125 1    
    94   47   48 am   BACKBONE|DICT|INTERRES
    95   47  126 1    
    96   48   49 2    
    97   48   50 1    
    98   50   51 1    
    99   50   52 1    
   100   50  127 1    
   101   51  128 1    
   102   51  129 1    
   103   51  130 1    
   104   52   53 am   BACKBONE|DICT|INTERRES
   105   52  131 1    
   106   53   54 2    
   107   53   55 1    
   108   55   56 1    
   109   55   59 1    
   110   55  132 1    
   111   56   57 1    
   112   56  133 1    
   113   56  134 1    
   114   57   58 1    
   115   58  135 1    
   116   58  136 1    
   117   59   60 am   BACKBONE|DICT|INTERRES
   118   59  137 1    
   119   60   61 2    
   120   60   62 1    
   121   62   63 1    
   122   62   64 1    
   123   62  138 1    
   124   63  139 1    
   125   63  140 1    
   126   63  141 1    
   127   64   65 am   BACKBONE|DICT|INTERRES
   128   64  142 1    
   129   65   66 2    
   130   65   67 1    
   131   67   68 1    
   132   67   69 1    
   133   67  143 1    
   134   68  144 1    
   135   68  145 1    
   136   68  146 1    
   137   69   70 am   BACKBONE|DICT|INTERRES
   138   69  147 1    
   139   70   71 2    
   140   70   72 1    
   141   72   73 1    
   142   72   74 1    
   143   72  148 1    
   144   73  149 1    
   145   73  150 1    
   146   73  151 1    
   147   74   75 am   BACKBONE|DICT|INTERRES
   148   74  152 1    
   149   75   76 2    
   150   75   77 1    
   151   77   78 1    
   152   77   79 1    
   153   77  153 1    
   154   78  154 1    
   155   78  155 1    
   156   78  156 1    
   157   79   80 am   BACKBONE|DICT|INTERRES
   158   79  157 1    
   159   80   81 2    
@<TRIPOS>SUBSTRUCTURE
     1 UNK         1 GROUP             0       ****    0 ROOT    
