@<TRIPOS>MOLECULE
3R207
157   159    1
SMALL
USER_CHARGES


@<TRIPOS>ATOM
      1 CA        -44.8156  -28.8707    5.3802 C.3       0 UNK        -0.1975 
      2 C         -46.2194  -29.0664    4.8264 C.2       0 UNK         0.4852 
      3 O         -46.3743  -29.5278    3.6950 O.2       0 UNK        -0.5216 
      4 N         -47.2397  -28.7178    5.6145 N.am      1 UNK        -0.4461 
      5 CA        -48.6557  -28.7924    5.2697 C.3       1 UNK         0.0864 
      6 C6        -49.2108  -30.2245    5.4876 C.3       14 UNK        -0.0898 
      7 S7        -50.9697  -30.4283    5.0368 S.3       14 UNK        -0.2598 
      8 C8        -51.6755  -31.1447    6.5577 C.3       14 UNK         0.0286 
      9 C9        -51.6249  -30.1890    7.7434 C.ar      14 UNK        -0.0844 
     10 C10       -50.6465  -30.3425    8.7308 C.ar      14 UNK        -0.0881 
     11 C11       -50.6082  -29.4860    9.8336 C.ar      14 UNK        -0.0643 
     12 C12       -51.5674  -28.4763    9.9554 C.ar      14 UNK        -0.0930 
     13 C13       -52.5639  -28.3243    8.9866 C.ar      14 UNK        -0.0827 
     14 C14       -52.5790  -29.1754    7.8758 C.ar      14 UNK        -0.1249 
     15 C15       -53.6272  -27.2447    9.1431 C.3       14 UNK         0.0141 
     16 S16       -55.2896  -27.9528    9.3676 S.3       14 UNK        -0.2313 
     17 C17       -55.1339  -28.7852   10.9842 C.3       14 UNK        -0.0915 
     18 CA        -56.3471  -28.4888   11.9025 C.3       13 UNK         0.0968 
     19 C         -56.3503  -29.4068   13.1537 C.2       13 UNK         0.5732 
     20 N         -56.7635  -30.6572   12.9967 N.am      13 UNK        -0.7310 
     21 O         -55.9600  -29.0190   14.2526 O.2       13 UNK        -0.5035 
     22 N         -56.4067  -27.0665   12.2618 N.am      13 UNK        -0.4233 
     23 C         -57.5370  -26.3805   12.4723 C.2       13 UNK         0.4989 
     24 O         -58.6633  -26.8707   12.3656 O.2       13 UNK        -0.4996 
     25 CA        -57.3830  -24.8861   12.8284 C.3       12 UNK         0.0216 
     26 CB        -58.6615  -24.2701   13.4390 C.3       12 UNK        -0.1964 
     27 N         -56.2066  -24.6136   13.6633 N.am      12 UNK        -0.4276 
     28 C         -55.9756  -25.0667   14.9033 C.2       12 UNK         0.5020 
     29 O         -56.7806  -25.7132   15.5772 O.2       12 UNK        -0.5489 
     30 CA        -54.5811  -24.7699   15.4746 C.3       11 UNK         0.0294 
     31 CB        -54.6653  -24.0408   16.8258 C.3       11 UNK        -0.2019 
     32 N         -53.8171  -26.0043   15.6382 N.am      11 UNK        -0.4493 
     33 C         -53.4226  -26.8150   14.6480 C.2       11 UNK         0.4932 
     34 O         -53.6408  -26.5976   13.4527 O.2       11 UNK        -0.5029 
     35 CA        -52.6202  -28.0564   15.0819 C.3       10 UNK         0.0280 
     36 CB        -52.2425  -28.9652   13.8990 C.3       10 UNK        -0.1976 
     37 N         -51.3979  -27.6688   15.7894 N.am      10 UNK        -0.4242 
     38 C         -51.3224  -27.3210   17.0818 C.2       10 UNK         0.5072 
     39 O         -52.2911  -27.3075   17.8429 O.2       10 UNK        -0.5224 
     40 CA        -49.9482  -26.8694   17.5948 C.3       9 UNK         0.0343 
     41 CB        -48.9622  -28.0482   17.6614 C.3       9 UNK        -0.2003 
     42 N         -49.4081  -25.8194   16.7325 N.am      9 UNK        -0.4272 
     43 C         -49.6299  -24.5065   16.8992 C.2       9 UNK         0.4988 
     44 O         -50.2261  -24.0268   17.8638 O.2       9 UNK        -0.5108 
     45 CA        -49.1085  -23.5652   15.7967 C.3       8 UNK         0.0248 
     46 CB        -47.6729  -23.1123   16.1058 C.3       8 UNK        -0.2001 
     47 N         -49.1550  -24.1908   14.4732 N.am      8 UNK        -0.4140 
     48 C         -50.2934  -24.4527   13.8118 C.2       8 UNK         0.5028 
     49 O         -51.3901  -24.0192   14.1621 O.2       8 UNK        -0.5428 
     50 CA        -50.2164  -25.3716   12.5780 C.3       7 UNK         0.0264 
     51 CB        -50.5662  -24.6087   11.2895 C.3       7 UNK        -0.1988 
     52 N         -48.9207  -26.0399   12.4184 N.am      7 UNK        -0.4454 
     53 C         -48.4700  -27.0325   13.2039 C.2       7 UNK         0.5027 
     54 O         -49.1036  -27.4647   14.1678 O.2       7 UNK        -0.5083 
     55 CA        -47.0718  -27.6213   12.9015 C.3       6 UNK         0.0844 
     56 C56       -47.1520  -28.9596   12.1242 C.3       14 UNK        -0.0967 
     57 S57       -47.9900  -28.8473   10.5013 S.3       14 UNK        -0.2604 
     58 C58       -49.5556  -29.6795   10.9124 C.3       14 UNK         0.0134 
     59 N         -46.1688  -26.6654   12.2568 N.am      6 UNK        -0.4116 
     60 C         -45.7298  -25.5294   12.8175 C.2       5 UNK         0.5034 
     61 O         -46.0011  -25.1902   13.9696 O.2       5 UNK        -0.5045 
     62 CA        -44.8883  -24.5855   11.9363 C.3       5 UNK         0.0224 
     63 CB        -43.3896  -24.8177   12.1867 C.3       5 UNK        -0.1978 
     64 N         -45.1571  -24.6673   10.4920 N.am      5 UNK        -0.4737 
     65 C         -46.3595  -24.5201    9.9190 C.2       4 UNK         0.5027 
     66 O         -47.4009  -24.3765   10.5628 O.2       4 UNK        -0.5211 
     67 CA        -46.4045  -24.5918    8.3826 C.3       4 UNK         0.0297 
     68 CB        -46.0268  -25.9995    7.8914 C.3       4 UNK        -0.1993 
     69 N         -47.7459  -24.2545    7.8995 N.am      4 UNK        -0.4486 
     70 C         -48.2100  -23.0014    7.7787 C.2       3 UNK         0.4961 
     71 O         -47.4898  -22.0054    7.8709 O.2       3 UNK        -0.5105 
     72 CA        -49.7287  -22.8050    7.5743 C.3       3 UNK         0.0299 
     73 CB        -50.0469  -21.6902    6.5542 C.3       3 UNK        -0.1972 
     74 N         -50.4741  -24.0362    7.2783 N.am      3 UNK        -0.4305 
     75 C         -50.4007  -24.7855    6.1702 C.2       2 UNK         0.5006 
     76 O         -49.7210  -24.5077    5.1795 O.2       2 UNK        -0.5106 
     77 CA        -51.2289  -26.0806    6.1843 C.3       2 UNK         0.0296 
     78 CB        -52.5615  -25.8931    5.4422 C.3       2 UNK        -0.2002 
     79 N         -50.4898  -27.1926    5.5885 N.am      2 UNK        -0.4032 
     80 C         -49.3633  -27.7056    6.1003 C.2       1 UNK         0.5000 
     81 O         -48.8659  -27.3297    7.1666 O.2       1 UNK        -0.5238 
     82 H82       -44.2793  -28.1286    4.7896 H         1 UNK         0.0889 
     83 H83       -44.2610  -29.8077    5.3365 H         1 UNK         0.0889 
     84 H84       -44.8296  -28.5353    6.4172 H         1 UNK         0.0889 
     85 H85       -47.0818  -28.3006    6.5244 H         1 UNK         0.3028 
     86 H86       -48.7688  -28.5250    4.2165 H         1 UNK         0.0864 
     87 H87       -48.6443  -30.9287    4.8765 H         1 UNK         0.0720 
     88 H88       -49.0435  -30.5378    6.5174 H         1 UNK         0.0720 
     89 H89       -51.1552  -32.0750    6.7908 H         1 UNK         0.0814 
     90 H90       -52.7128  -31.4218    6.3642 H         1 UNK         0.0814 
     91 H91       -49.9121  -31.1316    8.6466 H         1 UNK         0.1469 
     92 H92       -51.5453  -27.8176   10.8121 H         1 UNK         0.1381 
     93 H93       -53.3454  -29.0585    7.1219 H         1 UNK         0.1206 
     94 H94       -53.6355  -26.6160    8.2527 H         1 UNK         0.0813 
     95 H95       -53.4008  -26.5864    9.9838 H         1 UNK         0.0813 
     96 H96       -54.2062  -28.4790   11.4689 H         1 UNK         0.0638 
     97 H97       -55.0398  -29.8551   10.7902 H         1 UNK         0.0638 
     98 H98       -57.2484  -28.7348   11.3370 H         1 UNK         0.0568 
     99 H99       -56.7644  -31.2739   13.7937 H         1 UNK         0.3450 
    100 H100      -57.0796  -30.9954   12.1012 H         1 UNK         0.3450 
    101 H101      -55.5141  -26.6346   12.4705 H         1 UNK         0.2987 
    102 H102      -57.2013  -24.3769   11.8808 H         1 UNK         0.0766 
    103 H103      -58.5224  -23.2141   13.6703 H         1 UNK         0.0798 
    104 H104      -58.9601  -24.7785   14.3561 H         1 UNK         0.0798 
    105 H105      -59.4990  -24.3401   12.7438 H         1 UNK         0.0798 
    106 H106      -55.4588  -24.1116   13.2031 H         1 UNK         0.3198 
    107 H107      -54.0349  -24.1295   14.7787 H         1 UNK         0.0843 
    108 H108      -55.1660  -24.6465   17.5824 H         1 UNK         0.0831 
    109 H109      -55.2245  -23.1091   16.7308 H         1 UNK         0.0831 
    110 H110      -53.6731  -23.7872   17.2006 H         1 UNK         0.0831 
    111 H111      -53.5823  -26.2796   16.5854 H         1 UNK         0.3133 
    112 H112      -53.2537  -28.6374   15.7554 H         1 UNK         0.0566 
    113 H113      -51.6609  -28.4273   13.1523 H         1 UNK         0.0814 
    114 H114      -51.6567  -29.8241   14.2264 H         1 UNK         0.0814 
    115 H115      -53.1346  -29.3519   13.4068 H         1 UNK         0.0814 
    116 H116      -50.5515  -27.6227   15.2241 H         1 UNK         0.3091 
    117 H117      -50.0752  -26.4831   18.6086 H         1 UNK         0.0702 
    118 H118      -48.0038  -27.7362   18.0767 H         1 UNK         0.0785 
    119 H119      -48.7731  -28.4844   16.6799 H         1 UNK         0.0785 
    120 H120      -49.3489  -28.8422   18.3017 H         1 UNK         0.0785 
    121 H121      -48.9440  -26.1295   15.8887 H         1 UNK         0.2998 
    122 H122      -49.7487  -22.6804   15.7804 H         1 UNK         0.0697 
    123 H123      -46.9863  -23.9572   16.1715 H         1 UNK         0.0825 
    124 H124      -47.6294  -22.5843   17.0594 H         1 UNK         0.0825 
    125 H125      -47.2960  -22.4326   15.3414 H         1 UNK         0.0825 
    126 H126      -48.2839  -24.5512   14.1057 H         1 UNK         0.3029 
    127 H127      -50.9728  -26.1457   12.7180 H         1 UNK         0.0897 
    128 H128      -51.5827  -24.2157   11.3369 H         1 UNK         0.0792 
    129 H129      -50.5081  -25.2579   10.4157 H         1 UNK         0.0792 
    130 H130      -49.8981  -23.7625   11.1273 H         1 UNK         0.0792 
    131 H131      -48.3234  -25.6814   11.6767 H         1 UNK         0.3086 
    132 H132      -46.6278  -27.8495   13.8730 H         1 UNK         0.0583 
    133 H133      -46.1455  -29.3465   11.9571 H         1 UNK         0.1020 
    134 H134      -47.6435  -29.7148   12.7408 H         1 UNK         0.1020 
    135 H135      -49.3676  -30.7438   11.0620 H         1 UNK         0.0694 
    136 H136      -49.9292  -29.3006   11.8633 H         1 UNK         0.0694 
    137 H137      -45.9238  -26.8549   11.2964 H         1 UNK         0.2989 
    138 H138      -45.1331  -23.5681   12.2496 H         1 UNK         0.1055 
    139 H139      -43.1539  -24.7400   13.2493 H         1 UNK         0.0806 
    140 H140      -42.7798  -24.0770   11.6689 H         1 UNK         0.0806 
    141 H141      -43.0729  -25.8072   11.8544 H         1 UNK         0.0806 
    142 H142      -44.3527  -24.7948    9.8940 H         1 UNK         0.3061 
    143 H143      -45.6860  -23.8750    7.9793 H         1 UNK         0.0734 
    144 H144      -46.1689  -26.0933    6.8147 H         1 UNK         0.0832 
    145 H145      -44.9796  -26.2229    8.0973 H         1 UNK         0.0832 
    146 H146      -46.6240  -26.7698    8.3809 H         1 UNK         0.0832 
    147 H147      -48.3999  -25.0233    7.8337 H         1 UNK         0.3156 
    148 H148      -50.1056  -22.4692    8.5415 H         1 UNK         0.0589 
    149 H149      -49.6214  -21.9019    5.5730 H         1 UNK         0.0808 
    150 H150      -51.1217  -21.5559    6.4335 H         1 UNK         0.0808 
    151 H151      -49.6382  -20.7332    6.8811 H         1 UNK         0.0808 
    152 H152      -51.0683  -24.3625    8.0275 H         1 UNK         0.3098 
    153 H153      -51.4402  -26.3493    7.2204 H         1 UNK         0.0720 
    154 H154      -53.1704  -26.7965    5.4875 H         1 UNK         0.0791 
    155 H155      -52.4063  -25.6432    4.3918 H         1 UNK         0.0791 
    156 H156      -53.1462  -25.0866    5.8865 H         1 UNK         0.0791 
    157 H157      -50.8341  -27.5504    4.7098 H         1 UNK         0.3028 
@<TRIPOS>BOND
     1    1    2 1    
     2    1   82 1    
     3    1   83 1    
     4    1   84 1    
     5    2    3 2    
     6    2    4 am   BACKBONE|DICT|INTERRES
     7    4    5 1    
     8    4   85 1    
     9    5    6 1    
    10    5   80 1    
    11    5   86 1    
    12    6    7 1    
    13    6   87 1    
    14    6   88 1    
    15    7    8 1    
    16    8    9 1    
    17    8   89 1    
    18    8   90 1    
    19    9   10 ar   
    20    9   14 ar   
    21   10   11 ar   
    22   10   91 1    
    23   11   12 ar   
    24   11   58 1    
    25   12   13 ar   
    26   12   92 1    
    27   13   14 ar   
    28   13   15 1    
    29   14   93 1    
    30   15   16 1    
    31   15   94 1    
    32   15   95 1    
    33   16   17 1    
    34   17   18 1    
    35   17   96 1    
    36   17   97 1    
    37   18   19 1    
    38   18   22 1    
    39   18   98 1    
    40   19   20 am   BACKBONE|DICT|INTERRES
    41   19   21 2    
    42   20   99 1    
    43   20  100 1    
    44   22   23 am   BACKBONE|DICT|INTERRES
    45   22  101 1    
    46   23   24 2    
    47   23   25 1    
    48   25   26 1    
    49   25   27 1    
    50   25  102 1    
    51   26  103 1    
    52   26  104 1    
    53   26  105 1    
    54   27   28 am   BACKBONE|DICT|INTERRES
    55   27  106 1    
    56   28   29 2    
    57   28   30 1    
    58   30   31 1    
    59   30   32 1    
    60   30  107 1    
    61   31  108 1    
    62   31  109 1    
    63   31  110 1    
    64   32   33 am   BACKBONE|DICT|INTERRES
    65   32  111 1    
    66   33   34 2    
    67   33   35 1    
    68   35   36 1    
    69   35   37 1    
    70   35  112 1    
    71   36  113 1    
    72   36  114 1    
    73   36  115 1    
    74   37   38 am   BACKBONE|DICT|INTERRES
    75   37  116 1    
    76   38   39 2    
    77   38   40 1    
    78   40   41 1    
    79   40   42 1    
    80   40  117 1    
    81   41  118 1    
    82   41  119 1    
    83   41  120 1    
    84   42   43 am   BACKBONE|DICT|INTERRES
    85   42  121 1    
    86   43   44 2    
    87   43   45 1    
    88   45   46 1    
    89   45   47 1    
    90   45  122 1    
    91   46  123 1    
    92   46  124 1    
    93   46  125 1    
    94   47   48 am   BACKBONE|DICT|INTERRES
    95   47  126 1    
    96   48   49 2    
    97   48   50 1    
    98   50   51 1    
    99   50   52 1    
   100   50  127 1    
   101   51  128 1    
   102   51  129 1    
   103   51  130 1    
   104   52   53 am   BACKBONE|DICT|INTERRES
   105   52  131 1    
   106   53   54 2    
   107   53   55 1    
   108   55   56 1    
   109   55   59 1    
   110   55  132 1    
   111   56   57 1    
   112   56  133 1    
   113   56  134 1    
   114   57   58 1    
   115   58  135 1    
   116   58  136 1    
   117   59   60 am   BACKBONE|DICT|INTERRES
   118   59  137 1    
   119   60   61 2    
   120   60   62 1    
   121   62   63 1    
   122   62   64 1    
   123   62  138 1    
   124   63  139 1    
   125   63  140 1    
   126   63  141 1    
   127   64   65 am   BACKBONE|DICT|INTERRES
   128   64  142 1    
   129   65   66 2    
   130   65   67 1    
   131   67   68 1    
   132   67   69 1    
   133   67  143 1    
   134   68  144 1    
   135   68  145 1    
   136   68  146 1    
   137   69   70 am   BACKBONE|DICT|INTERRES
   138   69  147 1    
   139   70   71 2    
   140   70   72 1    
   141   72   73 1    
   142   72   74 1    
   143   72  148 1    
   144   73  149 1    
   145   73  150 1    
   146   73  151 1    
   147   74   75 am   BACKBONE|DICT|INTERRES
   148   74  152 1    
   149   75   76 2    
   150   75   77 1    
   151   77   78 1    
   152   77   79 1    
   153   77  153 1    
   154   78  154 1    
   155   78  155 1    
   156   78  156 1    
   157   79   80 am   BACKBONE|DICT|INTERRES
   158   79  157 1    
   159   80   81 2    
@<TRIPOS>SUBSTRUCTURE
     1 UNK         1 GROUP             0       ****    0 ROOT    
