@<TRIPOS>MOLECULE
3R207
157   159    1
SMALL
USER_CHARGES


@<TRIPOS>ATOM
      1 CA        -51.0780  -25.6145    1.1757 C.3       0 UNK        -0.1975 
      2 C         -50.7485  -27.0946    1.3531 C.2       0 UNK         0.4852 
      3 O         -50.4896  -27.7760    0.3628 O.2       0 UNK        -0.5216 
      4 N         -50.7471  -27.6436    2.5774 N.am      1 UNK        -0.4461 
      5 CA        -50.9796  -26.9714    3.8640 C.3       1 UNK         0.0864 
      6 C6        -51.2798  -27.9927    4.9907 C.3       14 UNK        -0.0898 
      7 S7        -49.9832  -29.2646    5.2185 S.3       14 UNK        -0.2598 
      8 C8        -50.9583  -30.6837    5.8146 C.3       14 UNK         0.0286 
      9 C9        -51.5001  -30.4432    7.2164 C.ar      14 UNK        -0.0844 
     10 C10       -50.7228  -30.7553    8.3368 C.ar      14 UNK        -0.0881 
     11 C11       -51.2083  -30.5129    9.6255 C.ar      14 UNK        -0.0643 
     12 C12       -52.4735  -29.9431    9.7868 C.ar      14 UNK        -0.0930 
     13 C13       -53.2704  -29.6505    8.6771 C.ar      14 UNK        -0.0827 
     14 C14       -52.7798  -29.9083    7.3943 C.ar      14 UNK        -0.1249 
     15 C15       -54.6465  -29.0265    8.8579 C.3       14 UNK         0.0141 
     16 S16       -55.9521  -30.2730    9.1157 S.3       14 UNK        -0.2313 
     17 C17       -55.7993  -30.6410   10.8987 C.3       14 UNK        -0.0915 
     18 CA        -56.4618  -29.5561   11.7998 C.3       13 UNK         0.0968 
     19 C         -57.9795  -29.7813   12.0650 C.2       13 UNK         0.5732 
     20 N         -58.5185  -29.3476   13.1995 N.am      13 UNK        -0.7310 
     21 O         -58.6891  -30.3474   11.2370 O.2       13 UNK        -0.5035 
     22 N         -55.6981  -29.3207   13.0356 N.am      13 UNK        -0.4233 
     23 C         -54.6659  -28.4794   13.1513 C.2       13 UNK         0.4989 
     24 O         -54.1546  -27.8751   12.2063 O.2       13 UNK        -0.4996 
     25 CA        -54.1030  -28.2743   14.5680 C.3       12 UNK         0.0216 
     26 CB        -52.8277  -29.1064   14.7802 C.3       12 UNK        -0.1964 
     27 N         -53.8096  -26.8591   14.8048 N.am      12 UNK        -0.4276 
     28 C         -54.7461  -25.9054   14.8985 C.2       12 UNK         0.5020 
     29 O         -55.9580  -26.1392   14.9060 O.2       12 UNK        -0.5489 
     30 CA        -54.2375  -24.4545   15.0012 C.3       11 UNK         0.0294 
     31 CB        -55.3731  -23.4107   14.9375 C.3       11 UNK        -0.2019 
     32 N         -53.3920  -24.2232   16.1782 N.am      11 UNK        -0.4493 
     33 C         -53.7250  -24.4243   17.4635 C.2       11 UNK         0.4932 
     34 O         -54.8259  -24.8352   17.8353 O.2       11 UNK        -0.5029 
     35 CA        -52.6483  -24.0857   18.5149 C.3       10 UNK         0.0280 
     36 CB        -52.9971  -24.6136   19.9232 C.3       10 UNK        -0.1976 
     37 N         -51.2968  -24.5100   18.1355 N.am      10 UNK        -0.4242 
     38 C         -50.8727  -25.7435   17.8254 C.2       10 UNK         0.5072 
     39 O         -51.6082  -26.7315   17.7869 O.2       10 UNK        -0.5224 
     40 CA        -49.3642  -25.8927   17.5250 C.3       9 UNK         0.0343 
     41 CB        -48.9979  -27.3165   17.0654 C.3       9 UNK        -0.2003 
     42 N         -48.8752  -24.9307   16.5304 N.am      9 UNK        -0.4272 
     43 C         -48.6790  -23.6192   16.7298 C.2       9 UNK         0.4988 
     44 O         -48.8486  -23.0654   17.8170 O.2       9 UNK        -0.5108 
     45 CA        -48.2843  -22.7678   15.5103 C.3       8 UNK         0.0248 
     46 CB        -46.7623  -22.7935   15.3016 C.3       8 UNK        -0.2001 
     47 N         -48.9606  -23.1679   14.2727 N.am      8 UNK        -0.4140 
     48 C         -50.2897  -23.1693   14.0838 C.2       8 UNK         0.5028 
     49 O         -51.1120  -22.8161   14.9311 O.2       8 UNK        -0.5428 
     50 CA        -50.7857  -23.7173   12.7358 C.3       7 UNK         0.0264 
     51 CB        -50.5834  -22.6997   11.6013 C.3       7 UNK        -0.1988 
     52 N         -50.1389  -24.9877   12.4048 N.am      7 UNK        -0.4454 
     53 C         -50.3242  -26.1248   13.0940 C.2       7 UNK         0.5027 
     54 O         -51.1321  -26.2383   14.0171 O.2       7 UNK        -0.5083 
     55 CA        -49.4296  -27.3213   12.7184 C.3       6 UNK         0.0844 
     56 C56       -50.0855  -28.1690   11.6042 C.3       14 UNK        -0.0967 
     57 S57       -49.0891  -29.6409   11.1894 S.3       14 UNK        -0.2604 
     58 C58       -50.3757  -30.8777   10.8461 C.3       14 UNK         0.0134 
     59 N         -48.0770  -26.8804   12.3639 N.am      6 UNK        -0.4116 
     60 C         -47.1748  -26.4186   13.2417 C.2       5 UNK         0.5034 
     61 O         -47.3835  -26.3297   14.4496 O.2       5 UNK        -0.5045 
     62 CA        -45.8257  -25.9320   12.6819 C.3       5 UNK         0.0224 
     63 CB        -44.8260  -27.0964   12.6057 C.3       5 UNK        -0.1978 
     64 N         -45.9393  -25.3012   11.3654 N.am      5 UNK        -0.4737 
     65 C         -46.6724  -24.2114   11.0983 C.2       4 UNK         0.5027 
     66 O         -47.2541  -23.5574   11.9635 O.2       4 UNK        -0.5211 
     67 CA        -46.8360  -23.8224    9.6168 C.3       4 UNK         0.0297 
     68 CB        -45.8528  -22.7020    9.2462 C.3       4 UNK        -0.1993 
     69 N         -46.6740  -24.9425    8.6794 N.am      4 UNK        -0.4486 
     70 C         -47.4034  -26.0662    8.6692 C.2       3 UNK         0.4961 
     71 O         -48.3280  -26.2790    9.4549 O.2       3 UNK        -0.5105 
     72 CA        -47.0047  -27.1309    7.6288 C.3       3 UNK         0.0299 
     73 CB        -47.6006  -28.5124    7.9537 C.3       3 UNK        -0.1972 
     74 N         -47.3967  -26.7548    6.2705 N.am      3 UNK        -0.4305 
     75 C         -46.8316  -25.7931    5.5256 C.2       2 UNK         0.5006 
     76 O         -45.8809  -25.1103    5.9121 O.2       2 UNK        -0.5106 
     77 CA        -47.3900  -25.5560    4.1073 C.3       2 UNK         0.0296 
     78 CB        -46.3307  -25.8952    3.0447 C.3       2 UNK        -0.2002 
     79 N         -48.6100  -26.3128    3.8112 N.am      2 UNK        -0.4032 
     80 C         -49.8349  -26.0179    4.2701 C.2       1 UNK         0.5000 
     81 O         -50.0813  -25.0432    4.9810 O.2       1 UNK        -0.5238 
     82 H82       -51.9944  -25.3428    1.6979 H         1 UNK         0.0889 
     83 H83       -51.2252  -25.3835    0.1208 H         1 UNK         0.0889 
     84 H84       -50.2635  -24.9891    1.5394 H         1 UNK         0.0889 
     85 H85       -50.5390  -28.6295    2.6558 H         1 UNK         0.3028 
     86 H86       -51.8724  -26.3526    3.7590 H         1 UNK         0.0864 
     87 H87       -52.2207  -28.4943    4.7607 H         1 UNK         0.0720 
     88 H88       -51.4436  -27.4864    5.9444 H         1 UNK         0.0720 
     89 H89       -51.7718  -30.8922    5.1179 H         1 UNK         0.0814 
     90 H90       -50.3243  -31.5716    5.8126 H         1 UNK         0.0814 
     91 H91       -49.7352  -31.1769    8.2074 H         1 UNK         0.1469 
     92 H92       -52.8377  -29.7274   10.7804 H         1 UNK         0.1381 
     93 H93       -53.3899  -29.6763    6.5323 H         1 UNK         0.1206 
     94 H94       -54.6337  -28.3169    9.6847 H         1 UNK         0.0813 
     95 H95       -54.9017  -28.4416    7.9730 H         1 UNK         0.0813 
     96 H96       -54.7439  -30.7560   11.1354 H         1 UNK         0.0638 
     97 H97       -56.2336  -31.6238   11.0894 H         1 UNK         0.0638 
     98 H98       -56.4513  -28.6119   11.2527 H         1 UNK         0.0568 
     99 H99       -57.9815  -28.8130   13.8635 H         1 UNK         0.3450 
    100 H100      -59.5023  -29.4990   13.3587 H         1 UNK         0.3450 
    101 H101      -56.0472  -29.7972   13.8553 H         1 UNK         0.2987 
    102 H102      -54.8480  -28.5906   15.3011 H         1 UNK         0.0766 
    103 H103      -52.4244  -28.9625   15.7832 H         1 UNK         0.0798 
    104 H104      -52.0473  -28.8399   14.0682 H         1 UNK         0.0798 
    105 H105      -53.0300  -30.1713   14.6592 H         1 UNK         0.0798 
    106 H106      -52.8317  -26.5832   14.7341 H         1 UNK         0.3198 
    107 H107      -53.6056  -24.2951   14.1296 H         1 UNK         0.0843 
    108 H108      -54.9779  -22.3949   14.9436 H         1 UNK         0.0831 
    109 H109      -56.0629  -23.5081   15.7763 H         1 UNK         0.0831 
    110 H110      -55.9565  -23.5260   14.0232 H         1 UNK         0.0831 
    111 H111      -52.4638  -23.8613   15.9723 H         1 UNK         0.3133 
    112 H112      -52.6167  -22.9968   18.5714 H         1 UNK         0.0566 
    113 H113      -52.2379  -24.3315   20.6526 H         1 UNK         0.0814 
    114 H114      -53.9461  -24.2048   20.2722 H         1 UNK         0.0814 
    115 H115      -53.0865  -25.7005   19.9350 H         1 UNK         0.0814 
    116 H116      -50.5902  -23.7784   18.1204 H         1 UNK         0.3091 
    117 H117      -48.8381  -25.7057   18.4633 H         1 UNK         0.0702 
    118 H118      -47.9230  -27.4221   16.9183 H         1 UNK         0.0785 
    119 H119      -49.4924  -27.5726   16.1275 H         1 UNK         0.0785 
    120 H120      -49.2951  -28.0593   17.8067 H         1 UNK         0.0785 
    121 H121      -48.6532  -25.3144   15.6174 H         1 UNK         0.2998 
    122 H122      -48.5808  -21.7380   15.7195 H         1 UNK         0.0697 
    123 H123      -46.4639  -22.1612   14.4650 H         1 UNK         0.0825 
    124 H124      -46.2415  -22.4279   16.1876 H         1 UNK         0.0825 
    125 H125      -46.4001  -23.8024   15.1051 H         1 UNK         0.0825 
    126 H126      -48.3632  -23.4365   13.4935 H         1 UNK         0.3029 
    127 H127      -51.8561  -23.9033   12.8188 H         1 UNK         0.0897 
    128 H128      -50.9630  -23.0819   10.6536 H         1 UNK         0.0792 
    129 H129      -51.1199  -21.7742   11.8143 H         1 UNK         0.0792 
    130 H130      -49.5352  -22.4383   11.4609 H         1 UNK         0.0792 
    131 H131      -49.4446  -24.9745   11.6705 H         1 UNK         0.3086 
    132 H132      -49.3493  -27.9507   13.6075 H         1 UNK         0.0583 
    133 H133      -51.0804  -28.4872   11.9185 H         1 UNK         0.1020 
    134 H134      -50.2320  -27.5846   10.6940 H         1 UNK         0.1020 
    135 H135      -49.8982  -31.8450   10.6832 H         1 UNK         0.0694 
    136 H136      -51.0092  -30.9965   11.7268 H         1 UNK         0.0694 
    137 H137      -47.8595  -26.8777   11.3736 H         1 UNK         0.2989 
    138 H138      -45.4323  -25.1854   13.3745 H         1 UNK         0.1055 
    139 H139      -44.7055  -27.5701   13.5811 H         1 UNK         0.0806 
    140 H140      -43.8400  -26.7542   12.2905 H         1 UNK         0.0806 
    141 H141      -45.1546  -27.8678   11.9077 H         1 UNK         0.0806 
    142 H142      -45.4887  -25.7683   10.5921 H         1 UNK         0.3061 
    143 H143      -47.8520  -23.4414    9.4955 H         1 UNK         0.0734 
    144 H144      -46.0190  -22.3477    8.2286 H         1 UNK         0.0832 
    145 H145      -45.9711  -21.8439    9.9098 H         1 UNK         0.0832 
    146 H146      -44.8162  -23.0327    9.3225 H         1 UNK         0.0832 
    147 H147      -45.9929  -24.8291    7.9349 H         1 UNK         0.3156 
    148 H148      -45.9173  -27.2282    7.6558 H         1 UNK         0.0589 
    149 H149      -48.6914  -28.4906    7.9736 H         1 UNK         0.0808 
    150 H150      -47.2940  -29.2631    7.2252 H         1 UNK         0.0808 
    151 H151      -47.2650  -28.8574    8.9319 H         1 UNK         0.0808 
    152 H152      -48.1807  -27.2576    5.8805 H         1 UNK         0.3098 
    153 H153      -47.6197  -24.4912    4.0293 H         1 UNK         0.0720 
    154 H154      -46.0530  -26.9496    3.0734 H         1 UNK         0.0791 
    155 H155      -45.4200  -25.3145    3.1990 H         1 UNK         0.0791 
    156 H156      -46.6887  -25.6683    2.0402 H         1 UNK         0.0791 
    157 H157      -48.5045  -27.1401    3.2405 H         1 UNK         0.3028 
@<TRIPOS>BOND
     1    1    2 1    
     2    1   82 1    
     3    1   83 1    
     4    1   84 1    
     5    2    3 2    
     6    2    4 am   BACKBONE|DICT|INTERRES
     7    4    5 1    
     8    4   85 1    
     9    5    6 1    
    10    5   80 1    
    11    5   86 1    
    12    6    7 1    
    13    6   87 1    
    14    6   88 1    
    15    7    8 1    
    16    8    9 1    
    17    8   89 1    
    18    8   90 1    
    19    9   10 ar   
    20    9   14 ar   
    21   10   11 ar   
    22   10   91 1    
    23   11   12 ar   
    24   11   58 1    
    25   12   13 ar   
    26   12   92 1    
    27   13   14 ar   
    28   13   15 1    
    29   14   93 1    
    30   15   16 1    
    31   15   94 1    
    32   15   95 1    
    33   16   17 1    
    34   17   18 1    
    35   17   96 1    
    36   17   97 1    
    37   18   19 1    
    38   18   22 1    
    39   18   98 1    
    40   19   20 am   BACKBONE|DICT|INTERRES
    41   19   21 2    
    42   20   99 1    
    43   20  100 1    
    44   22   23 am   BACKBONE|DICT|INTERRES
    45   22  101 1    
    46   23   24 2    
    47   23   25 1    
    48   25   26 1    
    49   25   27 1    
    50   25  102 1    
    51   26  103 1    
    52   26  104 1    
    53   26  105 1    
    54   27   28 am   BACKBONE|DICT|INTERRES
    55   27  106 1    
    56   28   29 2    
    57   28   30 1    
    58   30   31 1    
    59   30   32 1    
    60   30  107 1    
    61   31  108 1    
    62   31  109 1    
    63   31  110 1    
    64   32   33 am   BACKBONE|DICT|INTERRES
    65   32  111 1    
    66   33   34 2    
    67   33   35 1    
    68   35   36 1    
    69   35   37 1    
    70   35  112 1    
    71   36  113 1    
    72   36  114 1    
    73   36  115 1    
    74   37   38 am   BACKBONE|DICT|INTERRES
    75   37  116 1    
    76   38   39 2    
    77   38   40 1    
    78   40   41 1    
    79   40   42 1    
    80   40  117 1    
    81   41  118 1    
    82   41  119 1    
    83   41  120 1    
    84   42   43 am   BACKBONE|DICT|INTERRES
    85   42  121 1    
    86   43   44 2    
    87   43   45 1    
    88   45   46 1    
    89   45   47 1    
    90   45  122 1    
    91   46  123 1    
    92   46  124 1    
    93   46  125 1    
    94   47   48 am   BACKBONE|DICT|INTERRES
    95   47  126 1    
    96   48   49 2    
    97   48   50 1    
    98   50   51 1    
    99   50   52 1    
   100   50  127 1    
   101   51  128 1    
   102   51  129 1    
   103   51  130 1    
   104   52   53 am   BACKBONE|DICT|INTERRES
   105   52  131 1    
   106   53   54 2    
   107   53   55 1    
   108   55   56 1    
   109   55   59 1    
   110   55  132 1    
   111   56   57 1    
   112   56  133 1    
   113   56  134 1    
   114   57   58 1    
   115   58  135 1    
   116   58  136 1    
   117   59   60 am   BACKBONE|DICT|INTERRES
   118   59  137 1    
   119   60   61 2    
   120   60   62 1    
   121   62   63 1    
   122   62   64 1    
   123   62  138 1    
   124   63  139 1    
   125   63  140 1    
   126   63  141 1    
   127   64   65 am   BACKBONE|DICT|INTERRES
   128   64  142 1    
   129   65   66 2    
   130   65   67 1    
   131   67   68 1    
   132   67   69 1    
   133   67  143 1    
   134   68  144 1    
   135   68  145 1    
   136   68  146 1    
   137   69   70 am   BACKBONE|DICT|INTERRES
   138   69  147 1    
   139   70   71 2    
   140   70   72 1    
   141   72   73 1    
   142   72   74 1    
   143   72  148 1    
   144   73  149 1    
   145   73  150 1    
   146   73  151 1    
   147   74   75 am   BACKBONE|DICT|INTERRES
   148   74  152 1    
   149   75   76 2    
   150   75   77 1    
   151   77   78 1    
   152   77   79 1    
   153   77  153 1    
   154   78  154 1    
   155   78  155 1    
   156   78  156 1    
   157   79   80 am   BACKBONE|DICT|INTERRES
   158   79  157 1    
   159   80   81 2    
@<TRIPOS>SUBSTRUCTURE
     1 UNK         1 GROUP             0       ****    0 ROOT    
