@<TRIPOS>MOLECULE
3R207
157   159    1
SMALL
USER_CHARGES


@<TRIPOS>ATOM
      1 CA        -50.7148  -33.8224    9.4961 C.3       0 UNK        -0.1975 
      2 C         -50.3449  -32.9764    8.2866 C.2       0 UNK         0.4852 
      3 O         -49.8891  -33.5191    7.2789 O.2       0 UNK        -0.5216 
      4 N         -50.5331  -31.6570    8.3782 N.am      1 UNK        -0.4461 
      5 CA        -50.2125  -30.6815    7.3377 C.3       1 UNK         0.0864 
      6 C6        -51.4005  -30.5256    6.3444 C.3       14 UNK        -0.0898 
      7 S7        -51.2855  -29.1554    5.1344 S.3       14 UNK        -0.2598 
      8 C8        -52.9276  -28.3718    5.2771 C.3       14 UNK         0.0286 
      9 C9        -52.9930  -27.2997    6.3606 C.ar      14 UNK        -0.0844 
     10 C10       -53.1404  -25.9500    6.0137 C.ar      14 UNK        -0.0881 
     11 C11       -53.2767  -24.9680    7.0030 C.ar      14 UNK        -0.0643 
     12 C12       -53.2434  -25.3453    8.3477 C.ar      14 UNK        -0.0930 
     13 C13       -53.0628  -26.6823    8.7054 C.ar      14 UNK        -0.0827 
     14 C14       -52.9561  -27.6548    7.7122 C.ar      14 UNK        -0.1249 
     15 C15       -52.9452  -27.0642   10.1675 C.3       14 UNK         0.0141 
     16 S16       -54.5588  -27.3840   10.9336 S.3       14 UNK        -0.2313 
     17 C17       -54.7125  -29.1974   10.7837 C.3       14 UNK        -0.0915 
     18 CA        -54.1001  -30.0164   11.9632 C.3       13 UNK         0.0968 
     19 C         -52.6173  -30.4263   11.7504 C.2       13 UNK         0.5732 
     20 N         -51.7442  -30.3126   12.7430 N.am      13 UNK        -0.7310 
     21 O         -52.2595  -30.9058   10.6779 O.2       13 UNK        -0.5035 
     22 N         -54.3821  -29.4302   13.2860 N.am      13 UNK        -0.4233 
     23 C         -55.4605  -29.7114   14.0271 C.2       13 UNK         0.4989 
     24 O         -56.3246  -30.5234   13.6894 O.2       13 UNK        -0.4996 
     25 CA        -55.6211  -28.9441   15.3562 C.3       12 UNK         0.0216 
     26 CB        -56.5995  -29.6318   16.3332 C.3       12 UNK        -0.1964 
     27 N         -54.3554  -28.6282   16.0297 N.am      12 UNK        -0.4276 
     28 C         -53.4323  -29.4873   16.4937 C.2       12 UNK         0.5020 
     29 O         -53.5300  -30.7108   16.3935 O.2       12 UNK        -0.5489 
     30 CA        -52.1837  -28.8923   17.1781 C.3       11 UNK         0.0294 
     31 CB        -50.8907  -29.5390   16.6477 C.3       11 UNK        -0.2019 
     32 N         -52.0945  -27.4439   16.9835 N.am      11 UNK        -0.4493 
     33 C         -52.3971  -26.5109   17.8977 C.2       11 UNK         0.4932 
     34 O         -52.7040  -26.7675   19.0618 O.2       11 UNK        -0.5029 
     35 CA        -52.3858  -25.0392   17.4331 C.3       10 UNK         0.0280 
     36 CB        -51.0628  -24.3653   17.8282 C.3       10 UNK        -0.1976 
     37 N         -52.6017  -24.8768   15.9903 N.am      10 UNK        -0.4242 
     38 C         -53.7256  -25.2321   15.3452 C.2       10 UNK         0.5072 
     39 O         -54.7336  -25.6431   15.9196 O.2       10 UNK        -0.5224 
     40 CA        -53.7049  -25.2270   13.8054 C.3       9 UNK         0.0343 
     41 CB        -54.3176  -23.9313   13.2548 C.3       9 UNK        -0.2003 
     42 N         -52.3673  -25.4111   13.2378 N.am      9 UNK        -0.4272 
     43 C         -51.5687  -26.4673   13.4614 C.2       9 UNK         0.4988 
     44 O         -51.9565  -27.4864   14.0361 O.2       9 UNK        -0.5108 
     45 CA        -50.0845  -26.3564   13.0433 C.3       8 UNK         0.0248 
     46 CB        -49.7737  -27.2777   11.8550 C.3       8 UNK        -0.2001 
     47 N         -49.6331  -25.0010   12.7092 N.am      8 UNK        -0.4140 
     48 C         -49.7069  -23.9157   13.4945 C.2       8 UNK         0.5028 
     49 O         -50.0626  -23.9490   14.6731 O.2       8 UNK        -0.5428 
     50 CA        -49.4220  -22.5549   12.8286 C.3       7 UNK         0.0264 
     51 CB        -48.0052  -22.0826   13.1865 C.3       7 UNK        -0.1988 
     52 N         -49.5855  -22.5430   11.3651 N.am      7 UNK        -0.4454 
     53 C         -50.7005  -22.8795   10.6911 C.2       7 UNK         0.5027 
     54 O         -51.7443  -23.2076   11.2574 O.2       7 UNK        -0.5083 
     55 CA        -50.6523  -22.9229    9.1432 C.3       6 UNK         0.0844 
     56 C56       -51.8407  -22.1605    8.5048 C.3       14 UNK        -0.0967 
     57 S57       -51.9846  -22.5058    6.7140 S.3       14 UNK        -0.2604 
     58 C58       -53.5049  -23.5095    6.6223 C.3       14 UNK         0.0134 
     59 N         -49.3730  -22.4941    8.5664 N.am      6 UNK        -0.4116 
     60 C         -48.2293  -23.1848    8.6075 C.2       5 UNK         0.5034 
     61 O         -48.1095  -24.2601    9.2029 O.2       5 UNK        -0.5045 
     62 CA        -47.0080  -22.5778    7.8846 C.3       5 UNK         0.0224 
     63 CB        -47.1642  -21.0901    7.4916 C.3       5 UNK        -0.1978 
     64 N         -45.7880  -22.7966    8.6672 N.am      5 UNK        -0.4737 
     65 C         -45.5332  -22.3465    9.9034 C.2       4 UNK         0.5027 
     66 O         -46.2224  -21.5105   10.4890 O.2       4 UNK        -0.5211 
     67 CA        -44.3676  -23.0412   10.6336 C.3       4 UNK         0.0297 
     68 CB        -43.9643  -22.3186   11.9323 C.3       4 UNK        -0.1993 
     69 N         -44.7531  -24.4203   10.9483 N.am      4 UNK        -0.4486 
     70 C         -44.7964  -25.4222   10.0595 C.2       3 UNK         0.4961 
     71 O         -44.3306  -25.3369    8.9211 O.2       3 UNK        -0.5105 
     72 CA        -45.5561  -26.6945   10.4559 C.3       3 UNK         0.0299 
     73 CB        -45.9412  -26.7690   11.9485 C.3       3 UNK        -0.1972 
     74 N         -46.7627  -26.7192    9.6310 N.am      3 UNK        -0.4305 
     75 C         -47.1207  -27.7022    8.7999 C.2       2 UNK         0.5006 
     76 O         -46.5366  -28.7860    8.7132 O.2       2 UNK        -0.5106 
     77 CA        -48.3015  -27.3831    7.8648 C.3       2 UNK         0.0296 
     78 CB        -47.8282  -26.5402    6.6677 C.3       2 UNK        -0.2002 
     79 N         -48.9300  -28.5969    7.3486 N.am      2 UNK        -0.4032 
     80 C         -49.7571  -29.3875    8.0417 C.2       1 UNK         0.5000 
     81 O         -50.1388  -29.1403    9.1878 O.2       1 UNK        -0.5238 
     82 H82       -50.9296  -33.2090   10.3707 H         1 UNK         0.0889 
     83 H83       -49.8955  -34.4942    9.7507 H         1 UNK         0.0889 
     84 H84       -51.5959  -34.4247    9.2771 H         1 UNK         0.0889 
     85 H85       -50.9076  -31.2448    9.2321 H         1 UNK         0.3028 
     86 H86       -49.3476  -31.0443    6.7777 H         1 UNK         0.0864 
     87 H87       -51.4957  -31.4473    5.7686 H         1 UNK         0.0720 
     88 H88       -52.3371  -30.4494    6.8949 H         1 UNK         0.0720 
     89 H89       -53.6897  -29.1299    5.4629 H         1 UNK         0.0814 
     90 H90       -53.1764  -27.9370    4.3079 H         1 UNK         0.0814 
     91 H91       -53.1758  -25.6642    4.9712 H         1 UNK         0.1469 
     92 H92       -53.3524  -24.6009    9.1232 H         1 UNK         0.1381 
     93 H93       -52.8372  -28.6856    8.0065 H         1 UNK         0.1206 
     94 H94       -52.4683  -26.2416   10.6967 H         1 UNK         0.0813 
     95 H95       -52.2898  -27.9266   10.2879 H         1 UNK         0.0813 
     96 H96       -55.7819  -29.4076   10.7397 H         1 UNK         0.0638 
     97 H97       -54.3219  -29.5193    9.8170 H         1 UNK         0.0638 
     98 H98       -54.5929  -30.9898   11.9332 H         1 UNK         0.0568 
     99 H99       -52.0095  -29.9138   13.6282 H         1 UNK         0.3450 
    100 H100      -50.7945  -30.6063   12.5864 H         1 UNK         0.3450 
    101 H101      -53.7115  -28.7463   13.6152 H         1 UNK         0.2987 
    102 H102      -56.0596  -27.9827   15.0844 H         1 UNK         0.0766 
    103 H103      -56.2598  -30.6306   16.6091 H         1 UNK         0.0798 
    104 H104      -56.7180  -29.0525   17.2489 H         1 UNK         0.0798 
    105 H105      -57.5903  -29.7365   15.8893 H         1 UNK         0.0798 
    106 H106      -54.1922  -27.6373   16.1712 H         1 UNK         0.3198 
    107 H107      -52.2661  -29.1254   18.2417 H         1 UNK         0.0843 
    108 H108      -50.8924  -30.6171   16.8133 H         1 UNK         0.0831 
    109 H109      -50.0127  -29.1386   17.1546 H         1 UNK         0.0831 
    110 H110      -50.7625  -29.3735   15.5779 H         1 UNK         0.0831 
    111 H111      -51.8805  -27.1520   16.0356 H         1 UNK         0.3133 
    112 H112      -53.1989  -24.5252   17.9498 H         1 UNK         0.0566 
    113 H113      -51.0595  -23.3084   17.5607 H         1 UNK         0.0814 
    114 H114      -50.8976  -24.4280   18.9047 H         1 UNK         0.0814 
    115 H115      -50.2091  -24.8360   17.3386 H         1 UNK         0.0814 
    116 H116      -51.8046  -24.5492   15.4495 H         1 UNK         0.3091 
    117 H117      -54.3229  -26.0643   13.4797 H         1 UNK         0.0702 
    118 H118      -54.3997  -23.9663   12.1680 H         1 UNK         0.0785 
    119 H119      -53.7179  -23.0586   13.5168 H         1 UNK         0.0785 
    120 H120      -55.3216  -23.7728   13.6507 H         1 UNK         0.0785 
    121 H121      -51.9987  -24.6258   12.7110 H         1 UNK         0.2998 
    122 H122      -49.4987  -26.6949   13.9000 H         1 UNK         0.0697 
    123 H123      -50.1694  -26.8879   10.9177 H         1 UNK         0.0825 
    124 H124      -50.1932  -28.2723   11.9965 H         1 UNK         0.0825 
    125 H125      -48.7021  -27.4089   11.7243 H         1 UNK         0.0825 
    126 H126      -49.3279  -24.8560   11.7576 H         1 UNK         0.3029 
    127 H127      -50.1383  -21.8415   13.2412 H         1 UNK         0.0897 
    128 H128      -47.8075  -21.0835   12.7975 H         1 UNK         0.0792 
    129 H129      -47.8671  -22.0408   14.2680 H         1 UNK         0.0792 
    130 H130      -47.2460  -22.7551   12.7862 H         1 UNK         0.0792 
    131 H131      -48.7640  -22.2968   10.8291 H         1 UNK         0.3086 
    132 H132      -50.7718  -23.9787    8.8908 H         1 UNK         0.0583 
    133 H133      -52.7844  -22.4056    8.9939 H         1 UNK         0.1020 
    134 H134      -51.7176  -21.0846    8.6409 H         1 UNK         0.1020 
    135 H135      -54.2782  -23.0727    7.2559 H         1 UNK         0.0694 
    136 H136      -53.8901  -23.4514    5.6031 H         1 UNK         0.0694 
    137 H137      -49.3868  -21.6185    8.0646 H         1 UNK         0.2989 
    138 H138      -46.8888  -23.1514    6.9644 H         1 UNK         0.1055 
    139 H139      -46.2513  -20.7112    7.0319 H         1 UNK         0.0806 
    140 H140      -47.3855  -20.4550    8.3503 H         1 UNK         0.0806 
    141 H141      -47.9626  -20.9533    6.7611 H         1 UNK         0.0806 
    142 H142      -45.1941  -23.5532    8.3411 H         1 UNK         0.3061 
    143 H143      -43.5026  -23.0456    9.9667 H         1 UNK         0.0734 
    144 H144      -43.6773  -21.2863   11.7280 H         1 UNK         0.0832 
    145 H145      -44.7795  -22.2913   12.6560 H         1 UNK         0.0832 
    146 H146      -43.1111  -22.8035   12.4067 H         1 UNK         0.0832 
    147 H147      -45.1809  -24.5698   11.8502 H         1 UNK         0.3156 
    148 H148      -44.9048  -27.5391   10.2224 H         1 UNK         0.0589 
    149 H149      -46.6538  -25.9941   12.2340 H         1 UNK         0.0808 
    150 H150      -46.3939  -27.7330   12.1802 H         1 UNK         0.0808 
    151 H151      -45.0634  -26.6757   12.5896 H         1 UNK         0.0808 
    152 H152      -47.2613  -25.8324    9.5546 H         1 UNK         0.3098 
    153 H153      -49.0469  -26.8137    8.4253 H         1 UNK         0.0720 
    154 H154      -48.6703  -26.2230    6.0518 H         1 UNK         0.0791 
    155 H155      -47.1354  -27.0942    6.0332 H         1 UNK         0.0791 
    156 H156      -47.3096  -25.6398    6.9955 H         1 UNK         0.0791 
    157 H157      -48.6604  -28.8793    6.4180 H         1 UNK         0.3028 
@<TRIPOS>BOND
     1    1    2 1    
     2    1   82 1    
     3    1   83 1    
     4    1   84 1    
     5    2    3 2    
     6    2    4 am   BACKBONE|DICT|INTERRES
     7    4    5 1    
     8    4   85 1    
     9    5    6 1    
    10    5   80 1    
    11    5   86 1    
    12    6    7 1    
    13    6   87 1    
    14    6   88 1    
    15    7    8 1    
    16    8    9 1    
    17    8   89 1    
    18    8   90 1    
    19    9   10 ar   
    20    9   14 ar   
    21   10   11 ar   
    22   10   91 1    
    23   11   12 ar   
    24   11   58 1    
    25   12   13 ar   
    26   12   92 1    
    27   13   14 ar   
    28   13   15 1    
    29   14   93 1    
    30   15   16 1    
    31   15   94 1    
    32   15   95 1    
    33   16   17 1    
    34   17   18 1    
    35   17   96 1    
    36   17   97 1    
    37   18   19 1    
    38   18   22 1    
    39   18   98 1    
    40   19   20 am   BACKBONE|DICT|INTERRES
    41   19   21 2    
    42   20   99 1    
    43   20  100 1    
    44   22   23 am   BACKBONE|DICT|INTERRES
    45   22  101 1    
    46   23   24 2    
    47   23   25 1    
    48   25   26 1    
    49   25   27 1    
    50   25  102 1    
    51   26  103 1    
    52   26  104 1    
    53   26  105 1    
    54   27   28 am   BACKBONE|DICT|INTERRES
    55   27  106 1    
    56   28   29 2    
    57   28   30 1    
    58   30   31 1    
    59   30   32 1    
    60   30  107 1    
    61   31  108 1    
    62   31  109 1    
    63   31  110 1    
    64   32   33 am   BACKBONE|DICT|INTERRES
    65   32  111 1    
    66   33   34 2    
    67   33   35 1    
    68   35   36 1    
    69   35   37 1    
    70   35  112 1    
    71   36  113 1    
    72   36  114 1    
    73   36  115 1    
    74   37   38 am   BACKBONE|DICT|INTERRES
    75   37  116 1    
    76   38   39 2    
    77   38   40 1    
    78   40   41 1    
    79   40   42 1    
    80   40  117 1    
    81   41  118 1    
    82   41  119 1    
    83   41  120 1    
    84   42   43 am   BACKBONE|DICT|INTERRES
    85   42  121 1    
    86   43   44 2    
    87   43   45 1    
    88   45   46 1    
    89   45   47 1    
    90   45  122 1    
    91   46  123 1    
    92   46  124 1    
    93   46  125 1    
    94   47   48 am   BACKBONE|DICT|INTERRES
    95   47  126 1    
    96   48   49 2    
    97   48   50 1    
    98   50   51 1    
    99   50   52 1    
   100   50  127 1    
   101   51  128 1    
   102   51  129 1    
   103   51  130 1    
   104   52   53 am   BACKBONE|DICT|INTERRES
   105   52  131 1    
   106   53   54 2    
   107   53   55 1    
   108   55   56 1    
   109   55   59 1    
   110   55  132 1    
   111   56   57 1    
   112   56  133 1    
   113   56  134 1    
   114   57   58 1    
   115   58  135 1    
   116   58  136 1    
   117   59   60 am   BACKBONE|DICT|INTERRES
   118   59  137 1    
   119   60   61 2    
   120   60   62 1    
   121   62   63 1    
   122   62   64 1    
   123   62  138 1    
   124   63  139 1    
   125   63  140 1    
   126   63  141 1    
   127   64   65 am   BACKBONE|DICT|INTERRES
   128   64  142 1    
   129   65   66 2    
   130   65   67 1    
   131   67   68 1    
   132   67   69 1    
   133   67  143 1    
   134   68  144 1    
   135   68  145 1    
   136   68  146 1    
   137   69   70 am   BACKBONE|DICT|INTERRES
   138   69  147 1    
   139   70   71 2    
   140   70   72 1    
   141   72   73 1    
   142   72   74 1    
   143   72  148 1    
   144   73  149 1    
   145   73  150 1    
   146   73  151 1    
   147   74   75 am   BACKBONE|DICT|INTERRES
   148   74  152 1    
   149   75   76 2    
   150   75   77 1    
   151   77   78 1    
   152   77   79 1    
   153   77  153 1    
   154   78  154 1    
   155   78  155 1    
   156   78  156 1    
   157   79   80 am   BACKBONE|DICT|INTERRES
   158   79  157 1    
   159   80   81 2    
@<TRIPOS>SUBSTRUCTURE
     1 UNK         1 GROUP             0       ****    0 ROOT    
