@<TRIPOS>MOLECULE
3R207
157   159    1
SMALL
USER_CHARGES


@<TRIPOS>ATOM
      1 CA        -52.3185  -28.5250    5.9700 C.3       0 UNK        -0.1975 
      2 C         -52.2163  -27.0251    6.1934 C.2       0 UNK         0.4852 
      3 O         -52.2709  -26.2610    5.2296 O.2       0 UNK        -0.5216 
      4 N         -52.0456  -26.5963    7.4524 N.am      1 UNK        -0.4461 
      5 CA        -51.9112  -25.1841    7.8466 C.3       1 UNK         0.0864 
      6 C6        -52.2026  -24.9684    9.3533 C.3       14 UNK        -0.0898 
      7 S7        -53.9293  -25.3780    9.7850 S.3       14 UNK        -0.2598 
      8 C8        -53.7341  -26.6826   11.0431 C.3       14 UNK         0.0286 
      9 C9        -53.2002  -27.9778   10.4496 C.ar      14 UNK        -0.0844 
     10 C10       -51.9133  -28.4152   10.7643 C.ar      14 UNK        -0.0881 
     11 C11       -51.4005  -29.5894   10.2077 C.ar      14 UNK        -0.0643 
     12 C12       -52.2107  -30.3619    9.3707 C.ar      14 UNK        -0.0930 
     13 C13       -53.5174  -29.9564    9.0774 C.ar      14 UNK        -0.0827 
     14 C14       -53.9975  -28.7519    9.6035 C.ar      14 UNK        -0.1249 
     15 C15       -54.4001  -30.8066    8.1740 C.3       14 UNK         0.0141 
     16 S16       -56.0027  -31.2094    8.9396 S.3       14 UNK        -0.2313 
     17 C17       -55.5642  -32.5009   10.1589 C.3       14 UNK        -0.0915 
     18 CA        -55.4953  -32.0383   11.6480 C.3       13 UNK         0.0968 
     19 C         -54.0489  -31.7249   12.1398 C.2       13 UNK         0.5732 
     20 N         -53.7800  -30.5929   12.7812 N.am      13 UNK        -0.7310 
     21 O         -53.1546  -32.5503   11.9691 O.2       13 UNK        -0.5035 
     22 N         -56.4906  -31.0013   11.9590 N.am      13 UNK        -0.4233 
     23 C         -57.0066  -30.7692   13.1679 C.2       13 UNK         0.4989 
     24 O         -56.8350  -31.4983   14.1481 O.2       13 UNK        -0.4996 
     25 CA        -57.8610  -29.4981   13.3033 C.3       12 UNK         0.0216 
     26 CB        -59.3583  -29.8379   13.2261 C.3       12 UNK        -0.1964 
     27 N         -57.5798  -28.8103   14.5647 N.am      12 UNK        -0.4276 
     28 C         -56.4034  -28.2515   14.8779 C.2       12 UNK         0.5020 
     29 O         -55.4482  -28.1717   14.0996 O.2       12 UNK        -0.5489 
     30 CA        -56.2610  -27.7636   16.3277 C.3       11 UNK         0.0294 
     31 CB        -55.8037  -28.9210   17.2315 C.3       11 UNK        -0.2019 
     32 N         -55.2979  -26.6698   16.4436 N.am      11 UNK        -0.4493 
     33 C         -55.5507  -25.3879   16.1473 C.2       11 UNK         0.4932 
     34 O         -56.6439  -24.9813   15.7513 O.2       11 UNK        -0.5029 
     35 CA        -54.4075  -24.3778   16.3617 C.3       10 UNK         0.0280 
     36 CB        -54.6242  -23.5974   17.6691 C.3       10 UNK        -0.1976 
     37 N         -53.0899  -25.0199   16.4022 N.am      10 UNK        -0.4242 
     38 C         -52.3472  -25.2791   15.3195 C.2       10 UNK         0.5072 
     39 O         -52.6489  -24.9313   14.1764 O.2       10 UNK        -0.5224 
     40 CA        -51.0647  -26.0891   15.5526 C.3       9 UNK         0.0343 
     41 CB        -51.1659  -27.4711   14.8837 C.3       9 UNK        -0.2003 
     42 N         -49.9125  -25.3658   15.0181 N.am      9 UNK        -0.4272 
     43 C         -49.2309  -24.4319   15.6994 C.2       9 UNK         0.4988 
     44 O         -49.4870  -24.1235   16.8645 O.2       9 UNK        -0.5108 
     45 CA        -48.0557  -23.7258   14.9938 C.3       8 UNK         0.0248 
     46 CB        -46.7187  -24.3389   15.4408 C.3       8 UNK        -0.2001 
     47 N         -48.1412  -23.7667   13.5331 N.am      8 UNK        -0.4140 
     48 C         -49.0213  -23.0572   12.8105 C.2       8 UNK         0.5028 
     49 O         -49.7665  -22.2057   13.2974 O.2       8 UNK        -0.5428 
     50 CA        -49.1071  -23.3377   11.2957 C.3       7 UNK         0.0264 
     51 CB        -48.4323  -22.2067   10.5062 C.3       7 UNK        -0.1988 
     52 N         -48.5527  -24.6256   10.8589 N.am      7 UNK        -0.4454 
     53 C         -48.9320  -25.8282   11.3101 C.2       7 UNK         0.5027 
     54 O         -49.8092  -25.9846   12.1568 O.2       7 UNK        -0.5083 
     55 CA        -48.1929  -27.0698   10.7709 C.3       6 UNK         0.0844 
     56 C56       -48.8869  -27.6123    9.4965 C.3       14 UNK        -0.0967 
     57 S57       -48.7506  -29.4223    9.3277 S.3       14 UNK        -0.2604 
     58 C58       -49.9804  -30.0299   10.5357 C.3       14 UNK         0.0134 
     59 N         -46.7522  -26.8831   10.5596 N.am      6 UNK        -0.4116 
     60 C         -45.8705  -26.3891   11.4412 C.2       5 UNK         0.5034 
     61 O         -46.1700  -25.9269   12.5424 O.2       5 UNK        -0.5045 
     62 CA        -44.4011  -26.4229   11.0144 C.3       5 UNK         0.0224 
     63 CB        -43.8601  -27.8670   11.0940 C.3       5 UNK        -0.1978 
     64 N         -44.2265  -25.8527    9.6743 N.am      5 UNK        -0.4737 
     65 C         -43.0416  -25.5468    9.1268 C.2       4 UNK         0.5027 
     66 O         -41.9599  -25.7333    9.6849 O.2       4 UNK        -0.5211 
     67 CA        -43.0485  -24.9248    7.7182 C.3       4 UNK         0.0297 
     68 CB        -42.9212  -26.0235    6.6504 C.3       4 UNK        -0.1993 
     69 N         -44.2309  -24.1108    7.4304 N.am      4 UNK        -0.4486 
     70 C         -44.5578  -22.9703    8.0539 C.2       3 UNK         0.4961 
     71 O         -43.8761  -22.4568    8.9413 O.2       3 UNK        -0.5105 
     72 CA        -45.8596  -22.2718    7.6151 C.3       3 UNK         0.0299 
     73 CB        -45.5387  -21.0101    6.7969 C.3       3 UNK        -0.1972 
     74 N         -46.7917  -23.1096    6.8494 N.am      3 UNK        -0.4305 
     75 C         -47.4092  -24.2090    7.3012 C.2       2 UNK         0.5006 
     76 O         -47.2043  -24.7085    8.4095 O.2       2 UNK        -0.5106 
     77 CA        -48.3557  -24.9070    6.3132 C.3       2 UNK         0.0296 
     78 CB        -47.6557  -26.1213    5.6805 C.3       2 UNK        -0.2002 
     79 N         -49.6151  -25.3431    6.9212 N.am      2 UNK        -0.4032 
     80 C         -50.5668  -24.5388    7.4211 C.2       1 UNK         0.5000 
     81 O         -50.4384  -23.3168    7.5130 O.2       1 UNK        -0.5238 
     82 H82       -51.7201  -28.8192    5.1082 H         1 UNK         0.0889 
     83 H83       -53.3532  -28.8044    5.7767 H         1 UNK         0.0889 
     84 H84       -51.9588  -29.0865    6.8307 H         1 UNK         0.0889 
     85 H85       -52.0843  -27.2626    8.2126 H         1 UNK         0.3028 
     86 H86       -52.6737  -24.6292    7.2950 H         1 UNK         0.0864 
     87 H87       -51.5168  -25.5469    9.9704 H         1 UNK         0.0720 
     88 H88       -52.0504  -23.9232    9.6281 H         1 UNK         0.0720 
     89 H89       -54.7021  -26.8776   11.5074 H         1 UNK         0.0814 
     90 H90       -53.0845  -26.3195   11.8415 H         1 UNK         0.0814 
     91 H91       -51.3026  -27.8333   11.4371 H         1 UNK         0.1469 
     92 H92       -51.8234  -31.2822    8.9555 H         1 UNK         0.1381 
     93 H93       -54.9990  -28.4210    9.3649 H         1 UNK         0.1206 
     94 H94       -54.5909  -30.2542    7.2541 H         1 UNK         0.0813 
     95 H95       -53.8971  -31.7289    7.8795 H         1 UNK         0.0813 
     96 H96       -54.6486  -33.0054    9.8454 H         1 UNK         0.0638 
     97 H97       -56.3416  -33.2616   10.0750 H         1 UNK         0.0638 
     98 H98       -55.7714  -32.9145   12.2378 H         1 UNK         0.0568 
     99 H99       -52.8354  -30.4216   13.0805 H         1 UNK         0.3450 
    100 H100      -54.4935  -29.8988   12.9544 H         1 UNK         0.3450 
    101 H101      -56.6829  -30.3608   11.2025 H         1 UNK         0.2987 
    102 H102      -57.6157  -28.8142   12.4876 H         1 UNK         0.0766 
    103 H103      -59.9738  -28.9402   13.2890 H         1 UNK         0.0798 
    104 H104      -59.6620  -30.5117   14.0284 H         1 UNK         0.0798 
    105 H105      -59.5984  -30.3281   12.2816 H         1 UNK         0.0798 
    106 H106      -58.2909  -28.8743   15.2787 H         1 UNK         0.3198 
    107 H107      -57.2338  -27.4101   16.6776 H         1 UNK         0.0843 
    108 H108      -54.8338  -29.3144   16.9233 H         1 UNK         0.0831 
    109 H109      -56.5129  -29.7493   17.1977 H         1 UNK         0.0831 
    110 H110      -55.7249  -28.6068   18.2724 H         1 UNK         0.0831 
    111 H111      -54.3585  -26.9240   16.7061 H         1 UNK         0.3133 
    112 H112      -54.4385  -23.6639   15.5357 H         1 UNK         0.0566 
    113 H113      -53.8525  -22.8406   17.8118 H         1 UNK         0.0814 
    114 H114      -55.5846  -23.0799   17.6597 H         1 UNK         0.0814 
    115 H115      -54.6172  -24.2540   18.5401 H         1 UNK         0.0814 
    116 H116      -52.7498  -25.3066   17.3096 H         1 UNK         0.3091 
    117 H117      -50.9231  -26.2498   16.6237 H         1 UNK         0.0702 
    118 H118      -50.2505  -28.0473   15.0185 H         1 UNK         0.0785 
    119 H119      -51.3559  -27.3889   13.8135 H         1 UNK         0.0785 
    120 H120      -51.9843  -28.0519   15.3110 H         1 UNK         0.0785 
    121 H121      -49.7147  -25.5141   14.0321 H         1 UNK         0.2998 
    122 H122      -48.0678  -22.6792   15.3054 H         1 UNK         0.0697 
    123 H123      -46.6541  -25.3965   15.1819 H         1 UNK         0.0825 
    124 H124      -45.8724  -23.8288   14.9804 H         1 UNK         0.0825 
    125 H125      -46.5957  -24.2607   16.5219 H         1 UNK         0.0825 
    126 H126      -47.5548  -24.4486   13.0625 H         1 UNK         0.3029 
    127 H127      -50.1684  -23.3430   11.0423 H         1 UNK         0.0897 
    128 H128      -48.6073  -22.3144    9.4359 H         1 UNK         0.0792 
    129 H129      -48.8278  -21.2326   10.7975 H         1 UNK         0.0792 
    130 H130      -47.3557  -22.1879   10.6786 H         1 UNK         0.0792 
    131 H131      -47.8698  -24.5985   10.1032 H         1 UNK         0.3086 
    132 H132      -48.2794  -27.8163   11.5624 H         1 UNK         0.0583 
    133 H133      -49.9384  -27.3386    9.4409 H         1 UNK         0.1020 
    134 H134      -48.4397  -27.1614    8.6115 H         1 UNK         0.1020 
    135 H135      -49.9341  -31.1197   10.5607 H         1 UNK         0.0694 
    136 H136      -49.7058  -29.6984   11.5379 H         1 UNK         0.0694 
    137 H137      -46.3941  -27.2505    9.6911 H         1 UNK         0.2989 
    138 H138      -43.8456  -25.8033   11.7223 H         1 UNK         0.1055 
    139 H139      -44.0782  -28.3135   12.0654 H         1 UNK         0.0806 
    140 H140      -42.7782  -27.9013   10.9687 H         1 UNK         0.0806 
    141 H141      -44.3032  -28.5094   10.3324 H         1 UNK         0.0806 
    142 H142      -45.0687  -25.5860    9.1782 H         1 UNK         0.3061 
    143 H143      -42.1740  -24.2745    7.6449 H         1 UNK         0.0734 
    144 H144      -42.8284  -25.5989    5.6506 H         1 UNK         0.0832 
    145 H145      -42.0335  -26.6338    6.8236 H         1 UNK         0.0832 
    146 H146      -43.7818  -26.6938    6.6543 H         1 UNK         0.0832 
    147 H147      -44.8501  -24.4453    6.7076 H         1 UNK         0.3156 
    148 H148      -46.3703  -21.9580    8.5252 H         1 UNK         0.0589 
    149 H149      -45.0439  -21.2539    5.8559 H         1 UNK         0.0808 
    150 H150      -46.4418  -20.4444    6.5669 H         1 UNK         0.0808 
    151 H151      -44.8756  -20.3427    7.3494 H         1 UNK         0.0808 
    152 H152      -47.0055  -22.7912    5.9147 H         1 UNK         0.3098 
    153 H153      -48.6101  -24.2048    5.5164 H         1 UNK         0.0720 
    154 H154      -48.2920  -26.6047    4.9387 H         1 UNK         0.0791 
    155 H155      -47.3827  -26.8689    6.4262 H         1 UNK         0.0791 
    156 H156      -46.7390  -25.8236    5.1696 H         1 UNK         0.0791 
    157 H157      -49.8223  -26.3282    6.8662 H         1 UNK         0.3028 
@<TRIPOS>BOND
     1    1    2 1    
     2    1   82 1    
     3    1   83 1    
     4    1   84 1    
     5    2    3 2    
     6    2    4 am   BACKBONE|DICT|INTERRES
     7    4    5 1    
     8    4   85 1    
     9    5    6 1    
    10    5   80 1    
    11    5   86 1    
    12    6    7 1    
    13    6   87 1    
    14    6   88 1    
    15    7    8 1    
    16    8    9 1    
    17    8   89 1    
    18    8   90 1    
    19    9   10 ar   
    20    9   14 ar   
    21   10   11 ar   
    22   10   91 1    
    23   11   12 ar   
    24   11   58 1    
    25   12   13 ar   
    26   12   92 1    
    27   13   14 ar   
    28   13   15 1    
    29   14   93 1    
    30   15   16 1    
    31   15   94 1    
    32   15   95 1    
    33   16   17 1    
    34   17   18 1    
    35   17   96 1    
    36   17   97 1    
    37   18   19 1    
    38   18   22 1    
    39   18   98 1    
    40   19   20 am   BACKBONE|DICT|INTERRES
    41   19   21 2    
    42   20   99 1    
    43   20  100 1    
    44   22   23 am   BACKBONE|DICT|INTERRES
    45   22  101 1    
    46   23   24 2    
    47   23   25 1    
    48   25   26 1    
    49   25   27 1    
    50   25  102 1    
    51   26  103 1    
    52   26  104 1    
    53   26  105 1    
    54   27   28 am   BACKBONE|DICT|INTERRES
    55   27  106 1    
    56   28   29 2    
    57   28   30 1    
    58   30   31 1    
    59   30   32 1    
    60   30  107 1    
    61   31  108 1    
    62   31  109 1    
    63   31  110 1    
    64   32   33 am   BACKBONE|DICT|INTERRES
    65   32  111 1    
    66   33   34 2    
    67   33   35 1    
    68   35   36 1    
    69   35   37 1    
    70   35  112 1    
    71   36  113 1    
    72   36  114 1    
    73   36  115 1    
    74   37   38 am   BACKBONE|DICT|INTERRES
    75   37  116 1    
    76   38   39 2    
    77   38   40 1    
    78   40   41 1    
    79   40   42 1    
    80   40  117 1    
    81   41  118 1    
    82   41  119 1    
    83   41  120 1    
    84   42   43 am   BACKBONE|DICT|INTERRES
    85   42  121 1    
    86   43   44 2    
    87   43   45 1    
    88   45   46 1    
    89   45   47 1    
    90   45  122 1    
    91   46  123 1    
    92   46  124 1    
    93   46  125 1    
    94   47   48 am   BACKBONE|DICT|INTERRES
    95   47  126 1    
    96   48   49 2    
    97   48   50 1    
    98   50   51 1    
    99   50   52 1    
   100   50  127 1    
   101   51  128 1    
   102   51  129 1    
   103   51  130 1    
   104   52   53 am   BACKBONE|DICT|INTERRES
   105   52  131 1    
   106   53   54 2    
   107   53   55 1    
   108   55   56 1    
   109   55   59 1    
   110   55  132 1    
   111   56   57 1    
   112   56  133 1    
   113   56  134 1    
   114   57   58 1    
   115   58  135 1    
   116   58  136 1    
   117   59   60 am   BACKBONE|DICT|INTERRES
   118   59  137 1    
   119   60   61 2    
   120   60   62 1    
   121   62   63 1    
   122   62   64 1    
   123   62  138 1    
   124   63  139 1    
   125   63  140 1    
   126   63  141 1    
   127   64   65 am   BACKBONE|DICT|INTERRES
   128   64  142 1    
   129   65   66 2    
   130   65   67 1    
   131   67   68 1    
   132   67   69 1    
   133   67  143 1    
   134   68  144 1    
   135   68  145 1    
   136   68  146 1    
   137   69   70 am   BACKBONE|DICT|INTERRES
   138   69  147 1    
   139   70   71 2    
   140   70   72 1    
   141   72   73 1    
   142   72   74 1    
   143   72  148 1    
   144   73  149 1    
   145   73  150 1    
   146   73  151 1    
   147   74   75 am   BACKBONE|DICT|INTERRES
   148   74  152 1    
   149   75   76 2    
   150   75   77 1    
   151   77   78 1    
   152   77   79 1    
   153   77  153 1    
   154   78  154 1    
   155   78  155 1    
   156   78  156 1    
   157   79   80 am   BACKBONE|DICT|INTERRES
   158   79  157 1    
   159   80   81 2    
@<TRIPOS>SUBSTRUCTURE
     1 UNK         1 GROUP             0       ****    0 ROOT    
