@<TRIPOS>MOLECULE
3R207
157   159    1
SMALL
USER_CHARGES


@<TRIPOS>ATOM
      1 CA        -45.3937  -27.2128    3.7350 C.3       0 UNK        -0.1975 
      2 C         -46.2717  -27.3261    4.9724 C.2       0 UNK         0.4852 
      3 O         -45.9579  -26.7243    5.9979 O.2       0 UNK        -0.5216 
      4 N         -47.3731  -28.0807    4.8753 N.am      1 UNK        -0.4461 
      5 CA        -48.3269  -28.3506    5.9581 C.3       1 UNK         0.0864 
      6 C6        -49.5973  -29.0516    5.4132 C.3       14 UNK        -0.0898 
      7 S7        -50.5324  -28.0153    4.2394 S.3       14 UNK        -0.2598 
      8 C8        -52.2536  -28.3708    4.7232 C.3       14 UNK         0.0286 
      9 C9        -52.6819  -27.5655    5.9418 C.ar      14 UNK        -0.0844 
     10 C10       -53.1270  -26.2494    5.7837 C.ar      14 UNK        -0.0881 
     11 C11       -53.5322  -25.4977    6.8904 C.ar      14 UNK        -0.0643 
     12 C12       -53.5022  -26.0763    8.1616 C.ar      14 UNK        -0.0930 
     13 C13       -53.0255  -27.3783    8.3364 C.ar      14 UNK        -0.0827 
     14 C14       -52.6352  -28.1268    7.2224 C.ar      14 UNK        -0.1249 
     15 C15       -52.8579  -27.9373    9.7381 C.3       14 UNK         0.0141 
     16 S16       -54.3498  -28.7717   10.3525 S.3       14 UNK        -0.2313 
     17 C17       -53.9575  -28.7105   12.1287 C.3       14 UNK        -0.0915 
     18 CA        -54.9142  -29.5231   13.0397 C.3       13 UNK         0.0968 
     19 C         -54.4361  -30.9933   13.2364 C.2       13 UNK         0.5732 
     20 N         -54.1214  -31.4410   14.4482 N.am      13 UNK        -0.7310 
     21 O         -54.3612  -31.7502   12.2718 O.2       13 UNK        -0.5035 
     22 N         -55.1575  -28.8035   14.2991 N.am      13 UNK        -0.4233 
     23 C         -56.2514  -28.9566   15.0565 C.2       13 UNK         0.4989 
     24 O         -57.2106  -29.6575   14.7281 O.2       13 UNK        -0.4996 
     25 CA        -56.2927  -28.1955   16.3979 C.3       12 UNK         0.0216 
     26 CB        -57.1915  -28.8901   17.4435 C.3       12 UNK        -0.1964 
     27 N         -54.9727  -27.9016   16.9722 N.am      12 UNK        -0.4276 
     28 C         -54.0221  -28.7785   17.3358 C.2       12 UNK         0.5020 
     29 O         -54.1222  -29.9951   17.1636 O.2       12 UNK        -0.5489 
     30 CA        -52.7395  -28.2018   17.9701 C.3       11 UNK         0.0294 
     31 CB        -51.4979  -29.0416   17.6163 C.3       11 UNK        -0.2019 
     32 N         -52.5147  -26.8231   17.5329 N.am      11 UNK        -0.4493 
     33 C         -52.6869  -25.7201   18.2754 C.2       11 UNK         0.4932 
     34 O         -52.9750  -25.7407   19.4718 O.2       11 UNK        -0.5029 
     35 CA        -52.5472  -24.3575   17.5626 C.3       10 UNK         0.0280 
     36 CB        -51.1573  -23.7578   17.8265 C.3       10 UNK        -0.1976 
     37 N         -52.7759  -24.4200   16.1144 N.am      10 UNK        -0.4242 
     38 C         -53.9333  -24.7796   15.5344 C.2       10 UNK         0.5072 
     39 O         -54.9709  -24.9888   16.1632 O.2       10 UNK        -0.5224 
     40 CA        -53.9176  -25.0424   14.0149 C.3       9 UNK         0.0343 
     41 CB        -54.4227  -23.8111   13.2488 C.3       9 UNK        -0.2003 
     42 N         -52.5995  -25.4346   13.5004 N.am      9 UNK        -0.4272 
     43 C         -51.8856  -26.4865   13.9353 C.2       9 UNK         0.4988 
     44 O         -52.3537  -27.3350   14.6949 O.2       9 UNK        -0.5108 
     45 CA        -50.4051  -26.6019   13.5158 C.3       8 UNK         0.0248 
     46 CB        -50.1841  -27.8278   12.6205 C.3       8 UNK        -0.2001 
     47 N         -49.8649  -25.4140   12.8483 N.am      8 UNK        -0.4140 
     48 C         -49.7515  -24.1955   13.3970 C.2       8 UNK         0.5028 
     49 O         -50.0208  -23.9519   14.5744 O.2       8 UNK        -0.5428 
     50 CA        -49.3437  -23.0417   12.4589 C.3       7 UNK         0.0264 
     51 CB        -47.8476  -22.7357   12.6195 C.3       7 UNK        -0.1988 
     52 N         -49.6584  -23.2470   11.0327 N.am      7 UNK        -0.4454 
     53 C         -50.8820  -23.5216   10.5433 C.2       7 UNK         0.5027 
     54 O         -51.8668  -23.6755   11.2663 O.2       7 UNK        -0.5083 
     55 CA        -51.0722  -23.6739    9.0184 C.3       6 UNK         0.0844 
     56 C56       -52.2034  -22.7416    8.5094 C.3       14 UNK        -0.0967 
     57 S57       -52.5513  -22.9148    6.7231 S.3       14 UNK        -0.2604 
     58 C58       -53.9749  -24.0536    6.7110 C.3       14 UNK         0.0134 
     59 N         -49.8369  -23.5203    8.2515 N.am      6 UNK        -0.4116 
     60 C         -48.9102  -24.4699    8.0805 C.2       5 UNK         0.5034 
     61 O         -48.9535  -25.5848    8.6083 O.2       5 UNK        -0.5045 
     62 CA        -47.7080  -24.1107    7.1884 C.3       5 UNK         0.0224 
     63 CB        -47.8392  -22.7699    6.4275 C.3       5 UNK        -0.1978 
     64 N         -46.4617  -24.1557    7.9589 N.am      5 UNK        -0.4737 
     65 C         -46.1740  -23.4312    9.0497 C.2       4 UNK         0.5027 
     66 O         -46.9207  -22.5686    9.5162 O.2       4 UNK        -0.5211 
     67 CA        -44.8756  -23.8002    9.7881 C.3       4 UNK         0.0297 
     68 CB        -44.3639  -22.6600   10.6877 C.3       4 UNK        -0.1993 
     69 N         -45.1173  -24.9897   10.6052 N.am      4 UNK        -0.4486 
     70 C         -45.1674  -26.2370   10.1229 C.2       3 UNK         0.4961 
     71 O         -44.8239  -26.5309    8.9776 O.2       3 UNK        -0.5105 
     72 CA        -45.7285  -27.3363   11.0349 C.3       3 UNK         0.0299 
     73 CB        -46.3730  -26.8241   12.3422 C.3       3 UNK        -0.1972 
     74 N         -46.7034  -28.0902   10.2499 N.am      3 UNK        -0.4305 
     75 C         -46.9911  -29.3871   10.4017 C.2       2 UNK         0.5006 
     76 O         -46.5049  -30.0923   11.2869 O.2       2 UNK        -0.5106 
     77 CA        -47.9844  -30.0195    9.4096 C.3       2 UNK         0.0296 
     78 CB        -49.2918  -30.4183   10.1149 C.3       2 UNK        -0.2002 
     79 N         -48.3099  -29.1540    8.2698 N.am      2 UNK        -0.4032 
     80 C         -47.7039  -29.2159    7.0762 C.2       1 UNK         0.5000 
     81 O         -46.7547  -29.9653    6.8270 O.2       1 UNK        -0.5238 
     82 H82       -44.3943  -27.5901    3.9502 H         1 UNK         0.0889 
     83 H83       -45.3067  -26.1699    3.4316 H         1 UNK         0.0889 
     84 H84       -45.7966  -27.7783    2.8950 H         1 UNK         0.0889 
     85 H85       -47.5715  -28.5514    4.0044 H         1 UNK         0.3028 
     86 H86       -48.6132  -27.3923    6.3974 H         1 UNK         0.0864 
     87 H87       -49.3367  -29.9853    4.9107 H         1 UNK         0.0720 
     88 H88       -50.2586  -29.3317    6.2332 H         1 UNK         0.0720 
     89 H89       -52.9081  -28.1318    3.8836 H         1 UNK         0.0814 
     90 H90       -52.3759  -29.4402    4.9027 H         1 UNK         0.0814 
     91 H91       -53.1453  -25.8041    4.7982 H         1 UNK         0.1469 
     92 H92       -53.8025  -25.4951    9.0229 H         1 UNK         0.1381 
     93 H93       -52.2798  -29.1388    7.3574 H         1 UNK         0.1206 
     94 H94       -52.5966  -27.1196   10.4118 H         1 UNK         0.0813 
     95 H95       -52.0234  -28.6386    9.7660 H         1 UNK         0.0813 
     96 H96       -52.9182  -29.0019   12.2888 H         1 UNK         0.0638 
     97 H97       -54.0147  -27.6536   12.3848 H         1 UNK         0.0638 
     98 H98       -55.8755  -29.5924   12.5271 H         1 UNK         0.0568 
     99 H99       -54.1850  -30.8443   15.2654 H         1 UNK         0.3450 
    100 H100      -53.8209  -32.3966   14.5522 H         1 UNK         0.3450 
    101 H101      -54.3832  -28.2556   14.6525 H         1 UNK         0.2987 
    102 H102      -56.7418  -27.2273   16.1721 H         1 UNK         0.0766 
    103 H103      -57.2278  -28.3241   18.3743 H         1 UNK         0.0798 
    104 H104      -58.2172  -28.9814   17.0838 H         1 UNK         0.0798 
    105 H105      -56.8377  -29.8953   17.6756 H         1 UNK         0.0798 
    106 H106      -54.7786  -26.9141   17.0979 H         1 UNK         0.3198 
    107 H107      -52.8778  -28.2391   19.0525 H         1 UNK         0.0843 
    108 H108      -51.5928  -30.0610   17.9926 H         1 UNK         0.0831 
    109 H109      -50.5947  -28.6191   18.0566 H         1 UNK         0.0831 
    110 H110      -51.3479  -29.1049   16.5378 H         1 UNK         0.0831 
    111 H111      -52.3156  -26.7242   16.5416 H         1 UNK         0.3133 
    112 H112      -53.2966  -23.6867   17.9877 H         1 UNK         0.0566 
    113 H113      -50.3643  -24.3797   17.4086 H         1 UNK         0.0814 
    114 H114      -50.9683  -23.6622   18.8967 H         1 UNK         0.0814 
    115 H115      -51.0645  -22.7625   17.3913 H         1 UNK         0.0814 
    116 H116      -51.9652  -24.2629   15.5243 H         1 UNK         0.3091 
    117 H117      -54.6080  -25.8656   13.8246 H         1 UNK         0.0702 
    118 H118      -54.5156  -24.0200   12.1828 H         1 UNK         0.0785 
    119 H119      -53.7497  -22.9606   13.3651 H         1 UNK         0.0785 
    120 H120      -55.4067  -23.5032   13.6052 H         1 UNK         0.0785 
    121 H121      -52.1790  -24.7985   12.8282 H         1 UNK         0.2998 
    122 H122      -49.8340  -26.7486   14.4348 H         1 UNK         0.0697 
    123 H123      -50.6758  -27.7082   11.6574 H         1 UNK         0.0825 
    124 H124      -50.5775  -28.7332   13.0851 H         1 UNK         0.0825 
    125 H125      -49.1244  -28.0003   12.4366 H         1 UNK         0.0825 
    126 H126      -49.6429  -25.5064   11.8679 H         1 UNK         0.3029 
    127 H127      -49.9050  -22.1636   12.7848 H         1 UNK         0.0897 
    128 H128      -47.5681  -21.8324   12.0771 H         1 UNK         0.0792 
    129 H129      -47.5887  -22.5738   13.6670 H         1 UNK         0.0792 
    130 H130      -47.2298  -23.5544   12.2522 H         1 UNK         0.0792 
    131 H131      -48.8932  -23.1129   10.3804 H         1 UNK         0.3086 
    132 H132      -51.4019  -24.7017    8.8770 H         1 UNK         0.0583 
    133 H133      -53.1272  -22.9164    9.0645 H         1 UNK         0.1020 
    134 H134      -51.9426  -21.6982    8.6966 H         1 UNK         0.1020 
    135 H135      -54.6936  -23.7687    7.4809 H         1 UNK         0.0694 
    136 H136      -54.4969  -23.9489    5.7586 H         1 UNK         0.0694 
    137 H137      -49.7038  -22.6307    7.7938 H         1 UNK         0.2989 
    138 H138      -47.6544  -24.9001    6.4401 H         1 UNK         0.1055 
    139 H139      -46.9897  -22.6201    5.7611 H         1 UNK         0.0806 
    140 H140      -47.8828  -21.9094    7.0961 H         1 UNK         0.0806 
    141 H141      -48.7345  -22.7554    5.8040 H         1 UNK         0.0806 
    142 H142      -45.8357  -24.9190    7.7193 H         1 UNK         0.3061 
    143 H143      -44.1043  -24.0123    9.0441 H         1 UNK         0.0734 
    144 H144      -44.1947  -21.7537   10.1048 H         1 UNK         0.0832 
    145 H145      -45.0721  -22.4091   11.4776 H         1 UNK         0.0832 
    146 H146      -43.4168  -22.9229   11.1590 H         1 UNK         0.0832 
    147 H147      -45.4201  -24.8309   11.5545 H         1 UNK         0.3156 
    148 H148      -44.8896  -27.9873   11.2893 H         1 UNK         0.0589 
    149 H149      -47.2094  -26.1538   12.1457 H         1 UNK         0.0808 
    150 H150      -46.7485  -27.6523   12.9433 H         1 UNK         0.0808 
    151 H151      -45.6509  -26.2935   12.9637 H         1 UNK         0.0808 
    152 H152      -47.0892  -27.5970    9.4552 H         1 UNK         0.3098 
    153 H153      -47.5176  -30.9386    9.0487 H         1 UNK         0.0720 
    154 H154      -49.9393  -30.9904    9.4501 H         1 UNK         0.0791 
    155 H155      -49.0966  -31.0419   10.9886 H         1 UNK         0.0791 
    156 H156      -49.8493  -29.5477   10.4523 H         1 UNK         0.0791 
    157 H157      -49.0726  -28.5028    8.3976 H         1 UNK         0.3028 
@<TRIPOS>BOND
     1    1    2 1    
     2    1   82 1    
     3    1   83 1    
     4    1   84 1    
     5    2    3 2    
     6    2    4 am   BACKBONE|DICT|INTERRES
     7    4    5 1    
     8    4   85 1    
     9    5    6 1    
    10    5   80 1    
    11    5   86 1    
    12    6    7 1    
    13    6   87 1    
    14    6   88 1    
    15    7    8 1    
    16    8    9 1    
    17    8   89 1    
    18    8   90 1    
    19    9   10 ar   
    20    9   14 ar   
    21   10   11 ar   
    22   10   91 1    
    23   11   12 ar   
    24   11   58 1    
    25   12   13 ar   
    26   12   92 1    
    27   13   14 ar   
    28   13   15 1    
    29   14   93 1    
    30   15   16 1    
    31   15   94 1    
    32   15   95 1    
    33   16   17 1    
    34   17   18 1    
    35   17   96 1    
    36   17   97 1    
    37   18   19 1    
    38   18   22 1    
    39   18   98 1    
    40   19   20 am   BACKBONE|DICT|INTERRES
    41   19   21 2    
    42   20   99 1    
    43   20  100 1    
    44   22   23 am   BACKBONE|DICT|INTERRES
    45   22  101 1    
    46   23   24 2    
    47   23   25 1    
    48   25   26 1    
    49   25   27 1    
    50   25  102 1    
    51   26  103 1    
    52   26  104 1    
    53   26  105 1    
    54   27   28 am   BACKBONE|DICT|INTERRES
    55   27  106 1    
    56   28   29 2    
    57   28   30 1    
    58   30   31 1    
    59   30   32 1    
    60   30  107 1    
    61   31  108 1    
    62   31  109 1    
    63   31  110 1    
    64   32   33 am   BACKBONE|DICT|INTERRES
    65   32  111 1    
    66   33   34 2    
    67   33   35 1    
    68   35   36 1    
    69   35   37 1    
    70   35  112 1    
    71   36  113 1    
    72   36  114 1    
    73   36  115 1    
    74   37   38 am   BACKBONE|DICT|INTERRES
    75   37  116 1    
    76   38   39 2    
    77   38   40 1    
    78   40   41 1    
    79   40   42 1    
    80   40  117 1    
    81   41  118 1    
    82   41  119 1    
    83   41  120 1    
    84   42   43 am   BACKBONE|DICT|INTERRES
    85   42  121 1    
    86   43   44 2    
    87   43   45 1    
    88   45   46 1    
    89   45   47 1    
    90   45  122 1    
    91   46  123 1    
    92   46  124 1    
    93   46  125 1    
    94   47   48 am   BACKBONE|DICT|INTERRES
    95   47  126 1    
    96   48   49 2    
    97   48   50 1    
    98   50   51 1    
    99   50   52 1    
   100   50  127 1    
   101   51  128 1    
   102   51  129 1    
   103   51  130 1    
   104   52   53 am   BACKBONE|DICT|INTERRES
   105   52  131 1    
   106   53   54 2    
   107   53   55 1    
   108   55   56 1    
   109   55   59 1    
   110   55  132 1    
   111   56   57 1    
   112   56  133 1    
   113   56  134 1    
   114   57   58 1    
   115   58  135 1    
   116   58  136 1    
   117   59   60 am   BACKBONE|DICT|INTERRES
   118   59  137 1    
   119   60   61 2    
   120   60   62 1    
   121   62   63 1    
   122   62   64 1    
   123   62  138 1    
   124   63  139 1    
   125   63  140 1    
   126   63  141 1    
   127   64   65 am   BACKBONE|DICT|INTERRES
   128   64  142 1    
   129   65   66 2    
   130   65   67 1    
   131   67   68 1    
   132   67   69 1    
   133   67  143 1    
   134   68  144 1    
   135   68  145 1    
   136   68  146 1    
   137   69   70 am   BACKBONE|DICT|INTERRES
   138   69  147 1    
   139   70   71 2    
   140   70   72 1    
   141   72   73 1    
   142   72   74 1    
   143   72  148 1    
   144   73  149 1    
   145   73  150 1    
   146   73  151 1    
   147   74   75 am   BACKBONE|DICT|INTERRES
   148   74  152 1    
   149   75   76 2    
   150   75   77 1    
   151   77   78 1    
   152   77   79 1    
   153   77  153 1    
   154   78  154 1    
   155   78  155 1    
   156   78  156 1    
   157   79   80 am   BACKBONE|DICT|INTERRES
   158   79  157 1    
   159   80   81 2    
@<TRIPOS>SUBSTRUCTURE
     1 UNK         1 GROUP             0       ****    0 ROOT    
