@<TRIPOS>MOLECULE
3R207
157   159    1
SMALL
USER_CHARGES


@<TRIPOS>ATOM
      1 CA        -55.1965  -23.3541    5.6178 C.3       0 UNK        -0.1975 
      2 C         -53.8330  -23.8585    6.0656 C.2       0 UNK         0.4852 
      3 O         -52.8194  -23.4819    5.4757 O.2       0 UNK        -0.5216 
      4 N         -53.8015  -24.6959    7.1128 N.am      1 UNK        -0.4461 
      5 CA        -52.6258  -25.3327    7.7287 C.3       1 UNK         0.0864 
      6 C6        -51.8251  -26.2133    6.7323 C.3       14 UNK        -0.0898 
      7 S7        -50.8654  -27.5054    7.5813 S.3       14 UNK        -0.2598 
      8 C8        -51.8690  -28.9950    7.2771 C.3       14 UNK         0.0286 
      9 C9        -51.4146  -30.1736    8.1320 C.ar      14 UNK        -0.0844 
     10 C10       -50.0688  -30.5522    8.1652 C.ar      14 UNK        -0.0881 
     11 C11       -49.6471  -31.6228    8.9569 C.ar      14 UNK        -0.0643 
     12 C12       -50.5853  -32.3261    9.7179 C.ar      14 UNK        -0.0930 
     13 C13       -51.9402  -31.9775    9.6802 C.ar      14 UNK        -0.0827 
     14 C14       -52.3458  -30.9005    8.8809 C.ar      14 UNK        -0.1249 
     15 C15       -52.9525  -32.8188   10.4572 C.3       14 UNK         0.0141 
     16 S16       -54.2967  -31.8607   11.2343 S.3       14 UNK        -0.2313 
     17 C17       -53.3809  -30.9530   12.5201 C.3       14 UNK        -0.0915 
     18 CA        -54.3227  -30.2824   13.5548 C.3       13 UNK         0.0968 
     19 C         -53.5192  -29.6965   14.7542 C.2       13 UNK         0.5732 
     20 N         -53.4878  -28.3864   14.9741 N.am      13 UNK        -0.7310 
     21 O         -52.9208  -30.4538   15.5137 O.2       13 UNK        -0.5035 
     22 N         -55.2377  -29.3277   12.9117 N.am      13 UNK        -0.4233 
     23 C         -56.3672  -28.8629   13.4596 C.2       13 UNK         0.4989 
     24 O         -56.8242  -29.2723   14.5287 O.2       13 UNK        -0.4996 
     25 CA        -57.1077  -27.7533   12.6806 C.3       12 UNK         0.0216 
     26 CB        -58.0077  -26.8945   13.5951 C.3       12 UNK        -0.1964 
     27 N         -56.2304  -26.8859   11.8755 N.am      12 UNK        -0.4276 
     28 C         -55.1857  -26.1618   12.3088 C.2       12 UNK         0.5020 
     29 O         -54.7671  -26.2019   13.4681 O.2       12 UNK        -0.5489 
     30 CA        -54.4649  -25.3072   11.2436 C.3       11 UNK         0.0294 
     31 CB        -55.4433  -24.5656   10.3031 C.3       11 UNK        -0.2019 
     32 N         -53.4834  -24.3772   11.8166 N.am      11 UNK        -0.4493 
     33 C         -53.7307  -23.3250   12.6107 C.2       11 UNK         0.4932 
     34 O         -54.8643  -22.9415   12.9062 O.2       11 UNK        -0.5029 
     35 CA        -52.5282  -22.5411   13.1642 C.3       10 UNK         0.0280 
     36 CB        -52.6267  -22.3795   14.6927 C.3       10 UNK        -0.1976 
     37 N         -51.2321  -23.1484   12.8481 N.am      10 UNK        -0.4242 
     38 C         -50.1552  -22.4666   12.4275 C.2       10 UNK         0.5072 
     39 O         -50.1975  -21.2896   12.0632 O.2       10 UNK        -0.5224 
     40 CA        -48.7918  -23.1959   12.4152 C.3       9 UNK         0.0343 
     41 CB        -47.6085  -22.2444   12.6964 C.3       9 UNK        -0.2003 
     42 N         -48.7262  -24.3610   13.2993 N.am      9 UNK        -0.4272 
     43 C         -48.9375  -24.4037   14.6245 C.2       9 UNK         0.4988 
     44 O         -49.0582  -23.4018   15.3311 O.2       9 UNK        -0.5108 
     45 CA        -49.0800  -25.8020   15.2648 C.3       8 UNK         0.0248 
     46 CB        -50.0792  -25.7972   16.4410 C.3       8 UNK        -0.2001 
     47 N         -49.4295  -26.8739   14.3199 N.am      8 UNK        -0.4140 
     48 C         -50.4792  -26.9191   13.4798 C.2       8 UNK         0.5028 
     49 O         -51.3032  -26.0090   13.3761 O.2       8 UNK        -0.5428 
     50 CA        -50.6024  -28.1582   12.5763 C.3       7 UNK         0.0264 
     51 CB        -51.1910  -27.8133   11.2003 C.3       7 UNK        -0.1988 
     52 N         -49.3042  -28.8026   12.3859 N.am      7 UNK        -0.4454 
     53 C         -48.9961  -30.0494   12.7706 C.2       7 UNK         0.5027 
     54 O         -49.8168  -30.8415   13.2346 O.2       7 UNK        -0.5083 
     55 CA        -47.5148  -30.4864   12.6820 C.3       6 UNK         0.0844 
     56 C56       -47.2819  -31.5641   11.5925 C.3       14 UNK        -0.0967 
     57 S57       -47.1376  -30.8957    9.8979 S.3       14 UNK        -0.2604 
     58 C58       -48.1837  -32.0379    8.9436 C.3       14 UNK         0.0134 
     59 N         -46.5729  -29.3670   12.5641 N.am      6 UNK        -0.4116 
     60 C         -46.3476  -28.4335   13.4980 C.2       5 UNK         0.5034 
     61 O         -46.8691  -28.4420   14.6128 O.2       5 UNK        -0.5045 
     62 CA        -45.4471  -27.2521   13.0967 C.3       5 UNK         0.0224 
     63 CB        -43.9871  -27.5320   13.4853 C.3       5 UNK        -0.1978 
     64 N         -45.5164  -26.9068   11.6703 N.am      5 UNK        -0.4737 
     65 C         -46.6208  -26.4914   11.0358 C.2       4 UNK         0.5027 
     66 O         -47.7240  -26.3983   11.5780 O.2       4 UNK        -0.5211 
     67 CA        -46.4808  -26.1733    9.5396 C.3       4 UNK         0.0297 
     68 CB        -47.3803  -27.1016    8.7117 C.3       4 UNK        -0.1993 
     69 N         -46.8276  -24.7843    9.2401 N.am      4 UNK        -0.4486 
     70 C         -46.1295  -23.7087    9.6205 C.2       3 UNK         0.4961 
     71 O         -45.1015  -23.7736   10.2951 O.2       3 UNK        -0.5105 
     72 CA        -46.6292  -22.3193    9.1703 C.3       3 UNK         0.0299 
     73 CB        -45.9570  -21.9063    7.8463 C.3       3 UNK        -0.1972 
     74 N         -48.0899  -22.1359    9.0999 N.am      3 UNK        -0.4305 
     75 C         -48.9747  -22.7289    8.2867 C.2       2 UNK         0.5006 
     76 O         -48.6812  -23.6031    7.4678 O.2       2 UNK        -0.5106 
     77 CA        -50.4258  -22.2302    8.3939 C.3       2 UNK         0.0296 
     78 CB        -50.6076  -20.9249    7.6022 C.3       2 UNK        -0.2002 
     79 N         -51.3676  -23.2224    7.8820 N.am      2 UNK        -0.4032 
     80 C         -51.7194  -24.3496    8.5093 C.2       1 UNK         0.5000 
     81 O         -51.3809  -24.6152    9.6646 O.2       1 UNK        -0.5238 
     82 H82       -55.3819  -23.6450    4.5842 H         1 UNK         0.0889 
     83 H83       -55.2315  -22.2666    5.6773 H         1 UNK         0.0889 
     84 H84       -56.0032  -23.7533    6.2325 H         1 UNK         0.0889 
     85 H85       -54.6810  -24.9411    7.5442 H         1 UNK         0.3028 
     86 H86       -53.0511  -26.0042    8.4748 H         1 UNK         0.0864 
     87 H87       -52.5008  -26.6951    6.0239 H         1 UNK         0.0720 
     88 H88       -51.1448  -25.6094    6.1287 H         1 UNK         0.0720 
     89 H89       -51.8031  -29.2677    6.2231 H         1 UNK         0.0814 
     90 H90       -52.9155  -28.7607    7.4783 H         1 UNK         0.0814 
     91 H91       -49.3430  -30.0067    7.5775 H         1 UNK         0.1469 
     92 H92       -50.2626  -33.1637   10.3209 H         1 UNK         0.1381 
     93 H93       -53.3917  -30.6304    8.8371 H         1 UNK         0.1206 
     94 H94       -53.3972  -33.5380    9.7685 H         1 UNK         0.0813 
     95 H95       -52.4529  -33.4044   11.2306 H         1 UNK         0.0813 
     96 H96       -52.7549  -30.2110   12.0252 H         1 UNK         0.0638 
     97 H97       -52.7021  -31.6517   13.0131 H         1 UNK         0.0638 
     98 H98       -54.9400  -31.0739   13.9840 H         1 UNK         0.0568 
     99 H99       -53.9803  -27.7292   14.3745 H         1 UNK         0.3450 
    100 H100      -52.9731  -28.0388   15.7656 H         1 UNK         0.3450 
    101 H101      -54.9358  -28.9494   12.0279 H         1 UNK         0.2987 
    102 H102      -57.7573  -28.2715   11.9736 H         1 UNK         0.0766 
    103 H103      -57.4275  -26.3849   14.3654 H         1 UNK         0.0798 
    104 H104      -58.7556  -27.5063   14.1012 H         1 UNK         0.0798 
    105 H105      -58.5453  -26.1368   13.0251 H         1 UNK         0.0798 
    106 H106      -56.4800  -26.8129   10.8988 H         1 UNK         0.3198 
    107 H107      -53.8861  -26.0035   10.6392 H         1 UNK         0.0843 
    108 H108      -56.1963  -24.0083   10.8618 H         1 UNK         0.0831 
    109 H109      -55.9721  -25.2566    9.6467 H         1 UNK         0.0831 
    110 H110      -54.9180  -23.8544    9.6658 H         1 UNK         0.0831 
    111 H111      -52.5148  -24.6089   11.6282 H         1 UNK         0.3133 
    112 H112      -52.5944  -21.5490   12.7139 H         1 UNK         0.0566 
    113 H113      -53.5538  -21.8830   14.9814 H         1 UNK         0.0814 
    114 H114      -52.6010  -23.3470   15.1963 H         1 UNK         0.0814 
    115 H115      -51.8040  -21.7793   15.0821 H         1 UNK         0.0814 
    116 H116      -51.1321  -24.1335   13.0922 H         1 UNK         0.3091 
    117 H117      -48.6778  -23.5935   11.4069 H         1 UNK         0.0702 
    118 H118      -46.6552  -22.7684   12.6260 H         1 UNK         0.0785 
    119 H119      -47.6743  -21.8016   13.6903 H         1 UNK         0.0785 
    120 H120      -47.5791  -21.4211   11.9833 H         1 UNK         0.0785 
    121 H121      -48.5901  -25.2440   12.8117 H         1 UNK         0.2998 
    122 H122      -48.0959  -26.0545   15.6616 H         1 UNK         0.0697 
    123 H123      -51.0771  -25.4977   16.1181 H         1 UNK         0.0825 
    124 H124      -49.7674  -25.1025   17.2219 H         1 UNK         0.0825 
    125 H125      -50.1566  -26.7826   16.9002 H         1 UNK         0.0825 
    126 H126      -48.7829  -27.6548   14.3128 H         1 UNK         0.3029 
    127 H127      -51.2874  -28.8317   13.0885 H         1 UNK         0.0897 
    128 H128      -50.5917  -27.0610   10.6854 H         1 UNK         0.0792 
    129 H129      -52.2024  -27.4230   11.2964 H         1 UNK         0.0792 
    130 H130      -51.2429  -28.6943   10.5620 H         1 UNK         0.0792 
    131 H131      -48.5765  -28.1998   12.0140 H         1 UNK         0.3086 
    132 H132      -47.3020  -30.9633   13.6413 H         1 UNK         0.0583 
    133 H133      -46.3525  -32.0931   11.8092 H         1 UNK         0.1020 
    134 H134      -48.0607  -32.3283   11.6337 H         1 UNK         0.1020 
    135 H135      -47.8293  -32.0493    7.9119 H         1 UNK         0.0694 
    136 H136      -48.0591  -33.0568    9.3137 H         1 UNK         0.0694 
    137 H137      -46.1194  -29.2712   11.6667 H         1 UNK         0.2989 
    138 H138      -45.7909  -26.3818   13.6606 H         1 UNK         0.1055 
    139 H139      -43.9042  -27.7688   14.5473 H         1 UNK         0.0806 
    140 H140      -43.3535  -26.6643   13.3000 H         1 UNK         0.0806 
    141 H141      -43.5742  -28.3753   12.9303 H         1 UNK         0.0806 
    142 H142      -44.6489  -26.9465   11.1534 H         1 UNK         0.3061 
    143 H143      -45.4462  -26.3346    9.2301 H         1 UNK         0.0734 
    144 H144      -47.3243  -26.8746    7.6470 H         1 UNK         0.0832 
    145 H145      -47.0886  -28.1438    8.8368 H         1 UNK         0.0832 
    146 H146      -48.4230  -27.0172    9.0185 H         1 UNK         0.0832 
    147 H147      -47.6405  -24.6244    8.6507 H         1 UNK         0.3156 
    148 H148      -46.2884  -21.6156    9.9310 H         1 UNK         0.0589 
    149 H149      -46.2342  -22.5669    7.0241 H         1 UNK         0.0808 
    150 H150      -46.2266  -20.8885    7.5644 H         1 UNK         0.0808 
    151 H151      -44.8702  -21.9403    7.9344 H         1 UNK         0.0808 
    152 H152      -48.4537  -21.4395    9.7367 H         1 UNK         0.3098 
    153 H153      -50.6596  -22.0418    9.4431 H         1 UNK         0.0720 
    154 H154      -51.6287  -20.5516    7.6837 H         1 UNK         0.0791 
    155 H155      -50.3852  -21.0625    6.5429 H         1 UNK         0.0791 
    156 H156      -49.9472  -20.1411    7.9756 H         1 UNK         0.0791 
    157 H157      -51.6866  -23.1126    6.9226 H         1 UNK         0.3028 
@<TRIPOS>BOND
     1    1    2 1    
     2    1   82 1    
     3    1   83 1    
     4    1   84 1    
     5    2    3 2    
     6    2    4 am   BACKBONE|DICT|INTERRES
     7    4    5 1    
     8    4   85 1    
     9    5    6 1    
    10    5   80 1    
    11    5   86 1    
    12    6    7 1    
    13    6   87 1    
    14    6   88 1    
    15    7    8 1    
    16    8    9 1    
    17    8   89 1    
    18    8   90 1    
    19    9   10 ar   
    20    9   14 ar   
    21   10   11 ar   
    22   10   91 1    
    23   11   12 ar   
    24   11   58 1    
    25   12   13 ar   
    26   12   92 1    
    27   13   14 ar   
    28   13   15 1    
    29   14   93 1    
    30   15   16 1    
    31   15   94 1    
    32   15   95 1    
    33   16   17 1    
    34   17   18 1    
    35   17   96 1    
    36   17   97 1    
    37   18   19 1    
    38   18   22 1    
    39   18   98 1    
    40   19   20 am   BACKBONE|DICT|INTERRES
    41   19   21 2    
    42   20   99 1    
    43   20  100 1    
    44   22   23 am   BACKBONE|DICT|INTERRES
    45   22  101 1    
    46   23   24 2    
    47   23   25 1    
    48   25   26 1    
    49   25   27 1    
    50   25  102 1    
    51   26  103 1    
    52   26  104 1    
    53   26  105 1    
    54   27   28 am   BACKBONE|DICT|INTERRES
    55   27  106 1    
    56   28   29 2    
    57   28   30 1    
    58   30   31 1    
    59   30   32 1    
    60   30  107 1    
    61   31  108 1    
    62   31  109 1    
    63   31  110 1    
    64   32   33 am   BACKBONE|DICT|INTERRES
    65   32  111 1    
    66   33   34 2    
    67   33   35 1    
    68   35   36 1    
    69   35   37 1    
    70   35  112 1    
    71   36  113 1    
    72   36  114 1    
    73   36  115 1    
    74   37   38 am   BACKBONE|DICT|INTERRES
    75   37  116 1    
    76   38   39 2    
    77   38   40 1    
    78   40   41 1    
    79   40   42 1    
    80   40  117 1    
    81   41  118 1    
    82   41  119 1    
    83   41  120 1    
    84   42   43 am   BACKBONE|DICT|INTERRES
    85   42  121 1    
    86   43   44 2    
    87   43   45 1    
    88   45   46 1    
    89   45   47 1    
    90   45  122 1    
    91   46  123 1    
    92   46  124 1    
    93   46  125 1    
    94   47   48 am   BACKBONE|DICT|INTERRES
    95   47  126 1    
    96   48   49 2    
    97   48   50 1    
    98   50   51 1    
    99   50   52 1    
   100   50  127 1    
   101   51  128 1    
   102   51  129 1    
   103   51  130 1    
   104   52   53 am   BACKBONE|DICT|INTERRES
   105   52  131 1    
   106   53   54 2    
   107   53   55 1    
   108   55   56 1    
   109   55   59 1    
   110   55  132 1    
   111   56   57 1    
   112   56  133 1    
   113   56  134 1    
   114   57   58 1    
   115   58  135 1    
   116   58  136 1    
   117   59   60 am   BACKBONE|DICT|INTERRES
   118   59  137 1    
   119   60   61 2    
   120   60   62 1    
   121   62   63 1    
   122   62   64 1    
   123   62  138 1    
   124   63  139 1    
   125   63  140 1    
   126   63  141 1    
   127   64   65 am   BACKBONE|DICT|INTERRES
   128   64  142 1    
   129   65   66 2    
   130   65   67 1    
   131   67   68 1    
   132   67   69 1    
   133   67  143 1    
   134   68  144 1    
   135   68  145 1    
   136   68  146 1    
   137   69   70 am   BACKBONE|DICT|INTERRES
   138   69  147 1    
   139   70   71 2    
   140   70   72 1    
   141   72   73 1    
   142   72   74 1    
   143   72  148 1    
   144   73  149 1    
   145   73  150 1    
   146   73  151 1    
   147   74   75 am   BACKBONE|DICT|INTERRES
   148   74  152 1    
   149   75   76 2    
   150   75   77 1    
   151   77   78 1    
   152   77   79 1    
   153   77  153 1    
   154   78  154 1    
   155   78  155 1    
   156   78  156 1    
   157   79   80 am   BACKBONE|DICT|INTERRES
   158   79  157 1    
   159   80   81 2    
@<TRIPOS>SUBSTRUCTURE
     1 UNK         1 GROUP             0       ****    0 ROOT    
