@<TRIPOS>MOLECULE
3R207
157   159    1
SMALL
USER_CHARGES


@<TRIPOS>ATOM
      1 CA        -50.6091  -30.7210    2.5913 C.3       0 UNK        -0.1975 
      2 C         -50.4378  -29.6242    3.6321 C.2       0 UNK         0.4852 
      3 O         -50.4550  -28.4424    3.2840 O.2       0 UNK        -0.5216 
      4 N         -50.2850  -30.0067    4.9060 N.am      1 UNK        -0.4461 
      5 CA        -50.0614  -29.0953    6.0354 C.3       1 UNK         0.0864 
      6 C6        -50.4917  -29.7215    7.3929 C.3       14 UNK        -0.0898 
      7 S7        -52.0647  -30.6628    7.3814 S.3       14 UNK        -0.2598 
      8 C8        -53.2779  -29.5291    6.6275 C.3       14 UNK         0.0286 
      9 C9        -53.7537  -28.4627    7.6019 C.ar      14 UNK        -0.0844 
     10 C10       -53.1196  -27.2188    7.6473 C.ar      14 UNK        -0.0881 
     11 C11       -53.5466  -26.2323    8.5411 C.ar      14 UNK        -0.0643 
     12 C12       -54.6542  -26.4842    9.3556 C.ar      14 UNK        -0.0930 
     13 C13       -55.2985  -27.7254    9.3247 C.ar      14 UNK        -0.0827 
     14 C14       -54.8402  -28.7129    8.4469 C.ar      14 UNK        -0.1249 
     15 C15       -56.4831  -27.9928   10.2445 C.3       14 UNK         0.0141 
     16 S16       -55.9909  -27.8531   11.9883 S.3       14 UNK        -0.2313 
     17 C17       -57.5524  -28.1963   12.8796 C.3       14 UNK        -0.0915 
     18 CA        -57.4954  -29.4897   13.7421 C.3       13 UNK         0.0968 
     19 C         -57.7966  -30.7620   12.8935 C.2       13 UNK         0.5732 
     20 N         -56.8873  -31.7186   12.7464 N.am      13 UNK        -0.7310 
     21 O         -58.8966  -30.8878   12.3607 O.2       13 UNK        -0.5035 
     22 N         -56.2503  -29.5221   14.5169 N.am      13 UNK        -0.4233 
     23 C         -55.9324  -30.3250   15.5358 C.2       13 UNK         0.4989 
     24 O         -56.7315  -31.0666   16.1095 O.2       13 UNK        -0.4996 
     25 CA        -54.4406  -30.2981   15.9370 C.3       12 UNK         0.0216 
     26 CB        -54.0159  -31.5258   16.7702 C.3       12 UNK        -0.1964 
     27 N         -53.5573  -30.1143   14.7699 N.am      12 UNK        -0.4276 
     28 C         -53.4843  -30.9117   13.6876 C.2       12 UNK         0.5020 
     29 O         -54.0911  -31.9800   13.5988 O.2       12 UNK        -0.5489 
     30 CA        -52.6780  -30.4172   12.4694 C.3       11 UNK         0.0294 
     31 CB        -53.3723  -30.7908   11.1464 C.3       11 UNK        -0.2019 
     32 N         -52.4840  -28.9674   12.4875 N.am      11 UNK        -0.4493 
     33 C         -51.4205  -28.3433   13.0027 C.2       11 UNK         0.4932 
     34 O         -50.4489  -28.9323   13.4791 O.2       11 UNK        -0.5029 
     35 CA        -51.4453  -26.8035   13.0139 C.3       10 UNK         0.0280 
     36 CB        -52.7858  -26.1748   12.5749 C.3       10 UNK        -0.1976 
     37 N         -51.0360  -26.2700   14.3174 N.am      10 UNK        -0.4242 
     38 C         -51.6220  -26.5187   15.4987 C.2       10 UNK         0.5072 
     39 O         -52.6255  -27.2263   15.6236 O.2       10 UNK        -0.5224 
     40 CA        -50.9854  -25.9156   16.7666 C.3       9 UNK         0.0343 
     41 CB        -50.4281  -27.0345   17.6636 C.3       9 UNK        -0.2003 
     42 N         -49.9201  -24.9346   16.5279 N.am      9 UNK        -0.4272 
     43 C         -50.1018  -23.6639   16.1405 C.2       9 UNK         0.4988 
     44 O         -51.2032  -23.1914   15.8568 O.2       9 UNK        -0.5108 
     45 CA        -48.8602  -22.7540   16.0859 C.3       8 UNK         0.0248 
     46 CB        -47.5540  -23.4251   16.5621 C.3       8 UNK        -0.2001 
     47 N         -48.6749  -22.2837   14.7169 N.am      8 UNK        -0.4140 
     48 C         -48.5591  -21.0073   14.3264 C.2       8 UNK         0.5028 
     49 O         -48.5901  -20.0512   15.1034 O.2       8 UNK        -0.5428 
     50 CA        -48.3537  -20.7299   12.8202 C.3       7 UNK         0.0264 
     51 CB        -46.9002  -20.3070   12.5486 C.3       7 UNK        -0.1988 
     52 N         -48.6808  -21.8646   11.9523 N.am      7 UNK        -0.4454 
     53 C         -49.9133  -22.3554   11.7618 C.2       7 UNK         0.5027 
     54 O         -50.9324  -21.8074   12.1826 O.2       7 UNK        -0.5083 
     55 CA        -50.0379  -23.7097   11.0333 C.3       6 UNK         0.0844 
     56 C56       -50.5085  -23.5300    9.5708 C.3       14 UNK        -0.0967 
     57 S57       -51.0168  -25.1279    8.8503 S.3       14 UNK        -0.2604 
     58 C58       -52.8132  -24.8996    8.6397 C.3       14 UNK         0.0134 
     59 N         -48.8303  -24.5431   11.1269 N.am      6 UNK        -0.4116 
     60 C         -48.3032  -25.0347   12.2579 C.2       5 UNK         0.5034 
     61 O         -48.7573  -24.8130   13.3795 O.2       5 UNK        -0.5045 
     62 CA        -47.0484  -25.9027   12.1207 C.3       5 UNK         0.0224 
     63 CB        -47.4051  -27.3077   11.6075 C.3       5 UNK        -0.1978 
     64 N         -46.0757  -25.2670   11.2334 N.am      5 UNK        -0.4737 
     65 C         -45.2527  -24.2799   11.6155 C.2       4 UNK         0.5027 
     66 O         -45.1630  -23.8753   12.7743 O.2       4 UNK        -0.5211 
     67 CA        -44.3953  -23.6171   10.5229 C.3       4 UNK         0.0297 
     68 CB        -43.0263  -24.3085   10.4224 C.3       4 UNK        -0.1993 
     69 N         -45.0354  -23.6128    9.2050 N.am      4 UNK        -0.4486 
     70 C         -46.1499  -22.9331    8.9004 C.2       3 UNK         0.4961 
     71 O         -46.7530  -22.2095    9.6923 O.2       3 UNK        -0.5105 
     72 CA        -46.7154  -23.1427    7.4848 C.3       3 UNK         0.0299 
     73 CB        -46.0356  -22.1926    6.4863 C.3       3 UNK        -0.1972 
     74 N         -46.6100  -24.5266    7.0029 N.am      3 UNK        -0.4305 
     75 C         -47.1583  -25.5865    7.6122 C.2       2 UNK         0.5006 
     76 O         -47.7595  -25.5262    8.6848 O.2       2 UNK        -0.5106 
     77 CA        -46.9803  -26.9509    6.9492 C.3       2 UNK         0.0296 
     78 CB        -46.0045  -27.8215    7.7664 C.3       2 UNK        -0.2002 
     79 N         -48.2966  -27.5810    6.8538 N.am      2 UNK        -0.4032 
     80 C         -48.5866  -28.6271    6.0699 C.2       1 UNK         0.5000 
     81 O         -47.7361  -29.2209    5.3984 O.2       1 UNK        -0.5238 
     82 H82       -51.5572  -30.5977    2.0686 H         1 UNK         0.0889 
     83 H83       -50.5961  -31.7142    3.0400 H         1 UNK         0.0889 
     84 H84       -49.8052  -30.6698    1.8574 H         1 UNK         0.0889 
     85 H85       -50.2607  -30.9903    5.1335 H         1 UNK         0.3028 
     86 H86       -50.6657  -28.2030    5.8669 H         1 UNK         0.0864 
     87 H87       -50.5706  -28.9456    8.1568 H         1 UNK         0.0720 
     88 H88       -49.7243  -30.4118    7.7493 H         1 UNK         0.0720 
     89 H89       -52.8719  -29.0738    5.7243 H         1 UNK         0.0814 
     90 H90       -54.1338  -30.1188    6.2961 H         1 UNK         0.0814 
     91 H91       -52.2792  -27.0177    6.9997 H         1 UNK         0.1469 
     92 H92       -55.0028  -25.7233   10.0407 H         1 UNK         0.1381 
     93 H93       -55.3289  -29.6773    8.4178 H         1 UNK         0.1206 
     94 H94       -57.2762  -27.2752   10.0302 H         1 UNK         0.0813 
     95 H95       -56.8984  -28.9866   10.0689 H         1 UNK         0.0813 
     96 H96       -58.3922  -28.2112   12.1822 H         1 UNK         0.0638 
     97 H97       -57.7373  -27.3429   13.5335 H         1 UNK         0.0638 
     98 H98       -58.3094  -29.4343   14.4667 H         1 UNK         0.0568 
     99 H99       -57.1231  -32.5278   12.1957 H         1 UNK         0.3450 
    100 H100      -55.9705  -31.6619   13.1775 H         1 UNK         0.3450 
    101 H101      -55.5141  -28.9533   14.1265 H         1 UNK         0.2987 
    102 H102      -54.3096  -29.4132   16.5618 H         1 UNK         0.0766 
    103 H103      -52.9615  -31.4745   17.0416 H         1 UNK         0.0798 
    104 H104      -54.1790  -32.4595   16.2313 H         1 UNK         0.0798 
    105 H105      -54.5862  -31.5837   17.6981 H         1 UNK         0.0798 
    106 H106      -53.0322  -29.2460   14.7632 H         1 UNK         0.3198 
    107 H107      -51.7103  -30.9226   12.4962 H         1 UNK         0.0843 
    108 H108      -54.3883  -30.3974   11.0964 H         1 UNK         0.0831 
    109 H109      -53.4359  -31.8729   11.0256 H         1 UNK         0.0831 
    110 H110      -52.8233  -30.4040   10.2881 H         1 UNK         0.0831 
    111 H111      -53.2428  -28.4082   12.1215 H         1 UNK         0.3133 
    112 H112      -50.6917  -26.5009   12.2902 H         1 UNK         0.0566 
    113 H113      -53.0213  -26.4407   11.5457 H         1 UNK         0.0814 
    114 H114      -52.7453  -25.0867   12.6189 H         1 UNK         0.0814 
    115 H115      -53.6159  -26.4900   13.2075 H         1 UNK         0.0814 
    116 H116      -50.1933  -25.7026   14.3040 H         1 UNK         0.3091 
    117 H117      -51.7879  -25.4151   17.3125 H         1 UNK         0.0702 
    118 H118      -51.2027  -27.7621   17.9109 H         1 UNK         0.0785 
    119 H119      -49.6178  -27.5767   17.1743 H         1 UNK         0.0785 
    120 H120      -50.0490  -26.6380   18.6057 H         1 UNK         0.0785 
    121 H121      -48.9770  -25.2418   16.7169 H         1 UNK         0.2998 
    122 H122      -49.0701  -21.9134   16.7502 H         1 UNK         0.0697 
    123 H123      -47.2700  -24.2660   15.9273 H         1 UNK         0.0825 
    124 H124      -47.6396  -23.7846   17.5884 H         1 UNK         0.0825 
    125 H125      -46.7271  -22.7146   16.5459 H         1 UNK         0.0825 
    126 H126      -48.6801  -23.0164   14.0131 H         1 UNK         0.3029 
    127 H127      -49.0099  -19.8992   12.5522 H         1 UNK         0.0897 
    128 H128      -46.7577  -20.0237   11.5055 H         1 UNK         0.0792 
    129 H129      -46.1987  -21.1111   12.7758 H         1 UNK         0.0792 
    130 H130      -46.6207  -19.4464   13.1580 H         1 UNK         0.0792 
    131 H131      -47.9047  -22.3141   11.4785 H         1 UNK         0.3086 
    132 H132      -50.8250  -24.2449   11.5639 H         1 UNK         0.0583 
    133 H133      -51.3402  -22.8254    9.5086 H         1 UNK         0.1020 
    134 H134      -49.7086  -23.1074    8.9611 H         1 UNK         0.1020 
    135 H135      -53.1983  -24.3227    9.4820 H         1 UNK         0.0694 
    136 H136      -53.0016  -24.3120    7.7404 H         1 UNK         0.0694 
    137 H137      -48.4155  -24.8206   10.2390 H         1 UNK         0.2989 
    138 H138      -46.6060  -26.0106   13.1141 H         1 UNK         0.1055 
    139 H139      -48.0777  -27.8125   12.3025 H         1 UNK         0.0806 
    140 H140      -46.5166  -27.9312   11.5085 H         1 UNK         0.0806 
    141 H141      -47.9057  -27.2802   10.6395 H         1 UNK         0.0806 
    142 H142      -46.1388  -25.4956   10.2503 H         1 UNK         0.3061 
    143 H143      -44.2341  -22.5781   10.8190 H         1 UNK         0.0734 
    144 H144      -42.3747  -23.8000    9.7115 H         1 UNK         0.0832 
    145 H145      -42.5162  -24.3030   11.3868 H         1 UNK         0.0832 
    146 H146      -43.1199  -25.3494   10.1103 H         1 UNK         0.0832 
    147 H147      -44.6125  -24.1830    8.4871 H         1 UNK         0.3156 
    148 H148      -47.7771  -22.8912    7.5179 H         1 UNK         0.0589 
    149 H149      -44.9738  -22.4145    6.3725 H         1 UNK         0.0808 
    150 H150      -46.4994  -22.2527    5.5016 H         1 UNK         0.0808 
    151 H151      -46.1179  -21.1561    6.8171 H         1 UNK         0.0808 
    152 H152      -46.1210  -24.6654    6.1298 H         1 UNK         0.3098 
    153 H153      -46.5816  -26.8096    5.9423 H         1 UNK         0.0720 
    154 H154      -46.3951  -28.0395    8.7608 H         1 UNK         0.0791 
    155 H155      -45.0440  -27.3207    7.8941 H         1 UNK         0.0791 
    156 H156      -45.8056  -28.7725    7.2727 H         1 UNK         0.0791 
    157 H157      -49.0205  -27.1277    7.3982 H         1 UNK         0.3028 
@<TRIPOS>BOND
     1    1    2 1    
     2    1   82 1    
     3    1   83 1    
     4    1   84 1    
     5    2    3 2    
     6    2    4 am   BACKBONE|DICT|INTERRES
     7    4    5 1    
     8    4   85 1    
     9    5    6 1    
    10    5   80 1    
    11    5   86 1    
    12    6    7 1    
    13    6   87 1    
    14    6   88 1    
    15    7    8 1    
    16    8    9 1    
    17    8   89 1    
    18    8   90 1    
    19    9   10 ar   
    20    9   14 ar   
    21   10   11 ar   
    22   10   91 1    
    23   11   12 ar   
    24   11   58 1    
    25   12   13 ar   
    26   12   92 1    
    27   13   14 ar   
    28   13   15 1    
    29   14   93 1    
    30   15   16 1    
    31   15   94 1    
    32   15   95 1    
    33   16   17 1    
    34   17   18 1    
    35   17   96 1    
    36   17   97 1    
    37   18   19 1    
    38   18   22 1    
    39   18   98 1    
    40   19   20 am   BACKBONE|DICT|INTERRES
    41   19   21 2    
    42   20   99 1    
    43   20  100 1    
    44   22   23 am   BACKBONE|DICT|INTERRES
    45   22  101 1    
    46   23   24 2    
    47   23   25 1    
    48   25   26 1    
    49   25   27 1    
    50   25  102 1    
    51   26  103 1    
    52   26  104 1    
    53   26  105 1    
    54   27   28 am   BACKBONE|DICT|INTERRES
    55   27  106 1    
    56   28   29 2    
    57   28   30 1    
    58   30   31 1    
    59   30   32 1    
    60   30  107 1    
    61   31  108 1    
    62   31  109 1    
    63   31  110 1    
    64   32   33 am   BACKBONE|DICT|INTERRES
    65   32  111 1    
    66   33   34 2    
    67   33   35 1    
    68   35   36 1    
    69   35   37 1    
    70   35  112 1    
    71   36  113 1    
    72   36  114 1    
    73   36  115 1    
    74   37   38 am   BACKBONE|DICT|INTERRES
    75   37  116 1    
    76   38   39 2    
    77   38   40 1    
    78   40   41 1    
    79   40   42 1    
    80   40  117 1    
    81   41  118 1    
    82   41  119 1    
    83   41  120 1    
    84   42   43 am   BACKBONE|DICT|INTERRES
    85   42  121 1    
    86   43   44 2    
    87   43   45 1    
    88   45   46 1    
    89   45   47 1    
    90   45  122 1    
    91   46  123 1    
    92   46  124 1    
    93   46  125 1    
    94   47   48 am   BACKBONE|DICT|INTERRES
    95   47  126 1    
    96   48   49 2    
    97   48   50 1    
    98   50   51 1    
    99   50   52 1    
   100   50  127 1    
   101   51  128 1    
   102   51  129 1    
   103   51  130 1    
   104   52   53 am   BACKBONE|DICT|INTERRES
   105   52  131 1    
   106   53   54 2    
   107   53   55 1    
   108   55   56 1    
   109   55   59 1    
   110   55  132 1    
   111   56   57 1    
   112   56  133 1    
   113   56  134 1    
   114   57   58 1    
   115   58  135 1    
   116   58  136 1    
   117   59   60 am   BACKBONE|DICT|INTERRES
   118   59  137 1    
   119   60   61 2    
   120   60   62 1    
   121   62   63 1    
   122   62   64 1    
   123   62  138 1    
   124   63  139 1    
   125   63  140 1    
   126   63  141 1    
   127   64   65 am   BACKBONE|DICT|INTERRES
   128   64  142 1    
   129   65   66 2    
   130   65   67 1    
   131   67   68 1    
   132   67   69 1    
   133   67  143 1    
   134   68  144 1    
   135   68  145 1    
   136   68  146 1    
   137   69   70 am   BACKBONE|DICT|INTERRES
   138   69  147 1    
   139   70   71 2    
   140   70   72 1    
   141   72   73 1    
   142   72   74 1    
   143   72  148 1    
   144   73  149 1    
   145   73  150 1    
   146   73  151 1    
   147   74   75 am   BACKBONE|DICT|INTERRES
   148   74  152 1    
   149   75   76 2    
   150   75   77 1    
   151   77   78 1    
   152   77   79 1    
   153   77  153 1    
   154   78  154 1    
   155   78  155 1    
   156   78  156 1    
   157   79   80 am   BACKBONE|DICT|INTERRES
   158   79  157 1    
   159   80   81 2    
@<TRIPOS>SUBSTRUCTURE
     1 UNK         1 GROUP             0       ****    0 ROOT    
