@<TRIPOS>MOLECULE
3R207
157   159    1
SMALL
USER_CHARGES


@<TRIPOS>ATOM
      1 CA        -44.8485  -28.2636    6.2715 C.3       0 UNK        -0.1975 
      2 C         -46.0549  -28.5388    5.3863 C.2       0 UNK         0.4852 
      3 O         -46.0896  -28.0927    4.2395 O.2       0 UNK        -0.5216 
      4 N         -47.0527  -29.2597    5.9150 N.am      1 UNK        -0.4461 
      5 CA        -48.3124  -29.6003    5.2370 C.3       1 UNK         0.0864 
      6 C6        -48.9344  -30.8916    5.8300 C.3       14 UNK        -0.0898 
      7 S7        -49.3716  -30.7448    7.5975 S.3       14 UNK        -0.2598 
      8 C8        -51.1878  -30.6712    7.5048 C.3       14 UNK         0.0286 
      9 C9        -51.7596  -29.8702    8.6620 C.ar      14 UNK        -0.0844 
     10 C10       -52.2007  -28.5593    8.4610 C.ar      14 UNK        -0.0881 
     11 C11       -52.7258  -27.8165    9.5222 C.ar      14 UNK        -0.0643 
     12 C12       -52.7826  -28.3879   10.7965 C.ar      14 UNK        -0.0930 
     13 C13       -52.3830  -29.7150   11.0031 C.ar      14 UNK        -0.0827 
     14 C14       -51.8640  -30.4452    9.9306 C.ar      14 UNK        -0.1249 
     15 C15       -52.5013  -30.3821   12.3708 C.3       14 UNK         0.0141 
     16 S16       -54.0092  -29.9240   13.2915 S.3       14 UNK        -0.2313 
     17 C17       -55.3123  -30.8424   12.3951 C.3       14 UNK        -0.0915 
     18 CA        -55.8152  -30.1786   11.0737 C.3       13 UNK         0.0968 
     19 C         -56.9892  -30.9693   10.4220 C.2       13 UNK         0.5732 
     20 N         -57.9472  -30.3178    9.7731 N.am      13 UNK        -0.7310 
     21 O         -57.0197  -32.1970   10.4738 O.2       13 UNK        -0.5035 
     22 N         -56.0279  -28.7229   11.1758 N.am      13 UNK        -0.4233 
     23 C         -56.8681  -28.1032   12.0107 C.2       13 UNK         0.4989 
     24 O         -57.6540  -28.6780   12.7673 O.2       13 UNK        -0.4996 
     25 CA        -56.8111  -26.5694   12.0159 C.3       12 UNK         0.0216 
     26 CB        -58.1483  -25.9617   11.5594 C.3       12 UNK        -0.1964 
     27 N         -56.5096  -26.1284   13.3754 N.am      12 UNK        -0.4276 
     28 C         -55.2723  -25.9863   13.8642 C.2       12 UNK         0.5020 
     29 O         -54.2453  -26.0340   13.1814 O.2       12 UNK        -0.5489 
     30 CA        -55.1711  -25.7926   15.3807 C.3       11 UNK         0.0294 
     31 CB        -55.4105  -27.1294   16.1115 C.3       11 UNK        -0.2019 
     32 N         -53.8446  -25.2814   15.7090 N.am      11 UNK        -0.4493 
     33 C         -53.4991  -24.6841   16.8560 C.2       11 UNK         0.4932 
     34 O         -54.2953  -24.4408   17.7650 O.2       11 UNK        -0.5029 
     35 CA        -52.0125  -24.3080   17.0096 C.3       10 UNK         0.0280 
     36 CB        -51.6156  -23.9453   18.4563 C.3       10 UNK        -0.1976 
     37 N         -51.1250  -25.3359   16.4575 N.am      10 UNK        -0.4242 
     38 C         -50.9898  -26.6104   16.8537 C.2       10 UNK         0.5072 
     39 O         -51.5531  -27.1001   17.8335 O.2       10 UNK        -0.5224 
     40 CA        -50.0749  -27.5009   15.9949 C.3       9 UNK         0.0343 
     41 CB        -50.8809  -28.1613   14.8680 C.3       9 UNK        -0.2003 
     42 N         -48.9420  -26.7768   15.4134 N.am      9 UNK        -0.4272 
     43 C         -47.9023  -26.3110   16.1206 C.2       9 UNK         0.4988 
     44 O         -47.7527  -26.5003   17.3285 O.2       9 UNK        -0.5108 
     45 CA        -46.8563  -25.4834   15.3559 C.3       8 UNK         0.0248 
     46 CB        -45.8702  -26.4040   14.6191 C.3       8 UNK        -0.2001 
     47 N         -47.4600  -24.5401   14.4108 N.am      8 UNK        -0.4140 
     48 C         -48.2180  -23.4908   14.7644 C.2       8 UNK         0.5028 
     49 O         -48.4380  -23.1642   15.9308 O.2       8 UNK        -0.5428 
     50 CA        -48.8671  -22.6808   13.6296 C.3       7 UNK         0.0264 
     51 CB        -47.8708  -21.6698   13.0415 C.3       7 UNK        -0.1988 
     52 N         -49.4053  -23.5227   12.5592 N.am      7 UNK        -0.4454 
     53 C         -50.4049  -24.4060   12.7060 C.2       7 UNK         0.5027 
     54 O         -51.0084  -24.5888   13.7620 O.2       7 UNK        -0.5083 
     55 CA        -50.7668  -25.2467   11.4692 C.3       6 UNK         0.0844 
     56 C56       -51.7033  -24.4449   10.5316 C.3       14 UNK        -0.0967 
     57 S57       -51.9767  -25.2183    8.9024 S.3       14 UNK        -0.2604 
     58 C58       -53.2847  -26.4234    9.2702 C.3       14 UNK         0.0134 
     59 N         -49.5606  -25.7340   10.8007 N.am      6 UNK        -0.4116 
     60 C         -48.7020  -26.6240   11.3145 C.2       5 UNK         0.5034 
     61 O         -48.8279  -27.1505   12.4204 O.2       5 UNK        -0.5045 
     62 CA        -47.4595  -26.9289   10.4632 C.3       5 UNK         0.0224 
     63 CB        -47.7983  -27.9335    9.3518 C.3       5 UNK        -0.1978 
     64 N         -46.8785  -25.7162    9.8776 N.am      5 UNK        -0.4737 
     65 C         -46.3264  -24.7303   10.6015 C.2       4 UNK         0.5027 
     66 O         -46.2015  -24.7698   11.8242 O.2       4 UNK        -0.5211 
     67 CA        -45.8844  -23.4644    9.8497 C.3       4 UNK         0.0297 
     68 CB        -44.4336  -23.6092    9.3654 C.3       4 UNK        -0.1993 
     69 N         -46.7458  -23.1279    8.7151 N.am      4 UNK        -0.4486 
     70 C         -48.0649  -22.8977    8.7741 C.2       3 UNK         0.4961 
     71 O         -48.7187  -22.9113    9.8174 O.2       3 UNK        -0.5105 
     72 CA        -48.7825  -22.6353    7.4387 C.3       3 UNK         0.0299 
     73 CB        -47.8745  -21.9717    6.3792 C.3       3 UNK        -0.1972 
     74 N         -49.4170  -23.8341    6.8756 N.am      3 UNK        -0.4305 
     75 C         -48.8523  -25.0242    6.6207 C.2       2 UNK         0.5006 
     76 O         -47.7069  -25.3429    6.9606 O.2       2 UNK        -0.5106 
     77 CA        -49.7046  -26.0170    5.8148 C.3       2 UNK         0.0296 
     78 CB        -49.9886  -25.4595    4.4017 C.3       2 UNK        -0.2002 
     79 N         -48.9600  -27.2700    5.7398 N.am      2 UNK        -0.4032 
     80 C         -49.3266  -28.4288    5.1795 C.2       1 UNK         0.5000 
     81 O         -50.4181  -28.6060    4.6351 O.2       1 UNK        -0.5238 
     82 H82       -44.8941  -28.8188    7.2082 H         1 UNK         0.0889 
     83 H83       -44.7935  -27.2010    6.5078 H         1 UNK         0.0889 
     84 H84       -43.9313  -28.5471    5.7559 H         1 UNK         0.0889 
     85 H85       -46.9730  -29.6105    6.8594 H         1 UNK         0.3028 
     86 H86       -48.0698  -29.8208    4.1951 H         1 UNK         0.0864 
     87 H87       -49.8054  -31.2030    5.2504 H         1 UNK         0.0720 
     88 H88       -48.2219  -31.7123    5.7341 H         1 UNK         0.0720 
     89 H89       -51.5912  -31.6848    7.5146 H         1 UNK         0.0814 
     90 H90       -51.5010  -30.2270    6.5591 H         1 UNK         0.0814 
     91 H91       -52.1436  -28.1162    7.4758 H         1 UNK         0.1469 
     92 H92       -53.1762  -27.8120   11.6224 H         1 UNK         0.1381 
     93 H93       -51.5354  -31.4648   10.0800 H         1 UNK         0.1206 
     94 H94       -51.6291  -30.1076   12.9604 H         1 UNK         0.0813 
     95 H95       -52.4711  -31.4684   12.2739 H         1 UNK         0.0813 
     96 H96       -56.1467  -30.9658   13.0874 H         1 UNK         0.0638 
     97 H97       -54.9427  -31.8494   12.1946 H         1 UNK         0.0638 
     98 H98       -55.0102  -30.2840   10.3474 H         1 UNK         0.0568 
     99 H99       -58.6959  -30.8398    9.3459 H         1 UNK         0.3450 
    100 H100      -57.9333  -29.3128    9.7139 H         1 UNK         0.3450 
    101 H101      -55.4278  -28.1659   10.5871 H         1 UNK         0.2987 
    102 H102      -56.0309  -26.2249   11.3340 H         1 UNK         0.0766 
    103 H103      -58.1103  -24.8722   11.5668 H         1 UNK         0.0798 
    104 H104      -58.9766  -26.2718   12.1981 H         1 UNK         0.0798 
    105 H105      -58.3888  -26.2703   10.5413 H         1 UNK         0.0798 
    106 H106      -57.2875  -26.1240   14.0201 H         1 UNK         0.3198 
    107 H107      -55.9215  -25.0605   15.6872 H         1 UNK         0.0843 
    108 H108      -56.3888  -27.5464   15.8693 H         1 UNK         0.0831 
    109 H109      -55.3732  -27.0072   17.1940 H         1 UNK         0.0831 
    110 H110      -54.6625  -27.8739   15.8345 H         1 UNK         0.0831 
    111 H111      -53.1601  -25.3953   14.9680 H         1 UNK         0.3133 
    112 H112      -51.8584  -23.4200   16.3950 H         1 UNK         0.0566 
    113 H113      -50.5599  -23.6808   18.5206 H         1 UNK         0.0814 
    114 H114      -52.1869  -23.0881   18.8141 H         1 UNK         0.0814 
    115 H115      -51.7990  -24.7686   19.1471 H         1 UNK         0.0814 
    116 H116      -50.6870  -25.0772   15.5772 H         1 UNK         0.3091 
    117 H117      -49.6791  -28.2898   16.6379 H         1 UNK         0.0702 
    118 H118      -50.2509  -28.8352   14.2882 H         1 UNK         0.0785 
    119 H119      -51.3030  -27.4254   14.1818 H         1 UNK         0.0785 
    120 H120      -51.7093  -28.7471   15.2689 H         1 UNK         0.0785 
    121 H121      -48.9557  -26.6377   14.4078 H         1 UNK         0.2998 
    122 H122      -46.2932  -24.9027   16.0894 H         1 UNK         0.0697 
    123 H123      -46.3635  -26.9804   13.8355 H         1 UNK         0.0825 
    124 H124      -45.4081  -27.1136   15.3067 H         1 UNK         0.0825 
    125 H125      -45.0662  -25.8320   14.1556 H         1 UNK         0.0825 
    126 H126      -47.2585  -24.6927   13.4253 H         1 UNK         0.3029 
    127 H127      -49.7034  -22.1245   14.0585 H         1 UNK         0.0897 
    128 H128      -48.3283  -21.0715   12.2531 H         1 UNK         0.0792 
    129 H129      -47.5174  -20.9808   13.8097 H         1 UNK         0.0792 
    130 H130      -46.9954  -22.1649   12.6219 H         1 UNK         0.0792 
    131 H131      -49.0043  -23.4008   11.6315 H         1 UNK         0.3086 
    132 H132      -51.3157  -26.1222   11.8210 H         1 UNK         0.0583 
    133 H133      -52.6664  -24.2765   11.0180 H         1 UNK         0.1020 
    134 H134      -51.2956  -23.4508   10.3377 H         1 UNK         0.1020 
    135 H135      -53.8824  -26.0818   10.1162 H         1 UNK         0.0694 
    136 H136      -53.9641  -26.4662    8.4178 H         1 UNK         0.0694 
    137 H137      -49.3531  -25.3159    9.9062 H         1 UNK         0.2989 
    138 H138      -46.7114  -27.3796   11.1194 H         1 UNK         0.1055 
    139 H139      -48.1895  -28.8597    9.7755 H         1 UNK         0.0806 
    140 H140      -46.9150  -28.1905    8.7689 H         1 UNK         0.0806 
    141 H141      -48.5562  -27.5477    8.6692 H         1 UNK         0.0806 
    142 H142      -46.9757  -25.5864    8.8749 H         1 UNK         0.3061 
    143 H143      -45.9286  -22.6298   10.5513 H         1 UNK         0.0734 
    144 H144      -43.7670  -23.8403   10.1977 H         1 UNK         0.0832 
    145 H145      -44.3299  -24.4109    8.6329 H         1 UNK         0.0832 
    146 H146      -44.0718  -22.6872    8.9100 H         1 UNK         0.0832 
    147 H147      -46.3172  -23.1457    7.8010 H         1 UNK         0.3156 
    148 H148      -49.5891  -21.9353    7.6620 H         1 UNK         0.0589 
    149 H149      -47.1044  -22.6482    6.0069 H         1 UNK         0.0808 
    150 H150      -48.4587  -21.6417    5.5201 H         1 UNK         0.0808 
    151 H151      -47.3762  -21.0888    6.7827 H         1 UNK         0.0808 
    152 H152      -50.3849  -23.7141    6.6109 H         1 UNK         0.3098 
    153 H153      -50.6406  -26.1957    6.3460 H         1 UNK         0.0720 
    154 H154      -50.5116  -24.5037    4.4445 H         1 UNK         0.0791 
    155 H155      -50.6195  -26.1302    3.8193 H         1 UNK         0.0791 
    156 H156      -49.0657  -25.3014    3.8421 H         1 UNK         0.0791 
    157 H157      -48.0427  -27.2044    6.1648 H         1 UNK         0.3028 
@<TRIPOS>BOND
     1    1    2 1    
     2    1   82 1    
     3    1   83 1    
     4    1   84 1    
     5    2    3 2    
     6    2    4 am   BACKBONE|DICT|INTERRES
     7    4    5 1    
     8    4   85 1    
     9    5    6 1    
    10    5   80 1    
    11    5   86 1    
    12    6    7 1    
    13    6   87 1    
    14    6   88 1    
    15    7    8 1    
    16    8    9 1    
    17    8   89 1    
    18    8   90 1    
    19    9   10 ar   
    20    9   14 ar   
    21   10   11 ar   
    22   10   91 1    
    23   11   12 ar   
    24   11   58 1    
    25   12   13 ar   
    26   12   92 1    
    27   13   14 ar   
    28   13   15 1    
    29   14   93 1    
    30   15   16 1    
    31   15   94 1    
    32   15   95 1    
    33   16   17 1    
    34   17   18 1    
    35   17   96 1    
    36   17   97 1    
    37   18   19 1    
    38   18   22 1    
    39   18   98 1    
    40   19   20 am   BACKBONE|DICT|INTERRES
    41   19   21 2    
    42   20   99 1    
    43   20  100 1    
    44   22   23 am   BACKBONE|DICT|INTERRES
    45   22  101 1    
    46   23   24 2    
    47   23   25 1    
    48   25   26 1    
    49   25   27 1    
    50   25  102 1    
    51   26  103 1    
    52   26  104 1    
    53   26  105 1    
    54   27   28 am   BACKBONE|DICT|INTERRES
    55   27  106 1    
    56   28   29 2    
    57   28   30 1    
    58   30   31 1    
    59   30   32 1    
    60   30  107 1    
    61   31  108 1    
    62   31  109 1    
    63   31  110 1    
    64   32   33 am   BACKBONE|DICT|INTERRES
    65   32  111 1    
    66   33   34 2    
    67   33   35 1    
    68   35   36 1    
    69   35   37 1    
    70   35  112 1    
    71   36  113 1    
    72   36  114 1    
    73   36  115 1    
    74   37   38 am   BACKBONE|DICT|INTERRES
    75   37  116 1    
    76   38   39 2    
    77   38   40 1    
    78   40   41 1    
    79   40   42 1    
    80   40  117 1    
    81   41  118 1    
    82   41  119 1    
    83   41  120 1    
    84   42   43 am   BACKBONE|DICT|INTERRES
    85   42  121 1    
    86   43   44 2    
    87   43   45 1    
    88   45   46 1    
    89   45   47 1    
    90   45  122 1    
    91   46  123 1    
    92   46  124 1    
    93   46  125 1    
    94   47   48 am   BACKBONE|DICT|INTERRES
    95   47  126 1    
    96   48   49 2    
    97   48   50 1    
    98   50   51 1    
    99   50   52 1    
   100   50  127 1    
   101   51  128 1    
   102   51  129 1    
   103   51  130 1    
   104   52   53 am   BACKBONE|DICT|INTERRES
   105   52  131 1    
   106   53   54 2    
   107   53   55 1    
   108   55   56 1    
   109   55   59 1    
   110   55  132 1    
   111   56   57 1    
   112   56  133 1    
   113   56  134 1    
   114   57   58 1    
   115   58  135 1    
   116   58  136 1    
   117   59   60 am   BACKBONE|DICT|INTERRES
   118   59  137 1    
   119   60   61 2    
   120   60   62 1    
   121   62   63 1    
   122   62   64 1    
   123   62  138 1    
   124   63  139 1    
   125   63  140 1    
   126   63  141 1    
   127   64   65 am   BACKBONE|DICT|INTERRES
   128   64  142 1    
   129   65   66 2    
   130   65   67 1    
   131   67   68 1    
   132   67   69 1    
   133   67  143 1    
   134   68  144 1    
   135   68  145 1    
   136   68  146 1    
   137   69   70 am   BACKBONE|DICT|INTERRES
   138   69  147 1    
   139   70   71 2    
   140   70   72 1    
   141   72   73 1    
   142   72   74 1    
   143   72  148 1    
   144   73  149 1    
   145   73  150 1    
   146   73  151 1    
   147   74   75 am   BACKBONE|DICT|INTERRES
   148   74  152 1    
   149   75   76 2    
   150   75   77 1    
   151   77   78 1    
   152   77   79 1    
   153   77  153 1    
   154   78  154 1    
   155   78  155 1    
   156   78  156 1    
   157   79   80 am   BACKBONE|DICT|INTERRES
   158   79  157 1    
   159   80   81 2    
@<TRIPOS>SUBSTRUCTURE
     1 UNK         1 GROUP             0       ****    0 ROOT    
