@<TRIPOS>MOLECULE
3R207
157   159    1
SMALL
USER_CHARGES


@<TRIPOS>ATOM
      1 CA        -48.2883  -32.3316    4.6291 C.3       0 UNK        -0.1975 
      2 C         -48.3492  -30.8196    4.7874 C.2       0 UNK         0.4852 
      3 O         -47.3486  -30.2022    5.1517 O.2       0 UNK        -0.5216 
      4 N         -49.5159  -30.2205    4.5148 N.am      1 UNK        -0.4461 
      5 CA        -49.7726  -28.7781    4.6263 C.3       1 UNK         0.0864 
      6 C6        -50.9600  -28.3321    3.7365 C.3       14 UNK        -0.0898 
      7 S7        -52.4818  -29.3179    3.9692 S.3       14 UNK        -0.2598 
      8 C8        -53.7619  -28.0292    4.0830 C.3       14 UNK         0.0286 
      9 C9        -54.1512  -27.7328    5.5237 C.ar      14 UNK        -0.0844 
     10 C10       -53.6729  -26.5931    6.1802 C.ar      14 UNK        -0.0881 
     11 C11       -54.1064  -26.2844    7.4753 C.ar      14 UNK        -0.0643 
     12 C12       -55.0314  -27.1294    8.1012 C.ar      14 UNK        -0.0930 
     13 C13       -55.4738  -28.3004    7.4798 C.ar      14 UNK        -0.0827 
     14 C14       -55.0362  -28.5886    6.1855 C.ar      14 UNK        -0.1249 
     15 C15       -56.4431  -29.2476    8.1819 C.3       14 UNK         0.0141 
     16 S16       -56.0565  -29.5291    9.9443 S.3       14 UNK        -0.2313 
     17 C17       -54.4338  -30.3583    9.8500 C.3       14 UNK        -0.0915 
     18 CA        -53.6833  -30.3093   11.2073 C.3       13 UNK         0.0968 
     19 C         -52.4150  -31.2121   11.1930 C.2       13 UNK         0.5732 
     20 N         -52.5924  -32.5256   11.1751 N.am      13 UNK        -0.7310 
     21 O         -51.2778  -30.7417   11.1764 O.2       13 UNK        -0.5035 
     22 N         -53.3975  -28.9253   11.6175 N.am      13 UNK        -0.4233 
     23 C         -52.9745  -28.5779   12.8371 C.2       13 UNK         0.4989 
     24 O         -52.9169  -29.3559   13.7938 O.2       13 UNK        -0.4996 
     25 CA        -52.5657  -27.1114   13.0243 C.3       12 UNK         0.0216 
     26 CB        -53.7727  -26.2499   13.4294 C.3       12 UNK        -0.1964 
     27 N         -51.5544  -27.0327   14.0699 N.am      12 UNK        -0.4276 
     28 C         -50.2322  -27.0538   13.8654 C.2       12 UNK         0.5020 
     29 O         -49.7031  -26.9516   12.7530 O.2       12 UNK        -0.5489 
     30 CA        -49.3612  -27.2390   15.1220 C.3       11 UNK         0.0294 
     31 CB        -47.9891  -26.5649   14.9966 C.3       11 UNK        -0.2019 
     32 N         -50.0337  -26.7235   16.3150 N.am      11 UNK        -0.4493 
     33 C         -50.2367  -27.4089   17.4491 C.2       11 UNK         0.4932 
     34 O         -49.8634  -28.5696   17.6207 O.2       11 UNK        -0.5029 
     35 CA        -50.9717  -26.6925   18.6005 C.3       10 UNK         0.0280 
     36 CB        -49.9795  -26.3136   19.7125 C.3       10 UNK        -0.1976 
     37 N         -51.6999  -25.4906   18.1875 N.am      10 UNK        -0.4242 
     38 C         -52.7891  -25.4751   17.4066 C.2       10 UNK         0.5072 
     39 O         -53.3485  -26.4897   16.9912 O.2       10 UNK        -0.5224 
     40 CA        -53.3071  -24.0907   16.9727 C.3       9 UNK         0.0343 
     41 CB        -54.4029  -23.6011   17.9327 C.3       9 UNK        -0.2003 
     42 N         -52.2587  -23.0655   16.8628 N.am      9 UNK        -0.4272 
     43 C         -51.2054  -23.1390   16.0378 C.2       9 UNK         0.4988 
     44 O         -50.9698  -24.1061   15.3087 O.2       9 UNK        -0.5108 
     45 CA        -50.2220  -21.9667   16.0568 C.3       8 UNK         0.0248 
     46 CB        -49.1185  -22.1922   17.1045 C.3       8 UNK        -0.2001 
     47 N         -49.6321  -21.8975   14.7277 N.am      8 UNK        -0.4140 
     48 C         -49.3320  -20.7874   14.0478 C.2       8 UNK         0.5028 
     49 O         -49.3575  -19.6547   14.5317 O.2       8 UNK        -0.5428 
     50 CA        -48.9658  -20.9707   12.5624 C.3       7 UNK         0.0264 
     51 CB        -47.4394  -20.9943   12.3854 C.3       7 UNK        -0.1988 
     52 N         -49.5490  -22.1778   11.9578 N.am      7 UNK        -0.4454 
     53 C         -50.8672  -22.3720   11.7682 C.2       7 UNK         0.5027 
     54 O         -51.7147  -21.5272   12.0639 O.2       7 UNK        -0.5083 
     55 CA        -51.3229  -23.7283   11.1752 C.3       6 UNK         0.0844 
     56 C56       -52.7265  -23.6446   10.5097 C.3       14 UNK        -0.0967 
     57 S57       -53.3386  -25.2734    9.9709 S.3       14 UNK        -0.2604 
     58 C58       -53.5840  -25.0318    8.1787 C.3       14 UNK         0.0134 
     59 N         -50.2986  -24.3395   10.3220 N.am      6 UNK        -0.4116 
     60 C         -49.8381  -23.8496    9.1617 C.2       5 UNK         0.5034 
     61 O         -50.2971  -22.8456    8.6142 O.2       5 UNK        -0.5045 
     62 CA        -48.6525  -24.5894    8.5087 C.3       5 UNK         0.0224 
     63 CB        -47.7241  -23.6257    7.7389 C.3       5 UNK        -0.1978 
     64 N         -47.8576  -25.4317    9.4168 N.am      5 UNK        -0.4737 
     65 C         -47.2135  -25.0310   10.5233 C.2       4 UNK         0.5027 
     66 O         -47.3293  -23.9073   11.0133 O.2       4 UNK        -0.5211 
     67 CA        -46.3225  -26.0766   11.1995 C.3       4 UNK         0.0297 
     68 CB        -45.6795  -25.5777   12.5076 C.3       4 UNK        -0.1993 
     69 N         -47.0924  -27.3034   11.4130 N.am      4 UNK        -0.4486 
     70 C         -46.5972  -28.5321   11.2266 C.2       3 UNK         0.4961 
     71 O         -45.4012  -28.7698   11.0494 O.2       3 UNK        -0.5105 
     72 CA        -47.6001  -29.6988   11.1724 C.3       3 UNK         0.0299 
     73 CB        -47.9830  -30.1623   12.5866 C.3       3 UNK        -0.1972 
     74 N         -48.8184  -29.4666   10.3817 N.am      3 UNK        -0.4305 
     75 C         -48.8982  -28.9575    9.1416 C.2       2 UNK         0.5006 
     76 O         -47.9574  -28.4337    8.5413 O.2       2 UNK        -0.5106 
     77 CA        -50.2806  -29.0681    8.4751 C.3       2 UNK         0.0296 
     78 CB        -51.2146  -27.9303    8.9254 C.3       2 UNK        -0.2002 
     79 N         -50.2137  -29.2068    7.0138 N.am      2 UNK        -0.4032 
     80 C         -49.9269  -28.2839    6.0815 C.2       1 UNK         0.5000 
     81 O         -49.7793  -27.0833    6.3056 O.2       1 UNK        -0.5238 
     82 H82       -47.5309  -32.6010    3.8935 H         1 UNK         0.0889 
     83 H83       -49.2413  -32.7466    4.3015 H         1 UNK         0.0889 
     84 H84       -48.0232  -32.7979    5.5776 H         1 UNK         0.0889 
     85 H85       -50.3055  -30.7712    4.2050 H         1 UNK         0.3028 
     86 H86       -48.8873  -28.2655    4.2426 H         1 UNK         0.0864 
     87 H87       -51.1681  -27.2707    3.8844 H         1 UNK         0.0720 
     88 H88       -50.6741  -28.4253    2.6878 H         1 UNK         0.0720 
     89 H89       -54.6441  -28.3759    3.5426 H         1 UNK         0.0814 
     90 H90       -53.4440  -27.1210    3.5691 H         1 UNK         0.0814 
     91 H91       -52.9746  -25.9383    5.6768 H         1 UNK         0.1469 
     92 H92       -55.3953  -26.8888    9.0898 H         1 UNK         0.1381 
     93 H93       -55.3943  -29.4763    5.6816 H         1 UNK         0.1206 
     94 H94       -56.4695  -30.2145    7.6768 H         1 UNK         0.0813 
     95 H95       -57.4488  -28.8323    8.1071 H         1 UNK         0.0813 
     96 H96       -53.8299  -29.8991    9.0658 H         1 UNK         0.0638 
     97 H97       -54.6119  -31.3886    9.5375 H         1 UNK         0.0638 
     98 H98       -54.3447  -30.7307   11.9671 H         1 UNK         0.0568 
     99 H99       -51.7828  -33.1251   11.1602 H         1 UNK         0.3450 
    100 H100      -53.5154  -32.9303   11.1870 H         1 UNK         0.3450 
    101 H101      -53.4474  -28.2276   10.8905 H         1 UNK         0.2987 
    102 H102      -52.1508  -26.7374   12.0883 H         1 UNK         0.0766 
    103 H103      -54.5448  -26.2699   12.6593 H         1 UNK         0.0798 
    104 H104      -53.4823  -25.2086   13.5710 H         1 UNK         0.0798 
    105 H105      -54.2278  -26.6009   14.3564 H         1 UNK         0.0798 
    106 H106      -51.8907  -27.1683   15.0139 H         1 UNK         0.3198 
    107 H107      -49.2008  -28.3145   15.2183 H         1 UNK         0.0843 
    108 H108      -48.0886  -25.5007   14.7798 H         1 UNK         0.0831 
    109 H109      -47.4118  -27.0263   14.1968 H         1 UNK         0.0831 
    110 H110      -47.4070  -26.6702   15.9120 H         1 UNK         0.0831 
    111 H111      -50.4012  -25.7801   16.2251 H         1 UNK         0.3133 
    112 H112      -51.6955  -27.3984   19.0133 H         1 UNK         0.0566 
    113 H113      -50.4905  -25.8755   20.5701 H         1 UNK         0.0814 
    114 H114      -49.2336  -25.5988   19.3623 H         1 UNK         0.0814 
    115 H115      -49.4429  -27.1923   20.0736 H         1 UNK         0.0814 
    116 H116      -51.3163  -24.6043   18.4813 H         1 UNK         0.3091 
    117 H117      -53.7508  -24.2102   15.9821 H         1 UNK         0.0702 
    118 H118      -54.8518  -22.6714   17.5823 H         1 UNK         0.0785 
    119 H119      -54.0142  -23.4302   18.9374 H         1 UNK         0.0785 
    120 H120      -55.2063  -24.3349   18.0143 H         1 UNK         0.0785 
    121 H121      -52.3714  -22.2413   17.4363 H         1 UNK         0.2998 
    122 H122      -50.7668  -21.0457   16.2756 H         1 UNK         0.0697 
    123 H123      -48.3946  -21.3772   17.0956 H         1 UNK         0.0825 
    124 H124      -48.5759  -23.1219   16.9260 H         1 UNK         0.0825 
    125 H125      -49.5359  -22.2431   18.1108 H         1 UNK         0.0825 
    126 H126      -49.6321  -22.7823   14.2356 H         1 UNK         0.3029 
    127 H127      -49.3583  -20.1062   12.0227 H         1 UNK         0.0897 
    128 H128      -46.9881  -21.8473   12.8941 H         1 UNK         0.0792 
    129 H129      -46.9835  -20.0911   12.7931 H         1 UNK         0.0792 
    130 H130      -47.1633  -21.0499   11.3320 H         1 UNK         0.0792 
    131 H131      -48.8900  -22.8913   11.6539 H         1 UNK         0.3086 
    132 H132      -51.4115  -24.3905   12.0378 H         1 UNK         0.0583 
    133 H133      -53.4593  -23.2497   11.2157 H         1 UNK         0.1020 
    134 H134      -52.7186  -22.9499    9.6684 H         1 UNK         0.1020 
    135 H135      -54.2913  -24.2172    8.0188 H         1 UNK         0.0694 
    136 H136      -52.6341  -24.7216    7.7399 H         1 UNK         0.0694 
    137 H137      -49.8528  -25.1638   10.6992 H         1 UNK         0.2989 
    138 H138      -49.0991  -25.2622    7.7814 H         1 UNK         0.1055 
    139 H139      -47.2867  -22.8749    8.3981 H         1 UNK         0.0806 
    140 H140      -48.2675  -23.0950    6.9560 H         1 UNK         0.0806 
    141 H141      -46.9096  -24.1632    7.2535 H         1 UNK         0.0806 
    142 H142      -47.7380  -26.3968    9.1201 H         1 UNK         0.3061 
    143 H143      -45.5156  -26.2775   10.4911 H         1 UNK         0.0734 
    144 H144      -46.4175  -25.1584   13.1888 H         1 UNK         0.0832 
    145 H145      -45.1455  -26.3744   13.0252 H         1 UNK         0.0832 
    146 H146      -44.9594  -24.7855   12.2997 H         1 UNK         0.0832 
    147 H147      -48.0827  -27.1946   11.6255 H         1 UNK         0.3156 
    148 H148      -47.0836  -30.5288   10.6867 H         1 UNK         0.0589 
    149 H149      -48.5898  -29.4196   13.1011 H         1 UNK         0.0808 
    150 H150      -47.0965  -30.3419   13.1965 H         1 UNK         0.0808 
    151 H151      -48.5509  -31.0925   12.5582 H         1 UNK         0.0808 
    152 H152      -49.6728  -29.8585   10.7744 H         1 UNK         0.3098 
    153 H153      -50.7227  -30.0064    8.8076 H         1 UNK         0.0720 
    154 H154      -52.2180  -28.0696    8.5266 H         1 UNK         0.0791 
    155 H155      -50.8606  -26.9495    8.6108 H         1 UNK         0.0791 
    156 H156      -51.2941  -27.9013   10.0117 H         1 UNK         0.0791 
    157 H157      -50.3006  -30.1546    6.6775 H         1 UNK         0.3028 
@<TRIPOS>BOND
     1    1    2 1    
     2    1   82 1    
     3    1   83 1    
     4    1   84 1    
     5    2    3 2    
     6    2    4 am   BACKBONE|DICT|INTERRES
     7    4    5 1    
     8    4   85 1    
     9    5    6 1    
    10    5   80 1    
    11    5   86 1    
    12    6    7 1    
    13    6   87 1    
    14    6   88 1    
    15    7    8 1    
    16    8    9 1    
    17    8   89 1    
    18    8   90 1    
    19    9   10 ar   
    20    9   14 ar   
    21   10   11 ar   
    22   10   91 1    
    23   11   12 ar   
    24   11   58 1    
    25   12   13 ar   
    26   12   92 1    
    27   13   14 ar   
    28   13   15 1    
    29   14   93 1    
    30   15   16 1    
    31   15   94 1    
    32   15   95 1    
    33   16   17 1    
    34   17   18 1    
    35   17   96 1    
    36   17   97 1    
    37   18   19 1    
    38   18   22 1    
    39   18   98 1    
    40   19   20 am   BACKBONE|DICT|INTERRES
    41   19   21 2    
    42   20   99 1    
    43   20  100 1    
    44   22   23 am   BACKBONE|DICT|INTERRES
    45   22  101 1    
    46   23   24 2    
    47   23   25 1    
    48   25   26 1    
    49   25   27 1    
    50   25  102 1    
    51   26  103 1    
    52   26  104 1    
    53   26  105 1    
    54   27   28 am   BACKBONE|DICT|INTERRES
    55   27  106 1    
    56   28   29 2    
    57   28   30 1    
    58   30   31 1    
    59   30   32 1    
    60   30  107 1    
    61   31  108 1    
    62   31  109 1    
    63   31  110 1    
    64   32   33 am   BACKBONE|DICT|INTERRES
    65   32  111 1    
    66   33   34 2    
    67   33   35 1    
    68   35   36 1    
    69   35   37 1    
    70   35  112 1    
    71   36  113 1    
    72   36  114 1    
    73   36  115 1    
    74   37   38 am   BACKBONE|DICT|INTERRES
    75   37  116 1    
    76   38   39 2    
    77   38   40 1    
    78   40   41 1    
    79   40   42 1    
    80   40  117 1    
    81   41  118 1    
    82   41  119 1    
    83   41  120 1    
    84   42   43 am   BACKBONE|DICT|INTERRES
    85   42  121 1    
    86   43   44 2    
    87   43   45 1    
    88   45   46 1    
    89   45   47 1    
    90   45  122 1    
    91   46  123 1    
    92   46  124 1    
    93   46  125 1    
    94   47   48 am   BACKBONE|DICT|INTERRES
    95   47  126 1    
    96   48   49 2    
    97   48   50 1    
    98   50   51 1    
    99   50   52 1    
   100   50  127 1    
   101   51  128 1    
   102   51  129 1    
   103   51  130 1    
   104   52   53 am   BACKBONE|DICT|INTERRES
   105   52  131 1    
   106   53   54 2    
   107   53   55 1    
   108   55   56 1    
   109   55   59 1    
   110   55  132 1    
   111   56   57 1    
   112   56  133 1    
   113   56  134 1    
   114   57   58 1    
   115   58  135 1    
   116   58  136 1    
   117   59   60 am   BACKBONE|DICT|INTERRES
   118   59  137 1    
   119   60   61 2    
   120   60   62 1    
   121   62   63 1    
   122   62   64 1    
   123   62  138 1    
   124   63  139 1    
   125   63  140 1    
   126   63  141 1    
   127   64   65 am   BACKBONE|DICT|INTERRES
   128   64  142 1    
   129   65   66 2    
   130   65   67 1    
   131   67   68 1    
   132   67   69 1    
   133   67  143 1    
   134   68  144 1    
   135   68  145 1    
   136   68  146 1    
   137   69   70 am   BACKBONE|DICT|INTERRES
   138   69  147 1    
   139   70   71 2    
   140   70   72 1    
   141   72   73 1    
   142   72   74 1    
   143   72  148 1    
   144   73  149 1    
   145   73  150 1    
   146   73  151 1    
   147   74   75 am   BACKBONE|DICT|INTERRES
   148   74  152 1    
   149   75   76 2    
   150   75   77 1    
   151   77   78 1    
   152   77   79 1    
   153   77  153 1    
   154   78  154 1    
   155   78  155 1    
   156   78  156 1    
   157   79   80 am   BACKBONE|DICT|INTERRES
   158   79  157 1    
   159   80   81 2    
@<TRIPOS>SUBSTRUCTURE
     1 UNK         1 GROUP             0       ****    0 ROOT    
