@<TRIPOS>MOLECULE
3R207
157   159    1
SMALL
USER_CHARGES


@<TRIPOS>ATOM
      1 CA        -44.3272  -26.1409   10.1232 C.3       0 UNK        -0.1975 
      2 C         -45.3751  -26.3658    9.0447 C.2       0 UNK         0.4852 
      3 O         -45.7513  -25.4197    8.3505 O.2       0 UNK        -0.5216 
      4 N         -45.8278  -27.6175    8.8780 N.am      1 UNK        -0.4461 
      5 CA        -46.8858  -28.0442    7.9466 C.3       1 UNK         0.0864 
      6 C6        -48.2978  -27.5844    8.4040 C.3       14 UNK        -0.0898 
      7 S7        -48.7540  -28.3427   10.0017 S.3       14 UNK        -0.2598 
      8 C8        -49.9102  -29.6475    9.4635 C.3       14 UNK         0.0286 
      9 C9        -51.3672  -29.2386    9.6422 C.ar      14 UNK        -0.0844 
     10 C10       -51.8692  -28.0830    9.0332 C.ar      14 UNK        -0.0881 
     11 C11       -53.1928  -27.6824    9.2436 C.ar      14 UNK        -0.0643 
     12 C12       -54.0278  -28.4727   10.0378 C.ar      14 UNK        -0.0930 
     13 C13       -53.5490  -29.6461   10.6256 C.ar      14 UNK        -0.0827 
     14 C14       -52.2192  -30.0237   10.4255 C.ar      14 UNK        -0.1249 
     15 C15       -54.4748  -30.4952   11.4797 C.3       14 UNK         0.0141 
     16 S16       -54.6237  -29.7997   13.1512 S.3       14 UNK        -0.2313 
     17 C17       -56.2478  -30.4563   13.6555 C.3       14 UNK        -0.0915 
     18 CA        -57.4215  -29.5614   13.1836 C.3       13 UNK         0.0968 
     19 C         -58.7878  -30.2013   13.5512 C.2       13 UNK         0.5732 
     20 N         -59.2781  -31.1245   12.7349 N.am      13 UNK        -0.7310 
     21 O         -59.3881  -29.8996   14.5816 O.2       13 UNK        -0.5035 
     22 N         -57.2974  -28.1834   13.6797 N.am      13 UNK        -0.4233 
     23 C         -57.9588  -27.1404   13.1618 C.2       13 UNK         0.4989 
     24 O         -58.6988  -27.2232   12.1799 O.2       13 UNK        -0.4996 
     25 CA        -57.7858  -25.7674   13.8362 C.3       12 UNK         0.0216 
     26 CB        -59.0419  -25.4069   14.6470 C.3       12 UNK        -0.1964 
     27 N         -56.6153  -25.6730   14.7099 N.am      12 UNK        -0.4276 
     28 C         -55.3426  -25.6070   14.2981 C.2       12 UNK         0.5020 
     29 O         -55.0042  -25.6126   13.1150 O.2       12 UNK        -0.5489 
     30 CA        -54.2692  -25.4765   15.3949 C.3       11 UNK         0.0294 
     31 CB        -54.7470  -24.6629   16.6173 C.3       11 UNK        -0.2019 
     32 N         -53.7064  -26.7562   15.8361 N.am      11 UNK        -0.4493 
     33 C         -54.3383  -27.8635   16.2520 C.2       11 UNK         0.4932 
     34 O         -55.5637  -28.0004   16.2478 O.2       11 UNK        -0.5029 
     35 CA        -53.4364  -29.0014   16.7857 C.3       10 UNK         0.0280 
     36 CB        -54.2080  -30.2932   17.1128 C.3       10 UNK        -0.1976 
     37 N         -52.3188  -29.3263   15.8911 N.am      10 UNK        -0.4242 
     38 C         -51.1974  -28.6058   15.7655 C.2       10 UNK         0.5072 
     39 O         -50.9953  -27.5778   16.4170 O.2       10 UNK        -0.5224 
     40 CA        -50.1480  -29.0991   14.7516 C.3       9 UNK         0.0343 
     41 CB        -50.7848  -29.6093   13.4462 C.3       9 UNK        -0.2003 
     42 N         -49.2522  -27.9932   14.4239 N.am      9 UNK        -0.4272 
     43 C         -48.0001  -27.8352   14.8723 C.2       9 UNK         0.4988 
     44 O         -47.3878  -28.6896   15.5150 O.2       9 UNK        -0.5108 
     45 CA        -47.3034  -26.4954   14.5595 C.3       8 UNK         0.0248 
     46 CB        -46.3475  -26.6557   13.3659 C.3       8 UNK        -0.2001 
     47 N         -48.2516  -25.4114   14.2821 N.am      8 UNK        -0.4140 
     48 C         -49.0214  -24.8215   15.2118 C.2       8 UNK         0.5028 
     49 O         -48.8719  -24.9979   16.4214 O.2       8 UNK        -0.5428 
     50 CA        -50.1548  -23.8849   14.7369 C.3       7 UNK         0.0264 
     51 CB        -49.8056  -22.4182   15.0389 C.3       7 UNK        -0.1988 
     52 N         -50.4959  -24.0058   13.3157 N.am      7 UNK        -0.4454 
     53 C         -50.9751  -25.1055   12.7135 C.2       7 UNK         0.5027 
     54 O         -51.2846  -26.1254   13.3266 O.2       7 UNK        -0.5083 
     55 CA        -51.0565  -25.0926   11.1694 C.3       6 UNK         0.0844 
     56 C56       -52.5167  -24.8786   10.6987 C.3       14 UNK        -0.0967 
     57 S57       -52.6695  -24.9469    8.8774 S.3       14 UNK        -0.2604 
     58 C58       -53.7368  -26.4032    8.6168 C.3       14 UNK         0.0134 
     59 N         -50.1333  -24.1431   10.5263 N.am      6 UNK        -0.4116 
     60 C         -48.8037  -24.0849   10.6811 C.2       5 UNK         0.5034 
     61 O         -48.1684  -24.8073   11.4490 O.2       5 UNK        -0.5045 
     62 CA        -48.0738  -23.0430    9.8223 C.3       5 UNK         0.0224 
     63 CB        -46.6536  -22.7371   10.3310 C.3       5 UNK        -0.1978 
     64 N         -48.0028  -23.5224    8.4448 N.am      5 UNK        -0.4737 
     65 C         -48.9662  -23.3439    7.5305 C.2       4 UNK         0.5027 
     66 O         -49.9948  -22.7052    7.7591 O.2       4 UNK        -0.5211 
     67 CA        -48.7624  -24.0019    6.1512 C.3       4 UNK         0.0297 
     68 CB        -49.5375  -23.2885    5.0234 C.3       4 UNK        -0.1993 
     69 N         -47.3493  -24.1808    5.7986 N.am      4 UNK        -0.4486 
     70 C         -46.4222  -23.2261    5.6112 C.2       3 UNK         0.4961 
     71 O         -46.6714  -22.0200    5.6167 O.2       3 UNK        -0.5105 
     72 CA        -44.9621  -23.6782    5.4102 C.3       3 UNK         0.0299 
     73 CB        -44.0418  -23.0265    6.4583 C.3       3 UNK        -0.1972 
     74 N         -44.8163  -25.1324    5.5027 N.am      3 UNK        -0.4305 
     75 C         -44.7963  -25.9734    4.4589 C.2       2 UNK         0.5006 
     76 O         -44.8177  -25.6056    3.2839 O.2       2 UNK        -0.5106 
     77 CA        -44.7631  -27.4843    4.7657 C.3       2 UNK         0.0296 
     78 CB        -43.3289  -28.0238    4.6400 C.3       2 UNK        -0.2002 
     79 N         -45.2985  -27.8469    6.0831 N.am      2 UNK        -0.4032 
     80 C         -46.5668  -27.6631    6.4817 C.2       1 UNK         0.5000 
     81 O         -47.4348  -27.1676    5.7607 O.2       1 UNK        -0.5238 
     82 H82       -43.4676  -25.6163    9.7071 H         1 UNK         0.0889 
     83 H83       -43.9774  -27.0787   10.5539 H         1 UNK         0.0889 
     84 H84       -44.7418  -25.5333   10.9258 H         1 UNK         0.0889 
     85 H85       -45.4717  -28.3476    9.4792 H         1 UNK         0.3028 
     86 H86       -46.8796  -29.1354    7.9575 H         1 UNK         0.0864 
     87 H87       -48.3365  -26.4996    8.5123 H         1 UNK         0.0720 
     88 H88       -49.0528  -27.8389    7.6591 H         1 UNK         0.0720 
     89 H89       -49.7303  -29.9223    8.4236 H         1 UNK         0.0814 
     90 H90       -49.6950  -30.5420   10.0497 H         1 UNK         0.0814 
     91 H91       -51.2220  -27.4718    8.4211 H         1 UNK         0.1469 
     92 H92       -55.0531  -28.1732   10.2084 H         1 UNK         0.1381 
     93 H93       -51.8452  -30.9239   10.8936 H         1 UNK         0.1206 
     94 H94       -55.4551  -30.5446   11.0042 H         1 UNK         0.0813 
     95 H95       -54.1122  -31.5220   11.5467 H         1 UNK         0.0813 
     96 H96       -56.3486  -31.4721   13.2686 H         1 UNK         0.0638 
     97 H97       -56.2636  -30.5415   14.7421 H         1 UNK         0.0638 
     98 H98       -57.3772  -29.5111   12.0940 H         1 UNK         0.0568 
     99 H99       -58.7929  -31.3894   11.8921 H         1 UNK         0.3450 
    100 H100      -60.1572  -31.5614   12.9639 H         1 UNK         0.3450 
    101 H101      -56.7192  -28.0505   14.5019 H         1 UNK         0.2987 
    102 H102      -57.6708  -25.0297   13.0390 H         1 UNK         0.0766 
    103 H103      -59.9326  -25.4264   14.0172 H         1 UNK         0.0798 
    104 H104      -58.9693  -24.4046   15.0696 H         1 UNK         0.0798 
    105 H105      -59.2080  -26.1079   15.4662 H         1 UNK         0.0798 
    106 H106      -56.7846  -25.7160   15.7048 H         1 UNK         0.3198 
    107 H107      -53.4442  -24.9256   14.9405 H         1 UNK         0.0843 
    108 H108      -55.4831  -25.2023   17.2141 H         1 UNK         0.0831 
    109 H109      -55.1952  -23.7165   16.3110 H         1 UNK         0.0831 
    110 H110      -53.9105  -24.4212   17.2732 H         1 UNK         0.0831 
    111 H111      -52.6907  -26.7926   15.8670 H         1 UNK         0.3133 
    112 H112      -53.0236  -28.6365   17.7286 H         1 UNK         0.0566 
    113 H113      -53.5741  -31.0049   17.6418 H         1 UNK         0.0814 
    114 H114      -54.5743  -30.7844   16.2132 H         1 UNK         0.0814 
    115 H115      -55.0671  -30.0932   17.7547 H         1 UNK         0.0814 
    116 H116      -52.4493  -30.1222   15.2835 H         1 UNK         0.3091 
    117 H117      -49.5939  -29.9172   15.2155 H         1 UNK         0.0702 
    118 H118      -50.0230  -29.8406   12.7015 H         1 UNK         0.0785 
    119 H119      -51.4555  -28.8672   13.0092 H         1 UNK         0.0785 
    120 H120      -51.3597  -30.5218   13.6049 H         1 UNK         0.0785 
    121 H121      -49.7086  -27.2064   13.9742 H         1 UNK         0.2998 
    122 H122      -46.7121  -26.2174   15.4343 H         1 UNK         0.0697 
    123 H123      -46.8775  -26.9623   12.4626 H         1 UNK         0.0825 
    124 H124      -45.5891  -27.4123   13.5710 H         1 UNK         0.0825 
    125 H125      -45.8272  -25.7230   13.1490 H         1 UNK         0.0825 
    126 H126      -48.3842  -25.1752   13.3013 H         1 UNK         0.3029 
    127 H127      -51.0436  -24.1524   15.3121 H         1 UNK         0.0897 
    128 H128      -48.9314  -22.0878   14.4764 H         1 UNK         0.0792 
    129 H129      -49.5823  -22.2797   16.0978 H         1 UNK         0.0792 
    130 H130      -50.6349  -21.7532   14.7968 H         1 UNK         0.0792 
    131 H131      -50.2653  -23.2153   12.7321 H         1 UNK         0.3086 
    132 H132      -50.7440  -26.0869   10.8448 H         1 UNK         0.0583 
    133 H133      -53.1722  -25.6291   11.1458 H         1 UNK         0.1020 
    134 H134      -52.8943  -23.9125   11.0385 H         1 UNK         0.1020 
    135 H135      -54.7292  -26.1734    9.0082 H         1 UNK         0.0694 
    136 H136      -53.8571  -26.5622    7.5446 H         1 UNK         0.0694 
    137 H137      -50.5462  -23.5525    9.8143 H         1 UNK         0.2989 
    138 H138      -48.6429  -22.1113    9.8628 H         1 UNK         0.1055 
    139 H139      -46.1699  -21.9760    9.7186 H         1 UNK         0.0806 
    140 H140      -46.0187  -23.6213   10.3238 H         1 UNK         0.0806 
    141 H141      -46.6790  -22.3642   11.3556 H         1 UNK         0.0806 
    142 H142      -47.2047  -24.1110    8.2169 H         1 UNK         0.3061 
    143 H143      -49.1748  -25.0079    6.2426 H         1 UNK         0.0734 
    144 H144      -49.2395  -22.2447    4.9229 H         1 UNK         0.0832 
    145 H145      -49.3807  -23.7782    4.0625 H         1 UNK         0.0832 
    146 H146      -50.6102  -23.3003    5.2205 H         1 UNK         0.0832 
    147 H147      -47.0491  -25.1493    5.7630 H         1 UNK         0.3156 
    148 H148      -44.6475  -23.3326    4.4235 H         1 UNK         0.0589 
    149 H149      -43.0052  -23.3356    6.3236 H         1 UNK         0.0808 
    150 H150      -44.0660  -21.9389    6.3792 H         1 UNK         0.0808 
    151 H151      -44.3400  -23.2841    7.4753 H         1 UNK         0.0808 
    152 H152      -44.8457  -25.5124    6.4423 H         1 UNK         0.3098 
    153 H153      -45.3811  -27.9786    4.0131 H         1 UNK         0.0720 
    154 H154      -42.9112  -27.7977    3.6576 H         1 UNK         0.0791 
    155 H155      -43.2991  -29.1070    4.7596 H         1 UNK         0.0791 
    156 H156      -42.6648  -27.5836    5.3850 H         1 UNK         0.0791 
    157 H157      -44.6451  -28.2418    6.7446 H         1 UNK         0.3028 
@<TRIPOS>BOND
     1    1    2 1    
     2    1   82 1    
     3    1   83 1    
     4    1   84 1    
     5    2    3 2    
     6    2    4 am   BACKBONE|DICT|INTERRES
     7    4    5 1    
     8    4   85 1    
     9    5    6 1    
    10    5   80 1    
    11    5   86 1    
    12    6    7 1    
    13    6   87 1    
    14    6   88 1    
    15    7    8 1    
    16    8    9 1    
    17    8   89 1    
    18    8   90 1    
    19    9   10 ar   
    20    9   14 ar   
    21   10   11 ar   
    22   10   91 1    
    23   11   12 ar   
    24   11   58 1    
    25   12   13 ar   
    26   12   92 1    
    27   13   14 ar   
    28   13   15 1    
    29   14   93 1    
    30   15   16 1    
    31   15   94 1    
    32   15   95 1    
    33   16   17 1    
    34   17   18 1    
    35   17   96 1    
    36   17   97 1    
    37   18   19 1    
    38   18   22 1    
    39   18   98 1    
    40   19   20 am   BACKBONE|DICT|INTERRES
    41   19   21 2    
    42   20   99 1    
    43   20  100 1    
    44   22   23 am   BACKBONE|DICT|INTERRES
    45   22  101 1    
    46   23   24 2    
    47   23   25 1    
    48   25   26 1    
    49   25   27 1    
    50   25  102 1    
    51   26  103 1    
    52   26  104 1    
    53   26  105 1    
    54   27   28 am   BACKBONE|DICT|INTERRES
    55   27  106 1    
    56   28   29 2    
    57   28   30 1    
    58   30   31 1    
    59   30   32 1    
    60   30  107 1    
    61   31  108 1    
    62   31  109 1    
    63   31  110 1    
    64   32   33 am   BACKBONE|DICT|INTERRES
    65   32  111 1    
    66   33   34 2    
    67   33   35 1    
    68   35   36 1    
    69   35   37 1    
    70   35  112 1    
    71   36  113 1    
    72   36  114 1    
    73   36  115 1    
    74   37   38 am   BACKBONE|DICT|INTERRES
    75   37  116 1    
    76   38   39 2    
    77   38   40 1    
    78   40   41 1    
    79   40   42 1    
    80   40  117 1    
    81   41  118 1    
    82   41  119 1    
    83   41  120 1    
    84   42   43 am   BACKBONE|DICT|INTERRES
    85   42  121 1    
    86   43   44 2    
    87   43   45 1    
    88   45   46 1    
    89   45   47 1    
    90   45  122 1    
    91   46  123 1    
    92   46  124 1    
    93   46  125 1    
    94   47   48 am   BACKBONE|DICT|INTERRES
    95   47  126 1    
    96   48   49 2    
    97   48   50 1    
    98   50   51 1    
    99   50   52 1    
   100   50  127 1    
   101   51  128 1    
   102   51  129 1    
   103   51  130 1    
   104   52   53 am   BACKBONE|DICT|INTERRES
   105   52  131 1    
   106   53   54 2    
   107   53   55 1    
   108   55   56 1    
   109   55   59 1    
   110   55  132 1    
   111   56   57 1    
   112   56  133 1    
   113   56  134 1    
   114   57   58 1    
   115   58  135 1    
   116   58  136 1    
   117   59   60 am   BACKBONE|DICT|INTERRES
   118   59  137 1    
   119   60   61 2    
   120   60   62 1    
   121   62   63 1    
   122   62   64 1    
   123   62  138 1    
   124   63  139 1    
   125   63  140 1    
   126   63  141 1    
   127   64   65 am   BACKBONE|DICT|INTERRES
   128   64  142 1    
   129   65   66 2    
   130   65   67 1    
   131   67   68 1    
   132   67   69 1    
   133   67  143 1    
   134   68  144 1    
   135   68  145 1    
   136   68  146 1    
   137   69   70 am   BACKBONE|DICT|INTERRES
   138   69  147 1    
   139   70   71 2    
   140   70   72 1    
   141   72   73 1    
   142   72   74 1    
   143   72  148 1    
   144   73  149 1    
   145   73  150 1    
   146   73  151 1    
   147   74   75 am   BACKBONE|DICT|INTERRES
   148   74  152 1    
   149   75   76 2    
   150   75   77 1    
   151   77   78 1    
   152   77   79 1    
   153   77  153 1    
   154   78  154 1    
   155   78  155 1    
   156   78  156 1    
   157   79   80 am   BACKBONE|DICT|INTERRES
   158   79  157 1    
   159   80   81 2    
@<TRIPOS>SUBSTRUCTURE
     1 UNK         1 GROUP             0       ****    0 ROOT    
