@<TRIPOS>MOLECULE
3R207
157   159    1
SMALL
USER_CHARGES


@<TRIPOS>ATOM
      1 CA        -49.9242  -25.6061    5.7412 C.3       0 UNK        -0.1975 
      2 C         -49.7310  -27.0241    5.2191 C.2       0 UNK         0.4852 
      3 O         -50.3128  -27.3714    4.1930 O.2       0 UNK        -0.5216 
      4 N         -48.9359  -27.8777    5.8742 N.am      1 UNK        -0.4461 
      5 CA        -48.0977  -27.6200    7.0496 C.3       1 UNK         0.0864 
      6 C6        -48.6144  -28.3733    8.3047 C.3       14 UNK        -0.0898 
      7 S7        -50.1421  -27.6472    8.9803 S.3       14 UNK        -0.2598 
      8 C8        -51.4147  -28.7187    8.2366 C.3       14 UNK         0.0286 
      9 C9        -52.8025  -28.1131    8.3889 C.ar      14 UNK        -0.0844 
     10 C10       -53.1032  -26.9016    7.7599 C.ar      14 UNK        -0.0881 
     11 C11       -54.3563  -26.3020    7.9173 C.ar      14 UNK        -0.0643 
     12 C12       -55.3311  -26.9589    8.6744 C.ar      14 UNK        -0.0930 
     13 C13       -55.0618  -28.1943    9.2725 C.ar      14 UNK        -0.0827 
     14 C14       -53.7901  -28.7612    9.1370 C.ar      14 UNK        -0.1249 
     15 C15       -56.1614  -28.9238   10.0329 C.3       14 UNK         0.0141 
     16 S16       -56.0350  -28.6677   11.8292 S.3       14 UNK        -0.2313 
     17 C17       -54.8634  -29.9811   12.3137 C.3       14 UNK        -0.0915 
     18 CA        -55.3054  -30.7411   13.5927 C.3       13 UNK         0.0968 
     19 C         -54.3609  -31.9376   13.9119 C.2       13 UNK         0.5732 
     20 N         -53.8627  -32.1025   15.1329 N.am      13 UNK        -0.7310 
     21 O         -54.0847  -32.7512   13.0338 O.2       13 UNK        -0.5035 
     22 N         -55.4888  -29.8290   14.7315 N.am      13 UNK        -0.4233 
     23 C         -56.4572  -29.9446   15.6482 C.2       13 UNK         0.4989 
     24 O         -57.3476  -30.7956   15.5964 O.2       13 UNK        -0.4996 
     25 CA        -56.4261  -28.9436   16.8215 C.3       12 UNK         0.0216 
     26 CB        -57.2658  -29.4114   18.0296 C.3       12 UNK        -0.1964 
     27 N         -55.0711  -28.5769   17.2521 N.am      12 UNK        -0.4276 
     28 C         -54.0978  -29.3990   17.6797 C.2       12 UNK         0.5020 
     29 O         -54.2240  -30.6230   17.7429 O.2       12 UNK        -0.5489 
     30 CA        -52.7480  -28.7635   18.0704 C.3       11 UNK         0.0294 
     31 CB        -51.5631  -29.6009   17.5547 C.3       11 UNK        -0.2019 
     32 N         -52.6245  -27.4048   17.5420 N.am      11 UNK        -0.4493 
     33 C         -52.8092  -26.2729   18.2353 C.2       11 UNK         0.4932 
     34 O         -53.0135  -26.2384   19.4483 O.2       11 UNK        -0.5029 
     35 CA        -52.8001  -24.9540   17.4373 C.3       10 UNK         0.0280 
     36 CB        -51.4472  -24.2418   17.5914 C.3       10 UNK        -0.1976 
     37 N         -53.0989  -25.1412   16.0123 N.am      10 UNK        -0.4242 
     38 C         -54.2985  -25.5152   15.5353 C.2       10 UNK         0.5072 
     39 O         -55.2905  -25.6716   16.2473 O.2       10 UNK        -0.5224 
     40 CA        -54.4001  -25.8536   14.0360 C.3       9 UNK         0.0343 
     41 CB        -54.8980  -24.6424   13.2348 C.3       9 UNK        -0.2003 
     42 N         -53.1395  -26.3399   13.4688 N.am      9 UNK        -0.4272 
     43 C         -52.5246  -27.4679   13.8588 C.2       9 UNK         0.4988 
     44 O         -53.0132  -28.2471   14.6775 O.2       9 UNK        -0.5108 
     45 CA        -51.1195  -27.7653   13.3013 C.3       8 UNK         0.0248 
     46 CB        -51.1720  -28.8850   12.2515 C.3       8 UNK        -0.2001 
     47 N         -50.4401  -26.5976   12.7341 N.am      8 UNK        -0.4140 
     48 C         -50.0912  -25.5013   13.4236 C.2       8 UNK         0.5028 
     49 O         -50.3001  -25.3571   14.6284 O.2       8 UNK        -0.5428 
     50 CA        -49.4591  -24.3506   12.6255 C.3       7 UNK         0.0264 
     51 CB        -47.9271  -24.4696   12.6196 C.3       7 UNK        -0.1988 
     52 N         -49.9407  -24.2690   11.2446 N.am      7 UNK        -0.4454 
     53 C         -51.1983  -24.0123   10.8625 C.2       7 UNK         0.5027 
     54 O         -52.1160  -23.8360   11.6647 O.2       7 UNK        -0.5083 
     55 CA        -51.4726  -23.9547    9.3393 C.3       6 UNK         0.0844 
     56 C56       -52.9415  -23.5707    9.0176 C.3       14 UNK        -0.0967 
     57 S57       -53.3183  -23.7556    7.2397 S.3       14 UNK        -0.2604 
     58 C58       -54.6898  -24.9648    7.2567 C.3       14 UNK         0.0134 
     59 N         -50.5203  -23.0970    8.6150 N.am      6 UNK        -0.4116 
     60 C         -49.2290  -23.3620    8.3736 C.2       5 UNK         0.5034 
     61 O         -48.6707  -24.3782    8.7908 O.2       5 UNK        -0.5045 
     62 CA        -48.4311  -22.3425    7.5304 C.3       5 UNK         0.0224 
     63 CB        -49.1280  -20.9742    7.3805 C.3       5 UNK        -0.1978 
     64 N         -47.0896  -22.1336    8.0823 N.am      5 UNK        -0.4737 
     65 C         -46.0528  -22.9674    7.9293 C.2       4 UNK         0.5027 
     66 O         -46.0760  -23.9692    7.2073 O.2       4 UNK        -0.5211 
     67 CA        -44.7957  -22.6219    8.7494 C.3       4 UNK         0.0297 
     68 CB        -45.0787  -22.7338   10.2587 C.3       4 UNK        -0.1993 
     69 N         -43.7036  -23.5338    8.4253 N.am      4 UNK        -0.4486 
     70 C         -42.8532  -23.4151    7.4032 C.2       3 UNK         0.4961 
     71 O         -42.7708  -22.4161    6.6879 O.2       3 UNK        -0.5105 
     72 CA        -41.9563  -24.6354    7.1156 C.3       3 UNK         0.0299 
     73 CB        -40.8787  -24.8144    8.2039 C.3       3 UNK        -0.1972 
     74 N         -42.7087  -25.8802    6.8796 N.am      3 UNK        -0.4305 
     75 C         -43.4913  -26.5598    7.7310 C.2       2 UNK         0.5006 
     76 O         -43.6576  -26.2624    8.9167 O.2       2 UNK        -0.5106 
     77 CA        -44.2528  -27.7570    7.1610 C.3       2 UNK         0.0296 
     78 CB        -43.8161  -29.0734    7.8321 C.3       2 UNK        -0.2002 
     79 N         -45.6745  -27.5091    7.3814 N.am      2 UNK        -0.4032 
     80 C         -46.6710  -28.0793    6.6973 C.2       1 UNK         0.5000 
     81 O         -46.4996  -28.9428    5.8299 O.2       1 UNK        -0.5238 
     82 H82       -50.1826  -25.6166    6.7977 H         1 UNK         0.0889 
     83 H83       -50.7315  -25.1035    5.2088 H         1 UNK         0.0889 
     84 H84       -49.0134  -25.0243    5.6052 H         1 UNK         0.0889 
     85 H85       -48.7597  -28.7826    5.4578 H         1 UNK         0.3028 
     86 H86       -48.0425  -26.5521    7.2670 H         1 UNK         0.0864 
     87 H87       -47.8748  -28.3340    9.1069 H         1 UNK         0.0720 
     88 H88       -48.7706  -29.4328    8.0923 H         1 UNK         0.0720 
     89 H89       -51.2089  -28.8638    7.1761 H         1 UNK         0.0814 
     90 H90       -51.3647  -29.7047    8.7010 H         1 UNK         0.0814 
     91 H91       -52.3486  -26.4150    7.1608 H         1 UNK         0.1469 
     92 H92       -56.3111  -26.5150    8.7854 H         1 UNK         0.1381 
     93 H93       -53.5736  -29.7108    9.6060 H         1 UNK         0.1206 
     94 H94       -56.1457  -29.9882    9.7950 H         1 UNK         0.0813 
     95 H95       -57.1385  -28.5648    9.7063 H         1 UNK         0.0813 
     96 H96       -54.7535  -30.6820   11.4855 H         1 UNK         0.0638 
     97 H97       -53.8859  -29.5283   12.4523 H         1 UNK         0.0638 
     98 H98       -56.2669  -31.2009   13.3588 H         1 UNK         0.0568 
     99 H99       -54.0983  -31.4733   15.8919 H         1 UNK         0.3450 
    100 H100      -53.2608  -32.8900   15.3099 H         1 UNK         0.3450 
    101 H101      -54.7513  -29.1432   14.8590 H         1 UNK         0.2987 
    102 H102      -56.8801  -28.0274   16.4412 H         1 UNK         0.0766 
    103 H103      -57.2510  -28.6741   18.8321 H         1 UNK         0.0798 
    104 H104      -58.3093  -29.5605   17.7495 H         1 UNK         0.0798 
    105 H105      -56.8992  -30.3554   18.4342 H         1 UNK         0.0798 
    106 H106      -54.8642  -27.5863   17.1988 H         1 UNK         0.3198 
    107 H107      -52.7050  -28.7487   19.1611 H         1 UNK         0.0843 
    108 H108      -51.5688  -30.5999   17.9923 H         1 UNK         0.0831 
    109 H109      -50.6093  -29.1418   17.8148 H         1 UNK         0.0831 
    110 H110      -51.5940  -29.7213   16.4712 H         1 UNK         0.0831 
    111 H111      -52.5029  -27.3454   16.5379 H         1 UNK         0.3133 
    112 H112      -53.5726  -24.3081   17.8596 H         1 UNK         0.0566 
    113 H113      -50.6230  -24.8566   17.2284 H         1 UNK         0.0814 
    114 H114      -51.2445  -24.0148   18.6389 H         1 UNK         0.0814 
    115 H115      -51.4282  -23.2982   17.0459 H         1 UNK         0.0814 
    116 H116      -52.3128  -25.0729   15.3741 H         1 UNK         0.3091 
    117 H117      -55.1364  -26.6529   13.9326 H         1 UNK         0.0702 
    118 H118      -55.8772  -24.3183   13.5892 H         1 UNK         0.0785 
    119 H119      -54.9987  -24.8815   12.1758 H         1 UNK         0.0785 
    120 H120      -54.2210  -23.7922   13.3253 H         1 UNK         0.0785 
    121 H121      -52.6787  -25.7312   12.8037 H         1 UNK         0.2998 
    122 H122      -50.5138  -28.1167   14.1390 H         1 UNK         0.0697 
    123 H123      -51.8097  -28.6160   11.4088 H         1 UNK         0.0825 
    124 H124      -51.5651  -29.8058   12.6840 H         1 UNK         0.0825 
    125 H125      -50.1801  -29.1148   11.8622 H         1 UNK         0.0825 
    126 H126      -50.2401  -26.6231   11.7438 H         1 UNK         0.3029 
    127 H127      -49.7310  -23.4197   13.1277 H         1 UNK         0.0897 
    128 H128      -47.4661  -23.6021   12.1474 H         1 UNK         0.0792 
    129 H129      -47.5355  -24.5301   13.6361 H         1 UNK         0.0792 
    130 H130      -47.5923  -25.3600   12.0856 H         1 UNK         0.0792 
    131 H131      -49.2589  -24.4151   10.5012 H         1 UNK         0.3086 
    132 H132      -51.3241  -24.9738    8.9825 H         1 UNK         0.0583 
    133 H133      -53.6354  -24.1882    9.5915 H         1 UNK         0.1020 
    134 H134      -53.1445  -22.5404    9.3152 H         1 UNK         0.1020 
    135 H135      -55.5440  -24.5005    7.7523 H         1 UNK         0.0694 
    136 H136      -54.9967  -25.1552    6.2276 H         1 UNK         0.0694 
    137 H137      -50.9043  -22.2383    8.2499 H         1 UNK         0.2989 
    138 H138      -48.3301  -22.7756    6.5329 H         1 UNK         0.1055 
    139 H139      -48.5161  -20.2863    6.7964 H         1 UNK         0.0806 
    140 H140      -49.3196  -20.5043    8.3463 H         1 UNK         0.0806 
    141 H141      -50.0795  -21.0643    6.8545 H         1 UNK         0.0806 
    142 H142      -46.9828  -21.3489    8.7091 H         1 UNK         0.3061 
    143 H143      -44.4971  -21.5980    8.5150 H         1 UNK         0.0734 
    144 H144      -45.8435  -22.0251   10.5775 H         1 UNK         0.0832 
    145 H145      -45.4266  -23.7323   10.5278 H         1 UNK         0.0832 
    146 H146      -44.1846  -22.5230   10.8460 H         1 UNK         0.0832 
    147 H147      -43.7350  -24.4485    8.8714 H         1 UNK         0.3156 
    148 H148      -41.4358  -24.4262    6.1797 H         1 UNK         0.0589 
    149 H149      -41.3092  -25.0283    9.1823 H         1 UNK         0.0808 
    150 H150      -40.1971  -25.6275    7.9545 H         1 UNK         0.0808 
    151 H151      -40.2789  -23.9093    8.3073 H         1 UNK         0.0808 
    152 H152      -42.6773  -26.2084    5.9239 H         1 UNK         0.3098 
    153 H153      -44.0638  -27.8247    6.0873 H         1 UNK         0.0720 
    154 H154      -44.3319  -29.9314    7.4008 H         1 UNK         0.0791 
    155 H155      -42.7462  -29.2407    7.7024 H         1 UNK         0.0791 
    156 H156      -44.0191  -29.0656    8.9040 H         1 UNK         0.0791 
    157 H157      -45.8791  -26.7875    8.0622 H         1 UNK         0.3028 
@<TRIPOS>BOND
     1    1    2 1    
     2    1   82 1    
     3    1   83 1    
     4    1   84 1    
     5    2    3 2    
     6    2    4 am   BACKBONE|DICT|INTERRES
     7    4    5 1    
     8    4   85 1    
     9    5    6 1    
    10    5   80 1    
    11    5   86 1    
    12    6    7 1    
    13    6   87 1    
    14    6   88 1    
    15    7    8 1    
    16    8    9 1    
    17    8   89 1    
    18    8   90 1    
    19    9   10 ar   
    20    9   14 ar   
    21   10   11 ar   
    22   10   91 1    
    23   11   12 ar   
    24   11   58 1    
    25   12   13 ar   
    26   12   92 1    
    27   13   14 ar   
    28   13   15 1    
    29   14   93 1    
    30   15   16 1    
    31   15   94 1    
    32   15   95 1    
    33   16   17 1    
    34   17   18 1    
    35   17   96 1    
    36   17   97 1    
    37   18   19 1    
    38   18   22 1    
    39   18   98 1    
    40   19   20 am   BACKBONE|DICT|INTERRES
    41   19   21 2    
    42   20   99 1    
    43   20  100 1    
    44   22   23 am   BACKBONE|DICT|INTERRES
    45   22  101 1    
    46   23   24 2    
    47   23   25 1    
    48   25   26 1    
    49   25   27 1    
    50   25  102 1    
    51   26  103 1    
    52   26  104 1    
    53   26  105 1    
    54   27   28 am   BACKBONE|DICT|INTERRES
    55   27  106 1    
    56   28   29 2    
    57   28   30 1    
    58   30   31 1    
    59   30   32 1    
    60   30  107 1    
    61   31  108 1    
    62   31  109 1    
    63   31  110 1    
    64   32   33 am   BACKBONE|DICT|INTERRES
    65   32  111 1    
    66   33   34 2    
    67   33   35 1    
    68   35   36 1    
    69   35   37 1    
    70   35  112 1    
    71   36  113 1    
    72   36  114 1    
    73   36  115 1    
    74   37   38 am   BACKBONE|DICT|INTERRES
    75   37  116 1    
    76   38   39 2    
    77   38   40 1    
    78   40   41 1    
    79   40   42 1    
    80   40  117 1    
    81   41  118 1    
    82   41  119 1    
    83   41  120 1    
    84   42   43 am   BACKBONE|DICT|INTERRES
    85   42  121 1    
    86   43   44 2    
    87   43   45 1    
    88   45   46 1    
    89   45   47 1    
    90   45  122 1    
    91   46  123 1    
    92   46  124 1    
    93   46  125 1    
    94   47   48 am   BACKBONE|DICT|INTERRES
    95   47  126 1    
    96   48   49 2    
    97   48   50 1    
    98   50   51 1    
    99   50   52 1    
   100   50  127 1    
   101   51  128 1    
   102   51  129 1    
   103   51  130 1    
   104   52   53 am   BACKBONE|DICT|INTERRES
   105   52  131 1    
   106   53   54 2    
   107   53   55 1    
   108   55   56 1    
   109   55   59 1    
   110   55  132 1    
   111   56   57 1    
   112   56  133 1    
   113   56  134 1    
   114   57   58 1    
   115   58  135 1    
   116   58  136 1    
   117   59   60 am   BACKBONE|DICT|INTERRES
   118   59  137 1    
   119   60   61 2    
   120   60   62 1    
   121   62   63 1    
   122   62   64 1    
   123   62  138 1    
   124   63  139 1    
   125   63  140 1    
   126   63  141 1    
   127   64   65 am   BACKBONE|DICT|INTERRES
   128   64  142 1    
   129   65   66 2    
   130   65   67 1    
   131   67   68 1    
   132   67   69 1    
   133   67  143 1    
   134   68  144 1    
   135   68  145 1    
   136   68  146 1    
   137   69   70 am   BACKBONE|DICT|INTERRES
   138   69  147 1    
   139   70   71 2    
   140   70   72 1    
   141   72   73 1    
   142   72   74 1    
   143   72  148 1    
   144   73  149 1    
   145   73  150 1    
   146   73  151 1    
   147   74   75 am   BACKBONE|DICT|INTERRES
   148   74  152 1    
   149   75   76 2    
   150   75   77 1    
   151   77   78 1    
   152   77   79 1    
   153   77  153 1    
   154   78  154 1    
   155   78  155 1    
   156   78  156 1    
   157   79   80 am   BACKBONE|DICT|INTERRES
   158   79  157 1    
   159   80   81 2    
@<TRIPOS>SUBSTRUCTURE
     1 UNK         1 GROUP             0       ****    0 ROOT    
