@<TRIPOS>MOLECULE
3R207
157   159    1
SMALL
USER_CHARGES


@<TRIPOS>ATOM
      1 CA        -49.3222  -29.0573   10.4209 C.3       0 UNK        -0.1975 
      2 C         -48.7991  -29.4540    9.0510 C.2       0 UNK         0.4852 
      3 O         -48.1403  -30.4862    8.9227 O.2       0 UNK        -0.5216 
      4 N         -49.0798  -28.6347    8.0305 N.am      1 UNK        -0.4461 
      5 CA        -48.5700  -28.8024    6.6648 C.3       1 UNK         0.0864 
      6 C6        -49.4318  -28.0312    5.6368 C.3       14 UNK        -0.0898 
      7 S7        -51.0642  -28.8167    5.4208 S.3       14 UNK        -0.2598 
      8 C8        -52.2173  -27.4088    5.5808 C.3       14 UNK         0.0286 
      9 C9        -52.6112  -27.0195    7.0079 C.ar      14 UNK        -0.0844 
     10 C10       -53.1091  -25.7316    7.2293 C.ar      14 UNK        -0.0881 
     11 C11       -53.5426  -25.3349    8.4975 C.ar      14 UNK        -0.0643 
     12 C12       -53.4802  -26.2422    9.5588 C.ar      14 UNK        -0.0930 
     13 C13       -52.9778  -27.5309    9.3608 C.ar      14 UNK        -0.0827 
     14 C14       -52.5522  -27.9160    8.0843 C.ar      14 UNK        -0.1249 
     15 C15       -52.8695  -28.4972   10.5315 C.3       14 UNK         0.0141 
     16 S16       -54.4913  -28.9554   11.2122 S.3       14 UNK        -0.2313 
     17 C17       -53.9822  -30.3084   12.3226 C.3       14 UNK        -0.0915 
     18 CA        -55.1100  -30.7594   13.2846 C.3       13 UNK         0.0968 
     19 C         -54.7482  -32.0956   14.0011 C.2       13 UNK         0.5732 
     20 N         -54.7768  -32.1908   15.3258 N.am      13 UNK        -0.7310 
     21 O         -54.4462  -33.0829   13.3345 O.2       13 UNK        -0.5035 
     22 N         -55.5071  -29.6775   14.1988 N.am      13 UNK        -0.4233 
     23 C         -56.7278  -29.5637   14.7383 C.2       13 UNK         0.4989 
     24 O         -57.6736  -30.2980   14.4448 O.2       13 UNK        -0.4996 
     25 CA        -56.9198  -28.4541   15.7922 C.3       12 UNK         0.0216 
     26 CB        -58.1880  -28.6534   16.6495 C.3       12 UNK        -0.1964 
     27 N         -55.7470  -28.2565   16.6536 N.am      12 UNK        -0.4276 
     28 C         -55.1336  -29.1719   17.4231 C.2       12 UNK         0.5020 
     29 O         -55.5028  -30.3441   17.5051 O.2       12 UNK        -0.5489 
     30 CA        -53.8786  -28.7348   18.2042 C.3       11 UNK         0.0294 
     31 CB        -52.7066  -29.6984   17.9410 C.3       11 UNK        -0.2019 
     32 N         -53.4565  -27.3790   17.8504 N.am      11 UNK        -0.4493 
     33 C         -53.7629  -26.2662   18.5322 C.2       11 UNK         0.4932 
     34 O         -54.3677  -26.2639   19.6041 O.2       11 UNK        -0.5029 
     35 CA        -53.3504  -24.9218   17.8987 C.3       10 UNK         0.0280 
     36 CB        -52.0374  -24.4182   18.5192 C.3       10 UNK        -0.1976 
     37 N         -53.2027  -24.9804   16.4399 N.am      10 UNK        -0.4242 
     38 C         -54.1946  -25.2425   15.5752 C.2       10 UNK         0.5072 
     39 O         -55.3686  -25.3947   15.9110 O.2       10 UNK        -0.5224 
     40 CA        -53.8002  -25.4593   14.1035 C.3       9 UNK         0.0343 
     41 CB        -53.9195  -24.1516   13.3110 C.3       9 UNK        -0.2003 
     42 N         -52.4563  -26.0334   13.9465 N.am      9 UNK        -0.4272 
     43 C         -52.1290  -27.2667   14.3665 C.2       9 UNK         0.4988 
     44 O         -52.9522  -28.0434   14.8556 O.2       9 UNK        -0.5108 
     45 CA        -50.6539  -27.6967   14.2769 C.3       8 UNK         0.0248 
     46 CB        -50.5045  -29.1729   13.8700 C.3       8 UNK        -0.2001 
     47 N         -49.8729  -26.8553   13.3632 N.am      8 UNK        -0.4140 
     48 C         -48.8294  -26.0940   13.7212 C.2       8 UNK         0.5028 
     49 O         -48.4093  -26.0048   14.8755 O.2       8 UNK        -0.5428 
     50 CA        -48.1267  -25.2861   12.6121 C.3       7 UNK         0.0264 
     51 CB        -46.8410  -25.9949   12.1582 C.3       7 UNK        -0.1988 
     52 N         -48.9548  -24.9972   11.4355 N.am      7 UNK        -0.4454 
     53 C         -50.0472  -24.2226   11.4320 C.2       7 UNK         0.5027 
     54 O         -50.5224  -23.7320   12.4577 O.2       7 UNK        -0.5083 
     55 CA        -50.7413  -23.9875   10.0722 C.3       6 UNK         0.0844 
     56 C56       -51.8564  -22.9112   10.1537 C.3       14 UNK        -0.0967 
     57 S57       -52.7586  -22.6739    8.5835 S.3       14 UNK        -0.2604 
     58 C58       -54.0768  -23.9256    8.7119 C.3       14 UNK         0.0134 
     59 N         -49.8157  -23.7068    8.9742 N.am      6 UNK        -0.4116 
     60 C         -49.0811  -24.5933    8.2975 C.2       5 UNK         0.5034 
     61 O         -48.9017  -25.7610    8.6535 O.2       5 UNK        -0.5045 
     62 CA        -48.4384  -24.0909    6.9975 C.3       5 UNK         0.0224 
     63 CB        -49.3760  -23.1937    6.1599 C.3       5 UNK        -0.1978 
     64 N         -47.1374  -23.4589    7.2279 N.am      5 UNK        -0.4737 
     65 C         -46.8558  -22.3468    7.9246 C.2       4 UNK         0.5027 
     66 O         -47.7160  -21.6292    8.4357 O.2       4 UNK        -0.5211 
     67 CA        -45.3682  -21.9765    8.1123 C.3       4 UNK         0.0297 
     68 CB        -45.0389  -21.8055    9.6062 C.3       4 UNK        -0.1993 
     69 N         -44.4541  -22.9740    7.5477 N.am      4 UNK        -0.4486 
     70 C         -44.0170  -23.0095    6.2805 C.2       3 UNK         0.4961 
     71 O         -44.2417  -22.1295    5.4500 O.2       3 UNK        -0.5105 
     72 CA        -43.2366  -24.2737    5.8601 C.3       3 UNK         0.0299 
     73 CB        -41.7256  -24.0614    6.0453 C.3       3 UNK        -0.1972 
     74 N         -43.6571  -25.4787    6.5913 N.am      3 UNK        -0.4305 
     75 C         -44.8924  -25.9985    6.5389 C.2       2 UNK         0.5006 
     76 O         -45.7643  -25.5819    5.7744 O.2       2 UNK        -0.5106 
     77 CA        -45.2255  -27.0871    7.5747 C.3       2 UNK         0.0296 
     78 CB        -45.0211  -26.5622    9.0082 C.3       2 UNK        -0.2002 
     79 N         -46.6116  -27.5443    7.4645 N.am      2 UNK        -0.4032 
     80 C         -47.0777  -28.4154    6.5589 C.2       1 UNK         0.5000 
     81 O         -46.3775  -28.9380    5.6890 O.2       1 UNK        -0.5238 
     82 H82       -49.9883  -29.8343   10.7923 H         1 UNK         0.0889 
     83 H83       -49.8669  -28.1145   10.3875 H         1 UNK         0.0889 
     84 H84       -48.4961  -28.9519   11.1235 H         1 UNK         0.0889 
     85 H85       -49.5915  -27.7772    8.2017 H         1 UNK         0.3028 
     86 H86       -48.6215  -29.8646    6.4141 H         1 UNK         0.0864 
     87 H87       -49.5518  -26.9892    5.9366 H         1 UNK         0.0720 
     88 H88       -48.9505  -28.0161    4.6568 H         1 UNK         0.0720 
     89 H89       -53.1321  -27.6669    5.0460 H         1 UNK         0.0814 
     90 H90       -51.7950  -26.5489    5.0581 H         1 UNK         0.0814 
     91 H91       -53.1685  -25.0293    6.4087 H         1 UNK         0.1469 
     92 H92       -53.8142  -25.9480   10.5434 H         1 UNK         0.1381 
     93 H93       -52.1831  -28.9204    7.9328 H         1 UNK         0.1206 
     94 H94       -52.2714  -28.0388   11.3186 H         1 UNK         0.0813 
     95 H95       -52.3482  -29.4055   10.2263 H         1 UNK         0.0813 
     96 H96       -53.6544  -31.1360   11.6908 H         1 UNK         0.0638 
     97 H97       -53.1118  -29.9945   12.8966 H         1 UNK         0.0638 
     98 H98       -55.9720  -31.0033   12.6609 H         1 UNK         0.0568 
     99 H99       -54.5432  -33.0725   15.7523 H         1 UNK         0.3450 
    100 H100      -55.0594  -31.4135   15.9138 H         1 UNK         0.3450 
    101 H101      -54.7641  -29.0561   14.4994 H         1 UNK         0.2987 
    102 H102      -57.0448  -27.5275   15.2301 H         1 UNK         0.0766 
    103 H103      -58.3131  -27.8416   17.3660 H         1 UNK         0.0798 
    104 H104      -59.0837  -28.6746   16.0276 H         1 UNK         0.0798 
    105 H105      -58.1555  -29.5906   17.2063 H         1 UNK         0.0798 
    106 H106      -55.3715  -27.3143   16.6398 H         1 UNK         0.3198 
    107 H107      -54.1270  -28.7837   19.2665 H         1 UNK         0.0843 
    108 H108      -52.9513  -30.7108   18.2652 H         1 UNK         0.0831 
    109 H109      -51.8124  -29.3947   18.4853 H         1 UNK         0.0831 
    110 H110      -52.4541  -29.7506   16.8814 H         1 UNK         0.0831 
    111 H111      -52.9888  -27.2905   16.9576 H         1 UNK         0.3133 
    112 H112      -54.1364  -24.1982   18.1248 H         1 UNK         0.0566 
    113 H113      -51.7733  -23.4293   18.1438 H         1 UNK         0.0814 
    114 H114      -52.1245  -24.3372   19.6038 H         1 UNK         0.0814 
    115 H115      -51.2054  -25.0919   18.3093 H         1 UNK         0.0814 
    116 H116      -52.2700  -24.8587   16.0728 H         1 UNK         0.3091 
    117 H117      -54.5171  -26.1691   13.6836 H         1 UNK         0.0702 
    118 H118      -53.8851  -24.3498   12.2426 H         1 UNK         0.0785 
    119 H119      -53.1249  -23.4470   13.5593 H         1 UNK         0.0785 
    120 H120      -54.8714  -23.6561   13.5084 H         1 UNK         0.0785 
    121 H121      -51.7348  -25.4236   13.5833 H         1 UNK         0.2998 
    122 H122      -50.2674  -27.6042   15.2937 H         1 UNK         0.0697 
    123 H123      -49.4579  -29.4779   13.8710 H         1 UNK         0.0825 
    124 H124      -50.9054  -29.3606   12.8767 H         1 UNK         0.0825 
    125 H125      -51.0294  -29.8307   14.5642 H         1 UNK         0.0825 
    126 H126      -50.1512  -26.8513   12.3938 H         1 UNK         0.3029 
    127 H127      -47.8447  -24.3285   13.0555 H         1 UNK         0.0897 
    128 H128      -46.2496  -25.3525   11.5065 H         1 UNK         0.0792 
    129 H129      -46.2102  -26.2498   13.0111 H         1 UNK         0.0792 
    130 H130      -47.0547  -26.9200   11.6223 H         1 UNK         0.0792 
    131 H131      -48.6553  -25.3801   10.5437 H         1 UNK         0.3086 
    132 H132      -51.2122  -24.9403    9.8417 H         1 UNK         0.0583 
    133 H133      -52.5776  -23.1488   10.9326 H         1 UNK         0.1020 
    134 H134      -51.4257  -21.9493   10.4388 H         1 UNK         0.1020 
    135 H135      -54.5784  -23.8356    9.6767 H         1 UNK         0.0694 
    136 H136      -54.8337  -23.7150    7.9551 H         1 UNK         0.0694 
    137 H137      -49.8030  -22.7512    8.6450 H         1 UNK         0.2989 
    138 H138      -48.2413  -24.9815    6.3999 H         1 UNK         0.1055 
    139 H139      -48.9491  -22.9968    5.1765 H         1 UNK         0.0806 
    140 H140      -49.5730  -22.2304    6.6302 H         1 UNK         0.0806 
    141 H141      -50.3398  -23.6799    6.0003 H         1 UNK         0.0806 
    142 H142      -46.3621  -23.9687    6.8184 H         1 UNK         0.3061 
    143 H143      -45.2080  -21.0176    7.6148 H         1 UNK         0.0734 
    144 H144      -45.6516  -21.0229   10.0561 H         1 UNK         0.0832 
    145 H145      -45.2198  -22.7225   10.1685 H         1 UNK         0.0832 
    146 H146      -43.9973  -21.5195    9.7535 H         1 UNK         0.0832 
    147 H147      -44.1947  -23.7363    8.1559 H         1 UNK         0.3156 
    148 H148      -43.4305  -24.4426    4.7987 H         1 UNK         0.0589 
    149 H149      -41.4625  -23.9060    7.0923 H         1 UNK         0.0808 
    150 H150      -41.1563  -24.9155    5.6779 H         1 UNK         0.0808 
    151 H151      -41.3849  -23.1856    5.4909 H         1 UNK         0.0808 
    152 H152      -42.9827  -25.8830    7.2258 H         1 UNK         0.3098 
    153 H153      -44.5579  -27.9346    7.4059 H         1 UNK         0.0720 
    154 H154      -45.2918  -27.3183    9.7455 H         1 UNK         0.0791 
    155 H155      -45.6281  -25.6764    9.1998 H         1 UNK         0.0791 
    156 H156      -43.9807  -26.2979    9.1997 H         1 UNK         0.0791 
    157 H157      -47.2814  -27.1245    8.0966 H         1 UNK         0.3028 
@<TRIPOS>BOND
     1    1    2 1    
     2    1   82 1    
     3    1   83 1    
     4    1   84 1    
     5    2    3 2    
     6    2    4 am   BACKBONE|DICT|INTERRES
     7    4    5 1    
     8    4   85 1    
     9    5    6 1    
    10    5   80 1    
    11    5   86 1    
    12    6    7 1    
    13    6   87 1    
    14    6   88 1    
    15    7    8 1    
    16    8    9 1    
    17    8   89 1    
    18    8   90 1    
    19    9   10 ar   
    20    9   14 ar   
    21   10   11 ar   
    22   10   91 1    
    23   11   12 ar   
    24   11   58 1    
    25   12   13 ar   
    26   12   92 1    
    27   13   14 ar   
    28   13   15 1    
    29   14   93 1    
    30   15   16 1    
    31   15   94 1    
    32   15   95 1    
    33   16   17 1    
    34   17   18 1    
    35   17   96 1    
    36   17   97 1    
    37   18   19 1    
    38   18   22 1    
    39   18   98 1    
    40   19   20 am   BACKBONE|DICT|INTERRES
    41   19   21 2    
    42   20   99 1    
    43   20  100 1    
    44   22   23 am   BACKBONE|DICT|INTERRES
    45   22  101 1    
    46   23   24 2    
    47   23   25 1    
    48   25   26 1    
    49   25   27 1    
    50   25  102 1    
    51   26  103 1    
    52   26  104 1    
    53   26  105 1    
    54   27   28 am   BACKBONE|DICT|INTERRES
    55   27  106 1    
    56   28   29 2    
    57   28   30 1    
    58   30   31 1    
    59   30   32 1    
    60   30  107 1    
    61   31  108 1    
    62   31  109 1    
    63   31  110 1    
    64   32   33 am   BACKBONE|DICT|INTERRES
    65   32  111 1    
    66   33   34 2    
    67   33   35 1    
    68   35   36 1    
    69   35   37 1    
    70   35  112 1    
    71   36  113 1    
    72   36  114 1    
    73   36  115 1    
    74   37   38 am   BACKBONE|DICT|INTERRES
    75   37  116 1    
    76   38   39 2    
    77   38   40 1    
    78   40   41 1    
    79   40   42 1    
    80   40  117 1    
    81   41  118 1    
    82   41  119 1    
    83   41  120 1    
    84   42   43 am   BACKBONE|DICT|INTERRES
    85   42  121 1    
    86   43   44 2    
    87   43   45 1    
    88   45   46 1    
    89   45   47 1    
    90   45  122 1    
    91   46  123 1    
    92   46  124 1    
    93   46  125 1    
    94   47   48 am   BACKBONE|DICT|INTERRES
    95   47  126 1    
    96   48   49 2    
    97   48   50 1    
    98   50   51 1    
    99   50   52 1    
   100   50  127 1    
   101   51  128 1    
   102   51  129 1    
   103   51  130 1    
   104   52   53 am   BACKBONE|DICT|INTERRES
   105   52  131 1    
   106   53   54 2    
   107   53   55 1    
   108   55   56 1    
   109   55   59 1    
   110   55  132 1    
   111   56   57 1    
   112   56  133 1    
   113   56  134 1    
   114   57   58 1    
   115   58  135 1    
   116   58  136 1    
   117   59   60 am   BACKBONE|DICT|INTERRES
   118   59  137 1    
   119   60   61 2    
   120   60   62 1    
   121   62   63 1    
   122   62   64 1    
   123   62  138 1    
   124   63  139 1    
   125   63  140 1    
   126   63  141 1    
   127   64   65 am   BACKBONE|DICT|INTERRES
   128   64  142 1    
   129   65   66 2    
   130   65   67 1    
   131   67   68 1    
   132   67   69 1    
   133   67  143 1    
   134   68  144 1    
   135   68  145 1    
   136   68  146 1    
   137   69   70 am   BACKBONE|DICT|INTERRES
   138   69  147 1    
   139   70   71 2    
   140   70   72 1    
   141   72   73 1    
   142   72   74 1    
   143   72  148 1    
   144   73  149 1    
   145   73  150 1    
   146   73  151 1    
   147   74   75 am   BACKBONE|DICT|INTERRES
   148   74  152 1    
   149   75   76 2    
   150   75   77 1    
   151   77   78 1    
   152   77   79 1    
   153   77  153 1    
   154   78  154 1    
   155   78  155 1    
   156   78  156 1    
   157   79   80 am   BACKBONE|DICT|INTERRES
   158   79  157 1    
   159   80   81 2    
@<TRIPOS>SUBSTRUCTURE
     1 UNK         1 GROUP             0       ****    0 ROOT    
