@<TRIPOS>MOLECULE
3R207
157   159    1
SMALL
USER_CHARGES


@<TRIPOS>ATOM
      1 CA        -45.1567  -31.8830    4.9345 C.3       0 UNK        -0.1975 
      2 C         -46.1803  -30.8351    4.5251 C.2       0 UNK         0.4852 
      3 O         -46.1672  -30.3758    3.3826 O.2       0 UNK        -0.5216 
      4 N         -47.0545  -30.4298    5.4550 N.am      1 UNK        -0.4461 
      5 CA        -48.1428  -29.4535    5.2870 C.3       1 UNK         0.0864 
      6 C6        -49.2466  -29.6657    6.3608 C.3       14 UNK        -0.0898 
      7 S7        -48.6225  -29.7551    8.0819 S.3       14 UNK        -0.2598 
      8 C8        -49.2891  -28.2351    8.8362 C.3       14 UNK         0.0286 
      9 C9        -50.8099  -28.2363    8.8997 C.ar      14 UNK        -0.0844 
     10 C10       -51.5500  -27.3683    8.0911 C.ar      14 UNK        -0.0881 
     11 C11       -52.9471  -27.3508    8.1599 C.ar      14 UNK        -0.0643 
     12 C12       -53.6015  -28.2222    9.0350 C.ar      14 UNK        -0.0930 
     13 C13       -52.8729  -29.0937    9.8498 C.ar      14 UNK        -0.0827 
     14 C14       -51.4772  -29.0948    9.7780 C.ar      14 UNK        -0.1249 
     15 C15       -53.5918  -30.0448   10.7962 C.3       14 UNK         0.0141 
     16 S16       -53.9234  -29.2733   12.4102 S.3       14 UNK        -0.2313 
     17 C17       -55.2746  -28.1192   11.9847 C.3       14 UNK        -0.0915 
     18 CA        -56.1903  -27.7345   13.1750 C.3       13 UNK         0.0968 
     19 C         -57.0284  -28.9361   13.6908 C.2       13 UNK         0.5732 
     20 N         -56.7021  -29.5424   14.8252 N.am      13 UNK        -0.7310 
     21 O         -58.0132  -29.3103   13.0579 O.2       13 UNK        -0.5035 
     22 N         -55.4421  -27.0355   14.2298 N.am      13 UNK        -0.4233 
     23 C         -55.6745  -25.7765   14.6268 C.2       13 UNK         0.4989 
     24 O         -56.5568  -25.0584   14.1504 O.2       13 UNK        -0.4996 
     25 CA        -54.7672  -25.2208   15.7440 C.3       12 UNK         0.0216 
     26 CB        -55.3120  -23.9266   16.3883 C.3       12 UNK        -0.1964 
     27 N         -54.4428  -26.2210   16.7655 N.am      12 UNK        -0.4276 
     28 C         -55.3021  -26.8784   17.5616 C.2       12 UNK         0.5020 
     29 O         -56.5101  -26.6395   17.6085 O.2       12 UNK        -0.5489 
     30 CA        -54.7214  -28.0020   18.4502 C.3       11 UNK         0.0294 
     31 CB        -55.7448  -29.1282   18.7110 C.3       11 UNK        -0.2019 
     32 N         -53.4556  -28.5698   17.9626 N.am      11 UNK        -0.4493 
     33 C         -53.2294  -29.1338   16.7675 C.2       11 UNK         0.4932 
     34 O         -54.0813  -29.2533   15.8857 O.2       11 UNK        -0.5029 
     35 CA        -51.7852  -29.5919   16.5017 C.3       10 UNK         0.0280 
     36 CB        -51.7519  -31.0919   16.1652 C.3       10 UNK        -0.1976 
     37 N         -51.1167  -28.8454   15.4287 N.am      10 UNK        -0.4242 
     38 C         -51.0912  -27.5145   15.2580 C.2       10 UNK         0.5072 
     39 O         -51.6975  -26.7142   15.9767 O.2       10 UNK        -0.5224 
     40 CA        -50.2235  -27.0128   14.0851 C.3       9 UNK         0.0343 
     41 CB        -50.7718  -27.4909   12.7312 C.3       9 UNK        -0.2003 
     42 N         -50.1164  -25.5560   14.0396 N.am      9 UNK        -0.4272 
     43 C         -49.4519  -24.7848   14.9105 C.2       9 UNK         0.4988 
     44 O         -48.7694  -25.2249   15.8372 O.2       9 UNK        -0.5108 
     45 CA        -49.5482  -23.2620   14.7089 C.3       8 UNK         0.0248 
     46 CB        -48.2715  -22.7262   14.0382 C.3       8 UNK        -0.2001 
     47 N         -50.7130  -22.8824   13.9024 N.am      8 UNK        -0.4140 
     48 C         -51.9261  -22.6045   14.4020 C.2       8 UNK         0.5028 
     49 O         -52.1749  -22.5757   15.6071 O.2       8 UNK        -0.5428 
     50 CA        -53.0579  -22.2843   13.4051 C.3       7 UNK         0.0264 
     51 CB        -53.2937  -20.7668   13.3334 C.3       7 UNK        -0.1988 
     52 N         -52.8177  -22.7937   12.0527 N.am      7 UNK        -0.4454 
     53 C         -52.9433  -24.0793   11.6899 C.2       7 UNK         0.5027 
     54 O         -53.3180  -24.9655   12.4542 O.2       7 UNK        -0.5083 
     55 CA        -52.5337  -24.4398   10.2440 C.3       6 UNK         0.0844 
     56 C56       -53.7613  -24.3904    9.2972 C.3       14 UNK        -0.0967 
     57 S57       -53.3251  -24.6544    7.5409 S.3       14 UNK        -0.2604 
     58 C58       -53.7554  -26.4056    7.2805 C.3       14 UNK         0.0134 
     59 N         -51.4083  -23.6320    9.7500 N.am      6 UNK        -0.4116 
     60 C         -50.1948  -23.5893   10.3118 C.2       5 UNK         0.5034 
     61 O         -49.9140  -24.1528   11.3716 O.2       5 UNK        -0.5045 
     62 CA        -49.1341  -22.7191    9.6209 C.3       5 UNK         0.0224 
     63 CB        -49.1715  -21.2883   10.1829 C.3       5 UNK        -0.1978 
     64 N         -47.8021  -23.2852    9.8395 N.am      5 UNK        -0.4737 
     65 C         -47.3497  -24.3743    9.2094 C.2       4 UNK         0.5027 
     66 O         -47.9236  -24.9051    8.2570 O.2       4 UNK        -0.5211 
     67 CA        -46.0620  -24.9909    9.7610 C.3       4 UNK         0.0297 
     68 CB        -46.3470  -25.7782   11.0556 C.3       4 UNK        -0.1993 
     69 N         -45.4962  -25.8808    8.7514 N.am      4 UNK        -0.4486 
     70 C         -44.2094  -26.2344    8.6652 C.2       3 UNK         0.4961 
     71 O         -43.3455  -25.8537    9.4565 O.2       3 UNK        -0.5105 
     72 CA        -43.7992  -27.1812    7.5212 C.3       3 UNK         0.0299 
     73 CB        -43.6405  -28.6165    8.0509 C.3       3 UNK        -0.1972 
     74 N         -44.7166  -27.2038    6.3793 N.am      3 UNK        -0.4305 
     75 C         -44.9305  -26.1973    5.5187 C.2       2 UNK         0.5006 
     76 O         -44.4009  -25.0902    5.6209 O.2       2 UNK        -0.5106 
     77 CA        -45.8666  -26.4746    4.3240 C.3       2 UNK         0.0296 
     78 CB        -45.0770  -26.4543    3.0041 C.3       2 UNK        -0.2002 
     79 N         -46.5718  -27.7563    4.4288 N.am      2 UNK        -0.4032 
     80 C         -47.6483  -27.9872    5.1905 C.2       1 UNK         0.5000 
     81 O         -48.2245  -27.0938    5.8094 O.2       1 UNK        -0.5238 
     82 H82       -45.2783  -32.1876    5.9739 H         1 UNK         0.0889 
     83 H83       -44.1477  -31.4902    4.8118 H         1 UNK         0.0889 
     84 H84       -45.2566  -32.7687    4.3077 H         1 UNK         0.0889 
     85 H85       -47.0021  -30.8269    6.3835 H         1 UNK         0.3028 
     86 H86       -48.6082  -29.6552    4.3196 H         1 UNK         0.0864 
     87 H87       -49.7512  -30.6124    6.1625 H         1 UNK         0.0720 
     88 H88       -50.0288  -28.9107    6.2739 H         1 UNK         0.0720 
     89 H89       -48.8915  -28.1414    9.8474 H         1 UNK         0.0814 
     90 H90       -48.9241  -27.3665    8.2891 H         1 UNK         0.0814 
     91 H91       -51.0385  -26.6983    7.4127 H         1 UNK         0.1469 
     92 H92       -54.6813  -28.2223    9.0840 H         1 UNK         0.1381 
     93 H93       -50.9063  -29.7667   10.4040 H         1 UNK         0.1206 
     94 H94       -52.9839  -30.9364   10.9562 H         1 UNK         0.0813 
     95 H95       -54.5253  -30.3932   10.3521 H         1 UNK         0.0813 
     96 H96       -54.8234  -27.2177   11.5671 H         1 UNK         0.0638 
     97 H97       -55.8764  -28.5514   11.1837 H         1 UNK         0.0638 
     98 H98       -56.9327  -27.0492   12.7627 H         1 UNK         0.0568 
     99 H99       -55.8258  -29.3258   15.2922 H         1 UNK         0.3450 
    100 H100      -57.2651  -30.3120   15.1475 H         1 UNK         0.3450 
    101 H101      -54.7299  -27.5856   14.6947 H         1 UNK         0.2987 
    102 H102      -53.8217  -24.9730   15.2595 H         1 UNK         0.0766 
    103 H103      -54.6211  -23.5390   17.1370 H         1 UNK         0.0798 
    104 H104      -55.4484  -23.1428   15.6431 H         1 UNK         0.0798 
    105 H105      -56.2774  -24.0855   16.8691 H         1 UNK         0.0798 
    106 H106      -53.4663  -26.5101   16.7682 H         1 UNK         0.3198 
    107 H107      -54.4954  -27.5332   19.4092 H         1 UNK         0.0843 
    108 H108      -56.6375  -28.7426   19.2049 H         1 UNK         0.0831 
    109 H109      -55.3294  -29.9011   19.3575 H         1 UNK         0.0831 
    110 H110      -56.0672  -29.6036   17.7843 H         1 UNK         0.0831 
    111 H111      -52.6726  -28.4833   18.5967 H         1 UNK         0.3133 
    112 H112      -51.1972  -29.4382   17.4085 H         1 UNK         0.0566 
    113 H113      -52.2729  -31.3048   15.2303 H         1 UNK         0.0814 
    114 H114      -52.2358  -31.6788   16.9473 H         1 UNK         0.0814 
    115 H115      -50.7297  -31.4591   16.0727 H         1 UNK         0.0814 
    116 H116      -50.6081  -29.4084   14.7634 H         1 UNK         0.3091 
    117 H117      -49.2180  -27.4174   14.2164 H         1 UNK         0.0702 
    118 H118      -50.7815  -28.5788   12.6640 H         1 UNK         0.0785 
    119 H119      -50.1647  -27.1234   11.9033 H         1 UNK         0.0785 
    120 H120      -51.7935  -27.1472   12.5679 H         1 UNK         0.0785 
    121 H121      -50.6101  -25.0990   13.2855 H         1 UNK         0.2998 
    122 H122      -49.6254  -22.8039   15.6972 H         1 UNK         0.0697 
    123 H123      -48.1081  -23.1750   13.0585 H         1 UNK         0.0825 
    124 H124      -47.3925  -22.9468   14.6453 H         1 UNK         0.0825 
    125 H125      -48.3133  -21.6444   13.9111 H         1 UNK         0.0825 
    126 H126      -50.5967  -22.9492   12.8987 H         1 UNK         0.3029 
    127 H127      -53.9681  -22.7511   13.7866 H         1 UNK         0.0897 
    128 H128      -54.1426  -20.5263   12.6931 H         1 UNK         0.0792 
    129 H129      -53.5113  -20.3593   14.3219 H         1 UNK         0.0792 
    130 H130      -52.4201  -20.2387   12.9489 H         1 UNK         0.0792 
    131 H131      -52.5113  -22.1256   11.3603 H         1 UNK         0.3086 
    132 H132      -52.1800  -25.4727   10.2740 H         1 UNK         0.0583 
    133 H133      -54.5040  -25.1310    9.6015 H         1 UNK         0.1020 
    134 H134      -54.2593  -23.4212    9.3664 H         1 UNK         0.1020 
    135 H135      -54.8262  -26.5337    7.4466 H         1 UNK         0.0694 
    136 H136      -53.5748  -26.6589    6.2351 H         1 UNK         0.0694 
    137 H137      -51.5679  -23.1500    8.8770 H         1 UNK         0.2989 
    138 H138      -49.3375  -22.6888    8.5477 H         1 UNK         0.1055 
    139 H139      -48.4225  -20.6562    9.7052 H         1 UNK         0.0806 
    140 H140      -48.9891  -21.2682   11.2582 H         1 UNK         0.0806 
    141 H141      -50.1424  -20.8228   10.0081 H         1 UNK         0.0806 
    142 H142      -47.2869  -22.9332   10.6330 H         1 UNK         0.3061 
    143 H143      -45.3570  -24.1825    9.9668 H         1 UNK         0.0734 
    144 H144      -46.7899  -25.1380   11.8197 H         1 UNK         0.0832 
    145 H145      -47.0430  -26.5993   10.8797 H         1 UNK         0.0832 
    146 H146      -45.4336  -26.1980   11.4770 H         1 UNK         0.0832 
    147 H147      -46.1531  -26.1700    8.0356 H         1 UNK         0.3156 
    148 H148      -42.8270  -26.8434    7.1564 H         1 UNK         0.0589 
    149 H149      -44.5878  -29.0210    8.4107 H         1 UNK         0.0808 
    150 H150      -43.2582  -29.2864    7.2804 H         1 UNK         0.0808 
    151 H151      -42.9360  -28.6501    8.8834 H         1 UNK         0.0808 
    152 H152      -45.2013  -28.0721    6.2115 H         1 UNK         0.3098 
    153 H153      -46.6034  -25.6690    4.2946 H         1 UNK         0.0720 
    154 H154      -45.7357  -26.5912    2.1461 H         1 UNK         0.0791 
    155 H155      -44.5648  -25.5008    2.8676 H         1 UNK         0.0791 
    156 H156      -44.3198  -27.2390    2.9747 H         1 UNK         0.0791 
    157 H157      -46.1894  -28.5466    3.9149 H         1 UNK         0.3028 
@<TRIPOS>BOND
     1    1    2 1    
     2    1   82 1    
     3    1   83 1    
     4    1   84 1    
     5    2    3 2    
     6    2    4 am   BACKBONE|DICT|INTERRES
     7    4    5 1    
     8    4   85 1    
     9    5    6 1    
    10    5   80 1    
    11    5   86 1    
    12    6    7 1    
    13    6   87 1    
    14    6   88 1    
    15    7    8 1    
    16    8    9 1    
    17    8   89 1    
    18    8   90 1    
    19    9   10 ar   
    20    9   14 ar   
    21   10   11 ar   
    22   10   91 1    
    23   11   12 ar   
    24   11   58 1    
    25   12   13 ar   
    26   12   92 1    
    27   13   14 ar   
    28   13   15 1    
    29   14   93 1    
    30   15   16 1    
    31   15   94 1    
    32   15   95 1    
    33   16   17 1    
    34   17   18 1    
    35   17   96 1    
    36   17   97 1    
    37   18   19 1    
    38   18   22 1    
    39   18   98 1    
    40   19   20 am   BACKBONE|DICT|INTERRES
    41   19   21 2    
    42   20   99 1    
    43   20  100 1    
    44   22   23 am   BACKBONE|DICT|INTERRES
    45   22  101 1    
    46   23   24 2    
    47   23   25 1    
    48   25   26 1    
    49   25   27 1    
    50   25  102 1    
    51   26  103 1    
    52   26  104 1    
    53   26  105 1    
    54   27   28 am   BACKBONE|DICT|INTERRES
    55   27  106 1    
    56   28   29 2    
    57   28   30 1    
    58   30   31 1    
    59   30   32 1    
    60   30  107 1    
    61   31  108 1    
    62   31  109 1    
    63   31  110 1    
    64   32   33 am   BACKBONE|DICT|INTERRES
    65   32  111 1    
    66   33   34 2    
    67   33   35 1    
    68   35   36 1    
    69   35   37 1    
    70   35  112 1    
    71   36  113 1    
    72   36  114 1    
    73   36  115 1    
    74   37   38 am   BACKBONE|DICT|INTERRES
    75   37  116 1    
    76   38   39 2    
    77   38   40 1    
    78   40   41 1    
    79   40   42 1    
    80   40  117 1    
    81   41  118 1    
    82   41  119 1    
    83   41  120 1    
    84   42   43 am   BACKBONE|DICT|INTERRES
    85   42  121 1    
    86   43   44 2    
    87   43   45 1    
    88   45   46 1    
    89   45   47 1    
    90   45  122 1    
    91   46  123 1    
    92   46  124 1    
    93   46  125 1    
    94   47   48 am   BACKBONE|DICT|INTERRES
    95   47  126 1    
    96   48   49 2    
    97   48   50 1    
    98   50   51 1    
    99   50   52 1    
   100   50  127 1    
   101   51  128 1    
   102   51  129 1    
   103   51  130 1    
   104   52   53 am   BACKBONE|DICT|INTERRES
   105   52  131 1    
   106   53   54 2    
   107   53   55 1    
   108   55   56 1    
   109   55   59 1    
   110   55  132 1    
   111   56   57 1    
   112   56  133 1    
   113   56  134 1    
   114   57   58 1    
   115   58  135 1    
   116   58  136 1    
   117   59   60 am   BACKBONE|DICT|INTERRES
   118   59  137 1    
   119   60   61 2    
   120   60   62 1    
   121   62   63 1    
   122   62   64 1    
   123   62  138 1    
   124   63  139 1    
   125   63  140 1    
   126   63  141 1    
   127   64   65 am   BACKBONE|DICT|INTERRES
   128   64  142 1    
   129   65   66 2    
   130   65   67 1    
   131   67   68 1    
   132   67   69 1    
   133   67  143 1    
   134   68  144 1    
   135   68  145 1    
   136   68  146 1    
   137   69   70 am   BACKBONE|DICT|INTERRES
   138   69  147 1    
   139   70   71 2    
   140   70   72 1    
   141   72   73 1    
   142   72   74 1    
   143   72  148 1    
   144   73  149 1    
   145   73  150 1    
   146   73  151 1    
   147   74   75 am   BACKBONE|DICT|INTERRES
   148   74  152 1    
   149   75   76 2    
   150   75   77 1    
   151   77   78 1    
   152   77   79 1    
   153   77  153 1    
   154   78  154 1    
   155   78  155 1    
   156   78  156 1    
   157   79   80 am   BACKBONE|DICT|INTERRES
   158   79  157 1    
   159   80   81 2    
@<TRIPOS>SUBSTRUCTURE
     1 UNK         1 GROUP             0       ****    0 ROOT    
