@<TRIPOS>MOLECULE
3R207
157   159    1
SMALL
USER_CHARGES


@<TRIPOS>ATOM
      1 CA        -44.1773  -30.1079    8.3010 C.3       0 UNK        -0.1975 
      2 C         -44.8265  -29.8191    6.9556 C.2       0 UNK         0.4852 
      3 O         -44.1440  -29.8396    5.9299 O.2       0 UNK        -0.5216 
      4 N         -46.1418  -29.5670    6.9518 N.am      1 UNK        -0.4461 
      5 CA        -46.9239  -29.2125    5.7640 C.3       1 UNK         0.0864 
      6 C6        -48.4416  -29.4383    5.9990 C.3       14 UNK        -0.0898 
      7 S7        -49.1817  -28.3964    7.3060 S.3       14 UNK        -0.2598 
      8 C8        -50.9448  -28.7264    7.0057 C.3       14 UNK         0.0286 
      9 C9        -51.8234  -28.0271    8.0309 C.ar      14 UNK        -0.0844 
     10 C10       -52.1266  -26.6707    7.8846 C.ar      14 UNK        -0.0881 
     11 C11       -52.9357  -26.0196    8.8195 C.ar      14 UNK        -0.0643 
     12 C12       -53.4523  -26.7394    9.9004 C.ar      14 UNK        -0.0930 
     13 C13       -53.1761  -28.1022   10.0476 C.ar      14 UNK        -0.0827 
     14 C14       -52.3520  -28.7380    9.1132 C.ar      14 UNK        -0.1249 
     15 C15       -53.7615  -28.8903   11.2122 C.3       14 UNK         0.0141 
     16 S16       -55.4611  -29.4480   10.8685 S.3       14 UNK        -0.2313 
     17 C17       -56.4346  -28.0103   11.4354 C.3       14 UNK        -0.0915 
     18 CA        -57.2893  -28.2297   12.7178 C.3       13 UNK         0.0968 
     19 C         -58.6589  -28.9440   12.4971 C.2       13 UNK         0.5732 
     20 N         -59.3369  -29.3776   13.5535 N.am      13 UNK        -0.7310 
     21 O         -59.1374  -29.0730   11.3723 O.2       13 UNK        -0.5035 
     22 N         -56.5001  -28.6507   13.8916 N.am      13 UNK        -0.4233 
     23 C         -56.2352  -29.9021   14.3070 C.2       13 UNK         0.4989 
     24 O         -56.5685  -30.9206   13.7007 O.2       13 UNK        -0.4996 
     25 CA        -55.4818  -30.0685   15.6440 C.3       12 UNK         0.0216 
     26 CB        -54.0594  -30.5954   15.3978 C.3       12 UNK        -0.1964 
     27 N         -55.4178  -28.8457   16.4526 N.am      12 UNK        -0.4276 
     28 C         -56.4807  -28.2499   17.0159 C.2       12 UNK         0.5020 
     29 O         -57.6139  -28.7331   16.9998 O.2       12 UNK        -0.5489 
     30 CA        -56.2741  -26.8689   17.6676 C.3       11 UNK         0.0294 
     31 CB        -56.2667  -26.9958   19.1997 C.3       11 UNK        -0.2019 
     32 N         -55.0638  -26.1581   17.2422 N.am      11 UNK        -0.4493 
     33 C         -54.7484  -25.7917   15.9909 C.2       11 UNK         0.4932 
     34 O         -55.4580  -26.0197   15.0095 O.2       11 UNK        -0.5029 
     35 CA        -53.3893  -25.0877   15.7999 C.3       10 UNK         0.0280 
     36 CB        -52.8448  -24.4280   17.0861 C.3       10 UNK        -0.1976 
     37 N         -52.3563  -25.9585   15.2271 N.am      10 UNK        -0.4242 
     38 C         -52.0267  -27.2060   15.6009 C.2       10 UNK         0.5072 
     39 O         -52.6291  -27.8605   16.4537 O.2       10 UNK        -0.5224 
     40 CA        -50.7870  -27.8206   14.9303 C.3       9 UNK         0.0343 
     41 CB        -51.0759  -28.2330   13.4785 C.3       9 UNK        -0.2003 
     42 N         -49.6333  -26.9230   14.9533 N.am      9 UNK        -0.4272 
     43 C         -48.9778  -26.5272   16.0541 C.2       9 UNK         0.4988 
     44 O         -49.2590  -26.8920   17.1960 O.2       9 UNK        -0.5108 
     45 CA        -47.8019  -25.5619   15.8415 C.3       8 UNK         0.0248 
     46 CB        -46.5370  -26.3249   15.4130 C.3       8 UNK        -0.2001 
     47 N         -48.1245  -24.5407   14.8443 N.am      8 UNK        -0.4140 
     48 C         -48.8168  -23.4237   15.1071 C.2       8 UNK         0.5028 
     49 O         -49.1864  -23.0957   16.2351 O.2       8 UNK        -0.5428 
     50 CA        -49.1565  -22.5092   13.9159 C.3       7 UNK         0.0264 
     51 CB        -48.0924  -21.4106   13.7613 C.3       7 UNK        -0.1988 
     52 N         -49.3031  -23.2195   12.6421 N.am      7 UNK        -0.4454 
     53 C         -50.2881  -24.0868   12.3641 C.2       7 UNK         0.5027 
     54 O         -51.1629  -24.4103   13.1686 O.2       7 UNK        -0.5083 
     55 CA        -50.2550  -24.7453   10.9678 C.3       6 UNK         0.0844 
     56 C56       -50.8264  -23.8010    9.8792 C.3       14 UNK        -0.0967 
     57 S57       -52.6254  -23.5318   10.0264 S.3       14 UNK        -0.2604 
     58 C58       -53.2669  -24.5428    8.6543 C.3       14 UNK         0.0134 
     59 N         -48.9228  -25.2373   10.5939 N.am      6 UNK        -0.4116 
     60 C         -48.1345  -26.0441   11.3213 C.2       5 UNK         0.5034 
     61 O         -48.4211  -26.4433   12.4487 O.2       5 UNK        -0.5045 
     62 CA        -46.7901  -26.4772   10.7108 C.3       5 UNK         0.0224 
     63 CB        -46.7775  -27.9911   10.4510 C.3       5 UNK        -0.1978 
     64 N         -46.4554  -25.7711    9.4709 N.am      5 UNK        -0.4737 
     65 C         -45.9621  -24.5259    9.4187 C.2       4 UNK         0.5027 
     66 O         -45.7137  -23.8455   10.4135 O.2       4 UNK        -0.5211 
     67 CA        -45.7552  -23.9323    8.0187 C.3       4 UNK         0.0297 
     68 CB        -44.3859  -24.3402    7.4519 C.3       4 UNK        -0.1993 
     69 N         -46.8135  -24.3542    7.0989 N.am      4 UNK        -0.4486 
     70 C         -48.0479  -23.8293    7.0737 C.2       3 UNK         0.4961 
     71 O         -48.4038  -22.9228    7.8265 O.2       3 UNK        -0.5105 
     72 CA        -49.0780  -24.4345    6.0939 C.3       3 UNK         0.0299 
     73 CB        -49.9964  -23.3661    5.4665 C.3       3 UNK        -0.1972 
     74 N         -48.4962  -25.3098    5.0701 N.am      3 UNK        -0.4305 
     75 C         -47.6072  -24.9897    4.1159 C.2       2 UNK         0.5006 
     76 O         -47.2734  -23.8340    3.8515 O.2       2 UNK        -0.5106 
     77 CA        -46.9423  -26.1656    3.3620 C.3       2 UNK         0.0296 
     78 CB        -45.4683  -25.8629    3.0168 C.3       2 UNK        -0.2002 
     79 N         -47.0418  -27.4697    4.0434 N.am      2 UNK        -0.4032 
     80 C         -46.6227  -27.7762    5.2832 C.2       1 UNK         0.5000 
     81 O         -46.1033  -26.9600    6.0518 O.2       1 UNK        -0.5238 
     82 H82       -43.4741  -30.9355    8.2110 H         1 UNK         0.0889 
     83 H83       -44.9150  -30.3782    9.0562 H         1 UNK         0.0889 
     84 H84       -43.6309  -29.2319    8.6493 H         1 UNK         0.0889 
     85 H85       -46.6507  -29.5396    7.8230 H         1 UNK         0.3028 
     86 H86       -46.6133  -29.8850    4.9611 H         1 UNK         0.0864 
     87 H87       -48.9949  -29.2817    5.0713 H         1 UNK         0.0720 
     88 H88       -48.6147  -30.4825    6.2647 H         1 UNK         0.0720 
     89 H89       -51.1195  -29.8033    7.0290 H         1 UNK         0.0814 
     90 H90       -51.2129  -28.3925    6.0021 H         1 UNK         0.0814 
     91 H91       -51.7344  -26.1250    7.0386 H         1 UNK         0.1469 
     92 H92       -54.0693  -26.2270   10.6234 H         1 UNK         0.1381 
     93 H93       -52.1286  -29.7904    9.2238 H         1 UNK         0.1206 
     94 H94       -53.1453  -29.7674   11.4148 H         1 UNK         0.0813 
     95 H95       -53.7457  -28.2916   12.1238 H         1 UNK         0.0813 
     96 H96       -55.7598  -27.1786   11.6281 H         1 UNK         0.0638 
     97 H97       -57.0578  -27.6745   10.6052 H         1 UNK         0.0638 
     98 H98       -57.6142  -27.2265   12.9967 H         1 UNK         0.0568 
     99 H99       -58.9591  -29.2730   14.4828 H         1 UNK         0.3450 
    100 H100      -60.2272  -29.8292   13.4169 H         1 UNK         0.3450 
    101 H101      -56.1616  -27.8833   14.4613 H         1 UNK         0.2987 
    102 H102      -56.0231  -30.8184   16.2246 H         1 UNK         0.0766 
    103 H103      -53.5213  -30.7475   16.3337 H         1 UNK         0.0798 
    104 H104      -53.4813  -29.9057   14.7854 H         1 UNK         0.0798 
    105 H105      -54.0813  -31.5531   14.8760 H         1 UNK         0.0798 
    106 H106      -54.5087  -28.3923   16.5225 H         1 UNK         0.3198 
    107 H107      -57.1280  -26.2524   17.3790 H         1 UNK         0.0843 
    108 H108      -55.4154  -27.5799   19.5517 H         1 UNK         0.0831 
    109 H109      -57.1709  -27.4924   19.5551 H         1 UNK         0.0831 
    110 H110      -56.2280  -26.0183   19.6808 H         1 UNK         0.0831 
    111 H111      -54.3867  -25.9604   17.9648 H         1 UNK         0.3133 
    112 H112      -53.5585  -24.2943   15.0704 H         1 UNK         0.0566 
    113 H113      -51.9714  -23.8139   16.8640 H         1 UNK         0.0814 
    114 H114      -53.5869  -23.7712   17.5424 H         1 UNK         0.0814 
    115 H115      -52.5397  -25.1634   17.8316 H         1 UNK         0.0814 
    116 H116      -51.8137  -25.5258   14.4808 H         1 UNK         0.3091 
    117 H117      -50.5163  -28.7188   15.4892 H         1 UNK         0.0702 
    118 H118      -51.8592  -28.9874   13.4390 H         1 UNK         0.0785 
    119 H119      -51.3945  -27.3866   12.8685 H         1 UNK         0.0785 
    120 H120      -50.1936  -28.6661   13.0067 H         1 UNK         0.0785 
    121 H121      -49.2823  -26.6189   14.0477 H         1 UNK         0.2998 
    122 H122      -47.5907  -25.0735   16.7955 H         1 UNK         0.0697 
    123 H123      -46.6749  -26.8492   14.4669 H         1 UNK         0.0825 
    124 H124      -46.2629  -27.0710   16.1600 H         1 UNK         0.0825 
    125 H125      -45.6869  -25.6515   15.3019 H         1 UNK         0.0825 
    126 H126      -47.9042  -24.7591   13.8823 H         1 UNK         0.3029 
    127 H127      -50.1122  -22.0301   14.1406 H         1 UNK         0.0897 
    128 H128      -47.1162  -21.8257   13.5066 H         1 UNK         0.0792 
    129 H129      -47.9753  -20.8477   14.6886 H         1 UNK         0.0792 
    130 H130      -48.3679  -20.6967   12.9847 H         1 UNK         0.0792 
    131 H131      -48.6115  -23.0283   11.9307 H         1 UNK         0.3086 
    132 H132      -50.8914  -25.6312   11.0166 H         1 UNK         0.0583 
    133 H133      -50.3241  -22.8316    9.8956 H         1 UNK         0.1020 
    134 H134      -50.6270  -24.2117    8.8894 H         1 UNK         0.1020 
    135 H135      -54.3504  -24.4256    8.6075 H         1 UNK         0.0694 
    136 H136      -52.8755  -24.1550    7.7123 H         1 UNK         0.0694 
    137 H137      -48.5750  -24.9450    9.6935 H         1 UNK         0.2989 
    138 H138      -46.0206  -26.2576   11.4546 H         1 UNK         0.1055 
    139 H139      -46.9637  -28.5469   11.3713 H         1 UNK         0.0806 
    140 H140      -45.8101  -28.3155   10.0699 H         1 UNK         0.0806 
    141 H141      -47.5441  -28.2855    9.7353 H         1 UNK         0.0806 
    142 H142      -46.6165  -26.2612    8.6008 H         1 UNK         0.3061 
    143 H143      -45.7771  -22.8436    8.1052 H         1 UNK         0.0734 
    144 H144      -44.2199  -23.9055    6.4660 H         1 UNK         0.0832 
    145 H145      -43.5788  -23.9948    8.0993 H         1 UNK         0.0832 
    146 H146      -44.2889  -25.4228    7.3604 H         1 UNK         0.0832 
    147 H147      -46.6004  -25.1491    6.5008 H         1 UNK         0.3156 
    148 H148      -49.7037  -25.0844    6.7048 H         1 UNK         0.0589 
    149 H149      -49.4306  -22.6313    4.8933 H         1 UNK         0.0808 
    150 H150      -50.7331  -23.8167    4.8015 H         1 UNK         0.0808 
    151 H151      -50.5471  -22.8221    6.2351 H         1 UNK         0.0808 
    152 H152      -48.6912  -26.2931    5.1937 H         1 UNK         0.3098 
    153 H153      -47.4897  -26.2672    2.4238 H         1 UNK         0.0720 
    154 H154      -45.0120  -26.6865    2.4678 H         1 UNK         0.0791 
    155 H155      -44.8723  -25.6870    3.9132 H         1 UNK         0.0791 
    156 H156      -45.3834  -24.9741    2.3902 H         1 UNK         0.0791 
    157 H157      -47.4826  -28.1999    3.5002 H         1 UNK         0.3028 
@<TRIPOS>BOND
     1    1    2 1    
     2    1   82 1    
     3    1   83 1    
     4    1   84 1    
     5    2    3 2    
     6    2    4 am   BACKBONE|DICT|INTERRES
     7    4    5 1    
     8    4   85 1    
     9    5    6 1    
    10    5   80 1    
    11    5   86 1    
    12    6    7 1    
    13    6   87 1    
    14    6   88 1    
    15    7    8 1    
    16    8    9 1    
    17    8   89 1    
    18    8   90 1    
    19    9   10 ar   
    20    9   14 ar   
    21   10   11 ar   
    22   10   91 1    
    23   11   12 ar   
    24   11   58 1    
    25   12   13 ar   
    26   12   92 1    
    27   13   14 ar   
    28   13   15 1    
    29   14   93 1    
    30   15   16 1    
    31   15   94 1    
    32   15   95 1    
    33   16   17 1    
    34   17   18 1    
    35   17   96 1    
    36   17   97 1    
    37   18   19 1    
    38   18   22 1    
    39   18   98 1    
    40   19   20 am   BACKBONE|DICT|INTERRES
    41   19   21 2    
    42   20   99 1    
    43   20  100 1    
    44   22   23 am   BACKBONE|DICT|INTERRES
    45   22  101 1    
    46   23   24 2    
    47   23   25 1    
    48   25   26 1    
    49   25   27 1    
    50   25  102 1    
    51   26  103 1    
    52   26  104 1    
    53   26  105 1    
    54   27   28 am   BACKBONE|DICT|INTERRES
    55   27  106 1    
    56   28   29 2    
    57   28   30 1    
    58   30   31 1    
    59   30   32 1    
    60   30  107 1    
    61   31  108 1    
    62   31  109 1    
    63   31  110 1    
    64   32   33 am   BACKBONE|DICT|INTERRES
    65   32  111 1    
    66   33   34 2    
    67   33   35 1    
    68   35   36 1    
    69   35   37 1    
    70   35  112 1    
    71   36  113 1    
    72   36  114 1    
    73   36  115 1    
    74   37   38 am   BACKBONE|DICT|INTERRES
    75   37  116 1    
    76   38   39 2    
    77   38   40 1    
    78   40   41 1    
    79   40   42 1    
    80   40  117 1    
    81   41  118 1    
    82   41  119 1    
    83   41  120 1    
    84   42   43 am   BACKBONE|DICT|INTERRES
    85   42  121 1    
    86   43   44 2    
    87   43   45 1    
    88   45   46 1    
    89   45   47 1    
    90   45  122 1    
    91   46  123 1    
    92   46  124 1    
    93   46  125 1    
    94   47   48 am   BACKBONE|DICT|INTERRES
    95   47  126 1    
    96   48   49 2    
    97   48   50 1    
    98   50   51 1    
    99   50   52 1    
   100   50  127 1    
   101   51  128 1    
   102   51  129 1    
   103   51  130 1    
   104   52   53 am   BACKBONE|DICT|INTERRES
   105   52  131 1    
   106   53   54 2    
   107   53   55 1    
   108   55   56 1    
   109   55   59 1    
   110   55  132 1    
   111   56   57 1    
   112   56  133 1    
   113   56  134 1    
   114   57   58 1    
   115   58  135 1    
   116   58  136 1    
   117   59   60 am   BACKBONE|DICT|INTERRES
   118   59  137 1    
   119   60   61 2    
   120   60   62 1    
   121   62   63 1    
   122   62   64 1    
   123   62  138 1    
   124   63  139 1    
   125   63  140 1    
   126   63  141 1    
   127   64   65 am   BACKBONE|DICT|INTERRES
   128   64  142 1    
   129   65   66 2    
   130   65   67 1    
   131   67   68 1    
   132   67   69 1    
   133   67  143 1    
   134   68  144 1    
   135   68  145 1    
   136   68  146 1    
   137   69   70 am   BACKBONE|DICT|INTERRES
   138   69  147 1    
   139   70   71 2    
   140   70   72 1    
   141   72   73 1    
   142   72   74 1    
   143   72  148 1    
   144   73  149 1    
   145   73  150 1    
   146   73  151 1    
   147   74   75 am   BACKBONE|DICT|INTERRES
   148   74  152 1    
   149   75   76 2    
   150   75   77 1    
   151   77   78 1    
   152   77   79 1    
   153   77  153 1    
   154   78  154 1    
   155   78  155 1    
   156   78  156 1    
   157   79   80 am   BACKBONE|DICT|INTERRES
   158   79  157 1    
   159   80   81 2    
@<TRIPOS>SUBSTRUCTURE
     1 UNK         1 GROUP             0       ****    0 ROOT    
