@<TRIPOS>MOLECULE
3R207
157   159    1
SMALL
USER_CHARGES


@<TRIPOS>ATOM
      1 CA        -50.0898  -31.4033    6.4381 C.3       0 UNK        -0.1975 
      2 C         -50.2854  -30.3404    5.3676 C.2       0 UNK         0.4852 
      3 O         -49.9879  -30.5838    4.1979 O.2       0 UNK        -0.5216 
      4 N         -50.7879  -29.1639    5.7632 N.am      1 UNK        -0.4461 
      5 CA        -51.0907  -28.0224    4.8885 C.3       1 UNK         0.0864 
      6 C6        -51.8941  -26.9105    5.6168 C.3       14 UNK        -0.0898 
      7 S7        -53.2742  -27.5113    6.6496 S.3       14 UNK        -0.2598 
      8 C8        -52.6902  -27.0563    8.3156 C.3       14 UNK         0.0286 
      9 C9        -51.6913  -28.0652    8.8673 C.ar      14 UNK        -0.0844 
     10 C10       -50.3213  -27.9435    8.6066 C.ar      14 UNK        -0.0881 
     11 C11       -49.4229  -28.8976    9.0943 C.ar      14 UNK        -0.0643 
     12 C12       -49.8961  -29.9391    9.8965 C.ar      14 UNK        -0.0930 
     13 C13       -51.2548  -30.0543   10.2004 C.ar      14 UNK        -0.0827 
     14 C14       -52.1491  -29.1223    9.6583 C.ar      14 UNK        -0.1249 
     15 C15       -51.6941  -31.2145   11.0970 C.3       14 UNK         0.0141 
     16 S16       -53.3957  -31.1349   11.7562 S.3       14 UNK        -0.2313 
     17 C17       -53.3098  -29.6998   12.8823 C.3       14 UNK        -0.0915 
     18 CA        -54.5852  -28.8211   12.7980 C.3       13 UNK         0.0968 
     19 C         -55.7964  -29.4893   13.5070 C.2       13 UNK         0.5732 
     20 N         -56.7145  -30.0814   12.7561 N.am      13 UNK        -0.7310 
     21 O         -55.8922  -29.4953   14.7346 O.2       13 UNK        -0.5035 
     22 N         -54.3441  -27.5003   13.3794 N.am      13 UNK        -0.4233 
     23 C         -55.0949  -26.4183   13.1464 C.2       13 UNK         0.4989 
     24 O         -55.9015  -26.3200   12.2192 O.2       13 UNK        -0.4996 
     25 CA        -54.9648  -25.3045   14.2001 C.3       12 UNK         0.0216 
     26 CB        -55.7111  -24.0039   13.8327 C.3       12 UNK        -0.1964 
     27 N         -55.3673  -25.8192   15.5156 N.am      12 UNK        -0.4276 
     28 C         -56.5816  -26.2561   15.8884 C.2       12 UNK         0.5020 
     29 O         -57.6050  -26.1140   15.2172 O.2       12 UNK        -0.5489 
     30 CA        -56.6500  -27.0122   17.2278 C.3       11 UNK         0.0294 
     31 CB        -57.9436  -27.8355   17.3775 C.3       11 UNK        -0.2019 
     32 N         -55.5027  -27.9141   17.3506 N.am      11 UNK        -0.4493 
     33 C         -54.4904  -27.7582   18.2127 C.2       11 UNK         0.4932 
     34 O         -54.4349  -26.8504   19.0431 O.2       11 UNK        -0.5029 
     35 CA        -53.3158  -28.7535   18.1332 C.3       10 UNK         0.0280 
     36 CB        -53.5960  -30.0122   17.2812 C.3       10 UNK        -0.1976 
     37 N         -52.0858  -28.0852   17.6902 N.am      10 UNK        -0.4242 
     38 C         -51.9081  -27.4255   16.5367 C.2       10 UNK         0.5072 
     39 O         -52.7647  -27.3398   15.6538 O.2       10 UNK        -0.5224 
     40 CA        -50.5320  -26.7741   16.3285 C.3       9 UNK         0.0343 
     41 CB        -49.5033  -27.8211   15.8713 C.3       9 UNK        -0.2003 
     42 N         -50.5960  -25.6969   15.3374 N.am      9 UNK        -0.4272 
     43 C         -51.1170  -24.4827   15.5738 C.2       9 UNK         0.4988 
     44 O         -51.5666  -24.1445   16.6698 O.2       9 UNK        -0.5108 
     45 CA        -51.1416  -23.4586   14.4230 C.3       8 UNK         0.0248 
     46 CB        -50.2833  -22.2301   14.7727 C.3       8 UNK        -0.2001 
     47 N         -50.6574  -24.0240   13.1629 N.am      8 UNK        -0.4140 
     48 C         -51.4333  -24.3824   12.1300 C.2       8 UNK         0.5028 
     49 O         -52.6500  -24.2048   12.0972 O.2       8 UNK        -0.5428 
     50 CA        -50.7569  -25.0531   10.9200 C.3       7 UNK         0.0264 
     51 CB        -50.6896  -24.0852    9.7275 C.3       7 UNK        -0.1988 
     52 N         -49.4138  -25.5659   11.1911 N.am      7 UNK        -0.4454 
     53 C         -49.1397  -26.5961   12.0072 C.2       7 UNK         0.5027 
     54 O         -50.0036  -27.2288   12.6126 O.2       7 UNK        -0.5083 
     55 CA        -47.6490  -26.9216   12.2605 C.3       6 UNK         0.0844 
     56 C56       -47.1314  -28.0328   11.3150 C.3       14 UNK        -0.0967 
     57 S57       -47.0394  -27.5142    9.5616 S.3       14 UNK        -0.2604 
     58 C58       -47.9488  -28.8428    8.7171 C.3       14 UNK         0.0134 
     59 N         -46.7848  -25.7379   12.2177 N.am      6 UNK        -0.4116 
     60 C         -46.9397  -24.6190   12.9379 C.2       5 UNK         0.5034 
     61 O         -47.7804  -24.4928   13.8281 O.2       5 UNK        -0.5045 
     62 CA        -46.0556  -23.4132   12.5679 C.3       5 UNK         0.0224 
     63 CB        -44.9347  -23.2372   13.6049 C.3       5 UNK        -0.1978 
     64 N         -45.4644  -23.4516   11.2208 N.am      5 UNK        -0.4737 
     65 C         -46.1363  -23.5460   10.0641 C.2       4 UNK         0.5027 
     66 O         -47.3595  -23.6898    9.9899 O.2       4 UNK        -0.5211 
     67 CA        -45.2880  -23.4980    8.7873 C.3       4 UNK         0.0297 
     68 CB        -44.3733  -24.7317    8.6612 C.3       4 UNK        -0.1993 
     69 N         -46.1669  -23.4247    7.6248 N.am      4 UNK        -0.4486 
     70 C         -45.8676  -22.8538    6.4554 C.2       3 UNK         0.4961 
     71 O         -44.7846  -22.3181    6.2112 O.2       3 UNK        -0.5105 
     72 CA        -46.9500  -22.9386    5.3645 C.3       3 UNK         0.0299 
     73 CB        -46.7089  -21.9435    4.2138 C.3       3 UNK        -0.1972 
     74 N         -47.0076  -24.2950    4.8177 N.am      3 UNK        -0.4305 
     75 C         -47.6528  -25.3193    5.3871 C.2       2 UNK         0.5006 
     76 O         -48.3168  -25.2226    6.4234 O.2       2 UNK        -0.5106 
     77 CA        -47.4962  -26.6884    4.7060 C.3       2 UNK         0.0296 
     78 CB        -46.2628  -27.4213    5.2602 C.3       2 UNK        -0.2002 
     79 N         -48.6898  -27.4957    4.9498 N.am      2 UNK        -0.4032 
     80 C         -49.8344  -27.3792    4.2622 C.2       1 UNK         0.5000 
     81 O         -49.9384  -26.7509    3.2065 O.2       1 UNK        -0.5238 
     82 H82       -49.0377  -31.4731    6.7123 H         1 UNK         0.0889 
     83 H83       -50.6652  -31.1801    7.3364 H         1 UNK         0.0889 
     84 H84       -50.4128  -32.3761    6.0684 H         1 UNK         0.0889 
     85 H85       -51.0493  -29.0385    6.7333 H         1 UNK         0.3028 
     86 H86       -51.7035  -28.4022    4.0682 H         1 UNK         0.0864 
     87 H87       -52.3172  -26.2253    4.8796 H         1 UNK         0.0720 
     88 H88       -51.2358  -26.2947    6.2326 H         1 UNK         0.0720 
     89 H89       -53.5533  -26.9926    8.9804 H         1 UNK         0.0814 
     90 H90       -52.2584  -26.0556    8.2987 H         1 UNK         0.0814 
     91 H91       -49.9507  -27.1212    8.0093 H         1 UNK         0.1469 
     92 H92       -49.2020  -30.6736   10.2816 H         1 UNK         0.1381 
     93 H93       -53.2083  -29.2044    9.8525 H         1 UNK         0.1206 
     94 H94       -51.0083  -31.2971   11.9418 H         1 UNK         0.0813 
     95 H95       -51.5956  -32.1402   10.5288 H         1 UNK         0.0813 
     96 H96       -52.4355  -29.1026   12.6164 H         1 UNK         0.0638 
     97 H97       -53.1306  -30.0508   13.8997 H         1 UNK         0.0638 
     98 H98       -54.8292  -28.6743   11.7440 H         1 UNK         0.0568 
     99 H99       -56.6325  -30.1000   11.7519 H         1 UNK         0.3450 
    100 H100      -57.4982  -30.5276   13.2051 H         1 UNK         0.3450 
    101 H101      -53.7330  -27.4884   14.1961 H         1 UNK         0.2987 
    102 H102      -53.9041  -25.0649   14.2777 H         1 UNK         0.0766 
    103 H103      -56.7789  -24.1665   13.6861 H         1 UNK         0.0798 
    104 H104      -55.3185  -23.5887   12.9037 H         1 UNK         0.0798 
    105 H105      -55.5882  -23.2453   14.6053 H         1 UNK         0.0798 
    106 H106      -54.5941  -26.0569   16.1250 H         1 UNK         0.3198 
    107 H107      -56.6392  -26.2571   18.0166 H         1 UNK         0.0843 
    108 H108      -58.0418  -28.5756   16.5820 H         1 UNK         0.0831 
    109 H109      -58.8247  -27.1936   17.3392 H         1 UNK         0.0831 
    110 H110      -57.9699  -28.3624   18.3313 H         1 UNK         0.0831 
    111 H111      -55.4442  -28.6423   16.6446 H         1 UNK         0.3133 
    112 H112      -53.1354  -29.0883   19.1558 H         1 UNK         0.0566 
    113 H113      -54.5009  -30.5228   17.6134 H         1 UNK         0.0814 
    114 H114      -53.7157  -29.7793   16.2242 H         1 UNK         0.0814 
    115 H115      -52.7780  -30.7276   17.3646 H         1 UNK         0.0814 
    116 H116      -51.3307  -28.0800   18.3619 H         1 UNK         0.3091 
    117 H117      -50.1983  -26.3494   17.2778 H         1 UNK         0.0702 
    118 H118      -48.5364  -27.3634   15.6615 H         1 UNK         0.0785 
    119 H119      -49.8320  -28.3446   14.9729 H         1 UNK         0.0785 
    120 H120      -49.3434  -28.5756   16.6423 H         1 UNK         0.0785 
    121 H121      -50.3245  -25.9419   14.3941 H         1 UNK         0.2998 
    122 H122      -52.1756  -23.1251   14.3149 H         1 UNK         0.0697 
    123 H123      -49.2406  -22.4997   14.9442 H         1 UNK         0.0825 
    124 H124      -50.6464  -21.7438   15.6791 H         1 UNK         0.0825 
    125 H125      -50.3111  -21.4872   13.9754 H         1 UNK         0.0825 
    126 H126      -49.6609  -24.2114   13.1204 H         1 UNK         0.3029 
    127 H127      -51.3836  -25.9029   10.6468 H         1 UNK         0.0897 
    128 H128      -50.0923  -23.2030    9.9609 H         1 UNK         0.0792 
    129 H129      -51.6854  -23.7402    9.4465 H         1 UNK         0.0792 
    130 H130      -50.2495  -24.5621    8.8508 H         1 UNK         0.0792 
    131 H131      -48.6440  -25.0770   10.7419 H         1 UNK         0.3086 
    132 H132      -47.5878  -27.3065   13.2803 H         1 UNK         0.0583 
    133 H133      -46.1311  -28.3388   11.6253 H         1 UNK         0.1020 
    134 H134      -47.7463  -28.9277   11.4174 H         1 UNK         0.1020 
    135 H135      -47.4587  -29.7950    8.9268 H         1 UNK         0.0694 
    136 H136      -47.8660  -28.6959    7.6411 H         1 UNK         0.0694 
    137 H137      -46.0885  -25.7318   11.4872 H         1 UNK         0.2989 
    138 H138      -46.7013  -22.5333   12.6101 H         1 UNK         0.1055 
    139 H139      -45.3421  -23.1763   14.6154 H         1 UNK         0.0806 
    140 H140      -44.3720  -22.3196   13.4315 H         1 UNK         0.0806 
    141 H141      -44.2330  -24.0721   13.5868 H         1 UNK         0.0806 
    142 H142      -44.4602  -23.3468   11.1776 H         1 UNK         0.3061 
    143 H143      -44.6762  -22.5946    8.8354 H         1 UNK         0.0734 
    144 H144      -43.7389  -24.6626    7.7774 H         1 UNK         0.0832 
    145 H145      -43.7109  -24.8329    9.5213 H         1 UNK         0.0832 
    146 H146      -44.9505  -25.6526    8.5803 H         1 UNK         0.0832 
    147 H147      -47.0847  -23.8399    7.7570 H         1 UNK         0.3156 
    148 H148      -47.9100  -22.6894    5.8224 H         1 UNK         0.0589 
    149 H149      -45.7749  -22.1459    3.6879 H         1 UNK         0.0808 
    150 H150      -47.5181  -21.9785    3.4842 H         1 UNK         0.0808 
    151 H151      -46.6566  -20.9205    4.5889 H         1 UNK         0.0808 
    152 H152      -46.4509  -24.4689    3.9928 H         1 UNK         0.3098 
    153 H153      -47.3694  -26.5477    3.6303 H         1 UNK         0.0720 
    154 H154      -46.1795  -28.4283    4.8508 H         1 UNK         0.0791 
    155 H155      -46.2892  -27.4993    6.3476 H         1 UNK         0.0791 
    156 H156      -45.3465  -26.8898    5.0003 H         1 UNK         0.0791 
    157 H157      -48.7184  -28.0031    5.8199 H         1 UNK         0.3028 
@<TRIPOS>BOND
     1    1    2 1    
     2    1   82 1    
     3    1   83 1    
     4    1   84 1    
     5    2    3 2    
     6    2    4 am   BACKBONE|DICT|INTERRES
     7    4    5 1    
     8    4   85 1    
     9    5    6 1    
    10    5   80 1    
    11    5   86 1    
    12    6    7 1    
    13    6   87 1    
    14    6   88 1    
    15    7    8 1    
    16    8    9 1    
    17    8   89 1    
    18    8   90 1    
    19    9   10 ar   
    20    9   14 ar   
    21   10   11 ar   
    22   10   91 1    
    23   11   12 ar   
    24   11   58 1    
    25   12   13 ar   
    26   12   92 1    
    27   13   14 ar   
    28   13   15 1    
    29   14   93 1    
    30   15   16 1    
    31   15   94 1    
    32   15   95 1    
    33   16   17 1    
    34   17   18 1    
    35   17   96 1    
    36   17   97 1    
    37   18   19 1    
    38   18   22 1    
    39   18   98 1    
    40   19   20 am   BACKBONE|DICT|INTERRES
    41   19   21 2    
    42   20   99 1    
    43   20  100 1    
    44   22   23 am   BACKBONE|DICT|INTERRES
    45   22  101 1    
    46   23   24 2    
    47   23   25 1    
    48   25   26 1    
    49   25   27 1    
    50   25  102 1    
    51   26  103 1    
    52   26  104 1    
    53   26  105 1    
    54   27   28 am   BACKBONE|DICT|INTERRES
    55   27  106 1    
    56   28   29 2    
    57   28   30 1    
    58   30   31 1    
    59   30   32 1    
    60   30  107 1    
    61   31  108 1    
    62   31  109 1    
    63   31  110 1    
    64   32   33 am   BACKBONE|DICT|INTERRES
    65   32  111 1    
    66   33   34 2    
    67   33   35 1    
    68   35   36 1    
    69   35   37 1    
    70   35  112 1    
    71   36  113 1    
    72   36  114 1    
    73   36  115 1    
    74   37   38 am   BACKBONE|DICT|INTERRES
    75   37  116 1    
    76   38   39 2    
    77   38   40 1    
    78   40   41 1    
    79   40   42 1    
    80   40  117 1    
    81   41  118 1    
    82   41  119 1    
    83   41  120 1    
    84   42   43 am   BACKBONE|DICT|INTERRES
    85   42  121 1    
    86   43   44 2    
    87   43   45 1    
    88   45   46 1    
    89   45   47 1    
    90   45  122 1    
    91   46  123 1    
    92   46  124 1    
    93   46  125 1    
    94   47   48 am   BACKBONE|DICT|INTERRES
    95   47  126 1    
    96   48   49 2    
    97   48   50 1    
    98   50   51 1    
    99   50   52 1    
   100   50  127 1    
   101   51  128 1    
   102   51  129 1    
   103   51  130 1    
   104   52   53 am   BACKBONE|DICT|INTERRES
   105   52  131 1    
   106   53   54 2    
   107   53   55 1    
   108   55   56 1    
   109   55   59 1    
   110   55  132 1    
   111   56   57 1    
   112   56  133 1    
   113   56  134 1    
   114   57   58 1    
   115   58  135 1    
   116   58  136 1    
   117   59   60 am   BACKBONE|DICT|INTERRES
   118   59  137 1    
   119   60   61 2    
   120   60   62 1    
   121   62   63 1    
   122   62   64 1    
   123   62  138 1    
   124   63  139 1    
   125   63  140 1    
   126   63  141 1    
   127   64   65 am   BACKBONE|DICT|INTERRES
   128   64  142 1    
   129   65   66 2    
   130   65   67 1    
   131   67   68 1    
   132   67   69 1    
   133   67  143 1    
   134   68  144 1    
   135   68  145 1    
   136   68  146 1    
   137   69   70 am   BACKBONE|DICT|INTERRES
   138   69  147 1    
   139   70   71 2    
   140   70   72 1    
   141   72   73 1    
   142   72   74 1    
   143   72  148 1    
   144   73  149 1    
   145   73  150 1    
   146   73  151 1    
   147   74   75 am   BACKBONE|DICT|INTERRES
   148   74  152 1    
   149   75   76 2    
   150   75   77 1    
   151   77   78 1    
   152   77   79 1    
   153   77  153 1    
   154   78  154 1    
   155   78  155 1    
   156   78  156 1    
   157   79   80 am   BACKBONE|DICT|INTERRES
   158   79  157 1    
   159   80   81 2    
@<TRIPOS>SUBSTRUCTURE
     1 UNK         1 GROUP             0       ****    0 ROOT    
