@<TRIPOS>MOLECULE
3R207
157   159    1
SMALL
USER_CHARGES


@<TRIPOS>ATOM
      1 CA        -48.1724  -29.7260   10.0309 C.3       0 UNK        -0.1975 
      2 C         -48.5299  -28.9647    8.7633 C.2       0 UNK         0.4852 
      3 O         -48.0733  -27.8345    8.5878 O.2       0 UNK        -0.5216 
      4 N         -49.3169  -29.5922    7.8747 N.am      1 UNK        -0.4461 
      5 CA        -49.8316  -29.0452    6.6090 C.3       1 UNK         0.0864 
      6 C6        -50.9352  -27.9740    6.8241 C.3       14 UNK        -0.0898 
      7 S7        -52.4417  -28.7289    7.5283 S.3       14 UNK        -0.2598 
      8 C8        -53.7612  -27.7545    6.7386 C.3       14 UNK         0.0286 
      9 C9        -53.9202  -26.4001    7.4107 C.ar      14 UNK        -0.0844 
     10 C10       -53.2853  -25.2687    6.8905 C.ar      14 UNK        -0.0881 
     11 C11       -53.4266  -24.0281    7.5186 C.ar      14 UNK        -0.0643 
     12 C12       -54.2025  -23.9286    8.6767 C.ar      14 UNK        -0.0930 
     13 C13       -54.8079  -25.0581    9.2324 C.ar      14 UNK        -0.0827 
     14 C14       -54.6933  -26.2851    8.5695 C.ar      14 UNK        -0.1249 
     15 C15       -55.5627  -24.9140   10.5528 C.3       14 UNK         0.0141 
     16 S16       -55.4885  -26.3623   11.6670 S.3       14 UNK        -0.2313 
     17 C17       -53.7119  -26.8040   11.7378 C.3       14 UNK        -0.0915 
     18 CA        -53.4814  -28.3129   11.4207 C.3       13 UNK         0.0968 
     19 C         -51.9741  -28.6937   11.2919 C.2       13 UNK         0.5732 
     20 N         -51.5932  -29.9389   11.5565 N.am      13 UNK        -0.7310 
     21 O         -51.1427  -27.8671   10.9311 O.2       13 UNK        -0.5035 
     22 N         -54.2689  -29.1916   12.3082 N.am      13 UNK        -0.4233 
     23 C         -54.0849  -29.3199   13.6280 C.2       13 UNK         0.4989 
     24 O         -53.1387  -28.8272   14.2468 O.2       13 UNK        -0.4996 
     25 CA        -55.1226  -30.1688   14.3802 C.3       12 UNK         0.0216 
     26 CB        -54.7161  -31.6517   14.3681 C.3       12 UNK        -0.1964 
     27 N         -55.2216  -29.7134   15.7659 N.am      12 UNK        -0.4276 
     28 C         -55.9355  -28.6577   16.1822 C.2       12 UNK         0.5020 
     29 O         -56.7702  -28.0745   15.4895 O.2       12 UNK        -0.5489 
     30 CA        -55.6492  -28.1544   17.6123 C.3       11 UNK         0.0294 
     31 CB        -56.6132  -28.8024   18.6193 C.3       11 UNK        -0.2019 
     32 N         -54.2635  -28.4133   18.0224 N.am      11 UNK        -0.4493 
     33 C         -53.1985  -27.7907   17.4965 C.2       11 UNK         0.4932 
     34 O         -53.2819  -26.7912   16.7772 O.2       11 UNK        -0.5029 
     35 CA        -51.8179  -28.4089   17.7793 C.3       10 UNK         0.0280 
     36 CB        -51.8656  -29.9553   17.8599 C.3       10 UNK        -0.1976 
     37 N         -50.9322  -27.9706   16.7041 N.am      10 UNK        -0.4242 
     38 C         -49.6161  -28.1741   16.5882 C.2       10 UNK         0.5072 
     39 O         -48.9266  -28.7709   17.4167 O.2       10 UNK        -0.5224 
     40 CA        -48.9547  -27.5985   15.3240 C.3       9 UNK         0.0343 
     41 CB        -49.3043  -28.4595   14.0992 C.3       9 UNK        -0.2003 
     42 N         -49.3230  -26.2028   15.0646 N.am      9 UNK        -0.4272 
     43 C         -49.0333  -25.1742   15.8786 C.2       9 UNK         0.4988 
     44 O         -48.4058  -25.2909   16.9318 O.2       9 UNK        -0.5108 
     45 CA        -49.5044  -23.7745   15.4589 C.3       8 UNK         0.0248 
     46 CB        -48.3716  -23.0283   14.7338 C.3       8 UNK        -0.2001 
     47 N         -50.6755  -23.8317   14.5840 N.am      8 UNK        -0.4140 
     48 C         -51.9156  -23.4509   14.9193 C.2       8 UNK         0.5028 
     49 O         -52.2158  -23.0145   16.0321 O.2       8 UNK        -0.5428 
     50 CA        -53.0098  -23.5779   13.8350 C.3       7 UNK         0.0264 
     51 CB        -54.0808  -22.4714   13.9416 C.3       7 UNK        -0.1988 
     52 N         -52.4875  -23.6666   12.4630 N.am      7 UNK        -0.4454 
     53 C         -51.7647  -22.7507   11.7994 C.2       7 UNK         0.5027 
     54 O         -51.4635  -21.6420   12.2445 O.2       7 UNK        -0.5083 
     55 CA        -51.2561  -23.1764   10.4090 C.3       6 UNK         0.0844 
     56 C56       -51.4450  -22.0421    9.3688 C.3       14 UNK        -0.0967 
     57 S57       -51.0647  -22.5861    7.6655 S.3       14 UNK        -0.2604 
     58 C58       -52.7291  -22.7987    6.9562 C.3       14 UNK         0.0134 
     59 N         -49.8637  -23.6228   10.4406 N.am      6 UNK        -0.4116 
     60 C         -49.2857  -24.5379   11.2290 C.2       5 UNK         0.5034 
     61 O         -49.8466  -25.0966   12.1757 O.2       5 UNK        -0.5045 
     62 CA        -47.8209  -24.8790   10.8859 C.3       5 UNK         0.0224 
     63 CB        -47.3064  -26.1176   11.6384 C.3       5 UNK        -0.1978 
     64 N         -47.6310  -25.0913    9.4461 N.am      5 UNK        -0.4737 
     65 C         -47.4705  -24.1227    8.5335 C.2       4 UNK         0.5027 
     66 O         -47.4743  -22.9247    8.8216 O.2       4 UNK        -0.5211 
     67 CA        -47.3156  -24.5678    7.0672 C.3       4 UNK         0.0297 
     68 CB        -46.7948  -23.4477    6.1425 C.3       4 UNK        -0.1993 
     69 N         -46.5089  -25.7842    6.9375 N.am      4 UNK        -0.4486 
     70 C         -45.2267  -25.9602    7.2968 C.2       3 UNK         0.4961 
     71 O         -44.4945  -25.0581    7.7050 O.2       3 UNK        -0.5105 
     72 CA        -44.6593  -27.3906    7.2157 C.3       3 UNK         0.0299 
     73 CB        -44.4579  -27.9651    8.6285 C.3       3 UNK        -0.1972 
     74 N         -45.5120  -28.3021    6.4498 N.am      3 UNK        -0.4305 
     75 C         -45.5615  -28.3579    5.1115 C.2       2 UNK         0.5006 
     76 O         -44.8261  -27.7046    4.3707 O.2       2 UNK        -0.5106 
     77 CA        -46.6194  -29.2880    4.4895 C.3       2 UNK         0.0296 
     78 CB        -45.9924  -30.6424    4.1204 C.3       2 UNK        -0.2002 
     79 N         -47.7910  -29.5136    5.3446 N.am      2 UNK        -0.4032 
     80 C         -48.6873  -28.5746    5.6853 C.2       1 UNK         0.5000 
     81 O         -48.6043  -27.3952    5.3364 O.2       1 UNK        -0.5238 
     82 H82       -48.5186  -30.7588    9.9988 H         1 UNK         0.0889 
     83 H83       -48.6247  -29.2406   10.8943 H         1 UNK         0.0889 
     84 H84       -47.0922  -29.7350   10.1726 H         1 UNK         0.0889 
     85 H85       -49.6470  -30.5212    8.0955 H         1 UNK         0.3028 
     86 H86       -50.2934  -29.8810    6.0802 H         1 UNK         0.0864 
     87 H87       -50.5907  -27.1754    7.4839 H         1 UNK         0.0720 
     88 H88       -51.1969  -27.5002    5.8766 H         1 UNK         0.0720 
     89 H89       -54.6977  -28.3092    6.8127 H         1 UNK         0.0814 
     90 H90       -53.5620  -27.6416    5.6719 H         1 UNK         0.0814 
     91 H91       -52.6757  -25.3533    6.0013 H         1 UNK         0.1469 
     92 H92       -54.3131  -22.9711    9.1653 H         1 UNK         0.1381 
     93 H93       -55.1792  -27.1629    8.9709 H         1 UNK         0.1206 
     94 H94       -56.6092  -24.7003   10.3327 H         1 UNK         0.0813 
     95 H95       -55.1848  -24.0532   11.1062 H         1 UNK         0.0813 
     96 H96       -53.3319  -26.5644   12.7314 H         1 UNK         0.0638 
     97 H97       -53.1537  -26.1810   11.0388 H         1 UNK         0.0638 
     98 H98       -53.8753  -28.4917   10.4207 H         1 UNK         0.0568 
     99 H99       -52.2666  -30.6249   11.8548 H         1 UNK         0.3450 
    100 H100      -50.6219  -30.1837   11.4766 H         1 UNK         0.3450 
    101 H101      -55.0520  -29.6581   11.8751 H         1 UNK         0.2987 
    102 H102      -56.0954  -30.0611   13.8951 H         1 UNK         0.0766 
    103 H103      -54.6680  -32.0366   13.3486 H         1 UNK         0.0798 
    104 H104      -55.4369  -32.2647   14.9097 H         1 UNK         0.0798 
    105 H105      -53.7359  -31.8070   14.8214 H         1 UNK         0.0798 
    106 H106      -54.5342  -30.0868   16.4015 H         1 UNK         0.3198 
    107 H107      -55.8156  -27.0747   17.6229 H         1 UNK         0.0843 
    108 H108      -56.4916  -29.8856   18.6598 H         1 UNK         0.0831 
    109 H109      -57.6506  -28.6018   18.3473 H         1 UNK         0.0831 
    110 H110      -56.4620  -28.4081   19.6244 H         1 UNK         0.0831 
    111 H111      -54.1097  -29.1958   18.6423 H         1 UNK         0.3133 
    112 H112      -51.4504  -28.0014   18.7226 H         1 UNK         0.0566 
    113 H113      -50.8790  -30.3828   18.0347 H         1 UNK         0.0814 
    114 H114      -52.2512  -30.3921   16.9377 H         1 UNK         0.0814 
    115 H115      -52.4912  -30.3004   18.6832 H         1 UNK         0.0814 
    116 H116      -51.4148  -27.4436   15.9846 H         1 UNK         0.3091 
    117 H117      -47.8728  -27.6343   15.4676 H         1 UNK         0.0702 
    118 H118      -48.7754  -28.1225   13.2100 H         1 UNK         0.0785 
    119 H119      -50.3722  -28.4333   13.8797 H         1 UNK         0.0785 
    120 H120      -49.0310  -29.5027   14.2624 H         1 UNK         0.0785 
    121 H121      -49.7917  -26.0134   14.1876 H         1 UNK         0.2998 
    122 H122      -49.7410  -23.2226   16.3709 H         1 UNK         0.0697 
    123 H123      -48.0400  -23.5596   13.8417 H         1 UNK         0.0825 
    124 H124      -47.5035  -22.9130   15.3842 H         1 UNK         0.0825 
    125 H125      -48.6858  -22.0290   14.4317 H         1 UNK         0.0825 
    126 H126      -50.5175  -24.1920   13.6458 H         1 UNK         0.3029 
    127 H127      -53.5066  -24.5287   14.0342 H         1 UNK         0.0897 
    128 H128      -53.6489  -21.4768   13.8270 H         1 UNK         0.0792 
    129 H129      -54.5768  -22.4988   14.9126 H         1 UNK         0.0792 
    130 H130      -54.8544  -22.5920   13.1836 H         1 UNK         0.0792 
    131 H131      -52.6178  -24.5626   12.0145 H         1 UNK         0.3086 
    132 H132      -51.8426  -24.0379   10.0866 H         1 UNK         0.0583 
    133 H133      -52.4571  -21.6371    9.4040 H         1 UNK         0.1020 
    134 H134      -50.7903  -21.2009    9.6059 H         1 UNK         0.1020 
    135 H135      -53.3262  -21.9030    7.1340 H         1 UNK         0.0694 
    136 H136      -52.6377  -22.8900    5.8728 H         1 UNK         0.0694 
    137 H137      -49.2711  -23.2140    9.7266 H         1 UNK         0.2989 
    138 H138      -47.2157  -24.0258   11.2003 H         1 UNK         0.1055 
    139 H139      -46.2599  -26.3169   11.4070 H         1 UNK         0.0806 
    140 H140      -47.8821  -27.0030   11.3717 H         1 UNK         0.0806 
    141 H141      -47.3804  -25.9853   12.7185 H         1 UNK         0.0806 
    142 H142      -47.6949  -26.0552    9.1204 H         1 UNK         0.3061 
    143 H143      -48.3178  -24.8347    6.7277 H         1 UNK         0.0734 
    144 H144      -45.8199  -23.0777    6.4612 H         1 UNK         0.0832 
    145 H145      -46.7044  -23.7937    5.1130 H         1 UNK         0.0832 
    146 H146      -47.4787  -22.5980    6.1397 H         1 UNK         0.0832 
    147 H147      -47.0296  -26.5990    6.6326 H         1 UNK         0.3156 
    148 H148      -43.6828  -27.3315    6.7303 H         1 UNK         0.0589 
    149 H149      -45.3953  -28.0130    9.1836 H         1 UNK         0.0808 
    150 H150      -43.7728  -27.3437    9.2069 H         1 UNK         0.0808 
    151 H151      -44.0328  -28.9683    8.5950 H         1 UNK         0.0808 
    152 H152      -46.1639  -28.8622    6.9793 H         1 UNK         0.3098 
    153 H153      -46.9673  -28.8117    3.5703 H         1 UNK         0.0720 
    154 H154      -45.1340  -30.5081    3.4605 H         1 UNK         0.0791 
    155 H155      -46.7039  -31.2803    3.5955 H         1 UNK         0.0791 
    156 H156      -45.6434  -31.1809    5.0025 H         1 UNK         0.0791 
    157 H157      -47.9247  -30.4535    5.6902 H         1 UNK         0.3028 
@<TRIPOS>BOND
     1    1    2 1    
     2    1   82 1    
     3    1   83 1    
     4    1   84 1    
     5    2    3 2    
     6    2    4 am   BACKBONE|DICT|INTERRES
     7    4    5 1    
     8    4   85 1    
     9    5    6 1    
    10    5   80 1    
    11    5   86 1    
    12    6    7 1    
    13    6   87 1    
    14    6   88 1    
    15    7    8 1    
    16    8    9 1    
    17    8   89 1    
    18    8   90 1    
    19    9   10 ar   
    20    9   14 ar   
    21   10   11 ar   
    22   10   91 1    
    23   11   12 ar   
    24   11   58 1    
    25   12   13 ar   
    26   12   92 1    
    27   13   14 ar   
    28   13   15 1    
    29   14   93 1    
    30   15   16 1    
    31   15   94 1    
    32   15   95 1    
    33   16   17 1    
    34   17   18 1    
    35   17   96 1    
    36   17   97 1    
    37   18   19 1    
    38   18   22 1    
    39   18   98 1    
    40   19   20 am   BACKBONE|DICT|INTERRES
    41   19   21 2    
    42   20   99 1    
    43   20  100 1    
    44   22   23 am   BACKBONE|DICT|INTERRES
    45   22  101 1    
    46   23   24 2    
    47   23   25 1    
    48   25   26 1    
    49   25   27 1    
    50   25  102 1    
    51   26  103 1    
    52   26  104 1    
    53   26  105 1    
    54   27   28 am   BACKBONE|DICT|INTERRES
    55   27  106 1    
    56   28   29 2    
    57   28   30 1    
    58   30   31 1    
    59   30   32 1    
    60   30  107 1    
    61   31  108 1    
    62   31  109 1    
    63   31  110 1    
    64   32   33 am   BACKBONE|DICT|INTERRES
    65   32  111 1    
    66   33   34 2    
    67   33   35 1    
    68   35   36 1    
    69   35   37 1    
    70   35  112 1    
    71   36  113 1    
    72   36  114 1    
    73   36  115 1    
    74   37   38 am   BACKBONE|DICT|INTERRES
    75   37  116 1    
    76   38   39 2    
    77   38   40 1    
    78   40   41 1    
    79   40   42 1    
    80   40  117 1    
    81   41  118 1    
    82   41  119 1    
    83   41  120 1    
    84   42   43 am   BACKBONE|DICT|INTERRES
    85   42  121 1    
    86   43   44 2    
    87   43   45 1    
    88   45   46 1    
    89   45   47 1    
    90   45  122 1    
    91   46  123 1    
    92   46  124 1    
    93   46  125 1    
    94   47   48 am   BACKBONE|DICT|INTERRES
    95   47  126 1    
    96   48   49 2    
    97   48   50 1    
    98   50   51 1    
    99   50   52 1    
   100   50  127 1    
   101   51  128 1    
   102   51  129 1    
   103   51  130 1    
   104   52   53 am   BACKBONE|DICT|INTERRES
   105   52  131 1    
   106   53   54 2    
   107   53   55 1    
   108   55   56 1    
   109   55   59 1    
   110   55  132 1    
   111   56   57 1    
   112   56  133 1    
   113   56  134 1    
   114   57   58 1    
   115   58  135 1    
   116   58  136 1    
   117   59   60 am   BACKBONE|DICT|INTERRES
   118   59  137 1    
   119   60   61 2    
   120   60   62 1    
   121   62   63 1    
   122   62   64 1    
   123   62  138 1    
   124   63  139 1    
   125   63  140 1    
   126   63  141 1    
   127   64   65 am   BACKBONE|DICT|INTERRES
   128   64  142 1    
   129   65   66 2    
   130   65   67 1    
   131   67   68 1    
   132   67   69 1    
   133   67  143 1    
   134   68  144 1    
   135   68  145 1    
   136   68  146 1    
   137   69   70 am   BACKBONE|DICT|INTERRES
   138   69  147 1    
   139   70   71 2    
   140   70   72 1    
   141   72   73 1    
   142   72   74 1    
   143   72  148 1    
   144   73  149 1    
   145   73  150 1    
   146   73  151 1    
   147   74   75 am   BACKBONE|DICT|INTERRES
   148   74  152 1    
   149   75   76 2    
   150   75   77 1    
   151   77   78 1    
   152   77   79 1    
   153   77  153 1    
   154   78  154 1    
   155   78  155 1    
   156   78  156 1    
   157   79   80 am   BACKBONE|DICT|INTERRES
   158   79  157 1    
   159   80   81 2    
@<TRIPOS>SUBSTRUCTURE
     1 UNK         1 GROUP             0       ****    0 ROOT    
