@<TRIPOS>MOLECULE
3R207
157   159    1
SMALL
USER_CHARGES


@<TRIPOS>ATOM
      1 CA        -44.9980  -30.9661    8.0924 C.3       0 UNK        -0.1975 
      2 C         -46.3043  -30.8805    8.8767 C.2       0 UNK         0.4852 
      3 O         -46.2643  -30.8314   10.1039 O.2       0 UNK        -0.5216 
      4 N         -47.4806  -30.8674    8.2321 N.am      1 UNK        -0.4461 
      5 CA        -47.7193  -30.8575    6.7810 C.3       1 UNK         0.0864 
      6 C6        -49.1897  -31.2118    6.4402 C.3       14 UNK        -0.0898 
      7 S7        -50.4142  -30.2084    7.3495 S.3       14 UNK        -0.2598 
      8 C8        -51.2581  -29.3350    5.9950 C.3       14 UNK         0.0286 
      9 C9        -52.2212  -28.2809    6.5248 C.ar      14 UNK        -0.0844 
     10 C10       -52.0520  -26.9360    6.1848 C.ar      14 UNK        -0.0881 
     11 C11       -52.9316  -25.9602    6.6672 C.ar      14 UNK        -0.0643 
     12 C12       -53.9843  -26.3387    7.5067 C.ar      14 UNK        -0.0930 
     13 C13       -54.1717  -27.6832    7.8436 C.ar      14 UNK        -0.0827 
     14 C14       -53.2928  -28.6483    7.3439 C.ar      14 UNK        -0.1249 
     15 C15       -55.3358  -28.1070    8.7246 C.3       14 UNK         0.0141 
     16 S16       -54.8027  -28.3861   10.4403 S.3       14 UNK        -0.2313 
     17 C17       -56.3310  -29.0727   11.1646 C.3       14 UNK        -0.0915 
     18 CA        -57.0849  -28.0574   12.0737 C.3       13 UNK         0.0968 
     19 C         -58.4902  -28.5739   12.5142 C.2       13 UNK         0.5732 
     20 N         -58.9753  -28.2416   13.7046 N.am      13 UNK        -0.7310 
     21 O         -59.1730  -29.2562   11.7537 O.2       13 UNK        -0.5035 
     22 N         -56.2511  -27.5274   13.1699 N.am      13 UNK        -0.4233 
     23 C         -55.7138  -28.2405   14.1676 C.2       13 UNK         0.4989 
     24 O         -55.8680  -29.4546   14.3221 O.2       13 UNK        -0.4996 
     25 CA        -54.9058  -27.4456   15.2041 C.3       12 UNK         0.0216 
     26 CB        -55.7965  -27.0367   16.3885 C.3       12 UNK        -0.1964 
     27 N         -53.7764  -28.2327   15.6993 N.am      12 UNK        -0.4276 
     28 C         -52.6320  -28.3874   15.0269 C.2       12 UNK         0.5020 
     29 O         -52.3814  -27.8351   13.9534 O.2       12 UNK        -0.5489 
     30 CA        -51.5771  -29.3053   15.6477 C.3       11 UNK         0.0294 
     31 CB        -51.7666  -30.7568   15.1695 C.3       11 UNK        -0.2019 
     32 N         -50.2874  -28.7805   15.2217 N.am      11 UNK        -0.4493 
     33 C         -49.0798  -29.1051   15.6887 C.2       11 UNK         0.4932 
     34 O         -48.8721  -29.9651   16.5442 O.2       11 UNK        -0.5029 
     35 CA        -47.9096  -28.2959   15.1109 C.3       10 UNK         0.0280 
     36 CB        -47.6379  -28.6899   13.6487 C.3       10 UNK        -0.1976 
     37 N         -48.1627  -26.8551   15.2064 N.am      10 UNK        -0.4242 
     38 C         -48.1110  -26.1535   16.3490 C.2       10 UNK         0.5072 
     39 O         -47.7736  -26.6282   17.4341 O.2       10 UNK        -0.5224 
     40 CA        -48.5087  -24.6728   16.2723 C.3       9 UNK         0.0343 
     41 CB        -47.3514  -23.8253   15.7178 C.3       9 UNK        -0.2003 
     42 N         -49.6898  -24.4830   15.4337 N.am      9 UNK        -0.4272 
     43 C         -50.9589  -24.5424   15.8563 C.2       9 UNK         0.4988 
     44 O         -51.2764  -24.7514   17.0284 O.2       9 UNK        -0.5108 
     45 CA        -52.0539  -24.3367   14.7877 C.3       8 UNK         0.0248 
     46 CB        -53.3978  -23.8661   15.3844 C.3       8 UNK        -0.2001 
     47 N         -51.6343  -23.4732   13.6758 N.am      8 UNK        -0.4140 
     48 C         -51.2767  -22.1801   13.7368 C.2       8 UNK         0.5028 
     49 O         -51.3171  -21.5066   14.7673 O.2       8 UNK        -0.5428 
     50 CA        -50.7483  -21.5176   12.4486 C.3       7 UNK         0.0264 
     51 CB        -49.2559  -21.1772   12.6045 C.3       7 UNK        -0.1988 
     52 N         -50.9100  -22.3334   11.2437 N.am      7 UNK        -0.4454 
     53 C         -52.0597  -22.5401   10.5857 C.2       7 UNK         0.5027 
     54 O         -53.1319  -22.0190   10.8941 O.2       7 UNK        -0.5083 
     55 CA        -51.9932  -23.5259    9.3991 C.3       6 UNK         0.0844 
     56 C56       -51.5197  -22.7812    8.1237 C.3       14 UNK        -0.0967 
     57 S57       -51.1348  -23.8474    6.6953 S.3       14 UNK        -0.2604 
     58 C58       -52.7660  -24.5088    6.2368 C.3       14 UNK         0.0134 
     59 N         -51.1834  -24.7082    9.7195 N.am      6 UNK        -0.4116 
     60 C         -51.4462  -25.5752   10.7096 C.2       5 UNK         0.5034 
     61 O         -52.4121  -25.4777   11.4644 O.2       5 UNK        -0.5045 
     62 CA        -50.4180  -26.6902   10.9446 C.3       5 UNK         0.0224 
     63 CB        -50.6439  -27.8558    9.9734 C.3       5 UNK        -0.1978 
     64 N         -49.0505  -26.1817   10.8091 N.am      5 UNK        -0.4737 
     65 C         -48.4289  -25.4741   11.7626 C.2       4 UNK         0.5027 
     66 O         -48.8994  -25.3000   12.8858 O.2       4 UNK        -0.5211 
     67 CA        -47.0687  -24.8359   11.4257 C.3       4 UNK         0.0297 
     68 CB        -45.9188  -25.7354   11.9015 C.3       4 UNK        -0.1993 
     69 N         -46.8966  -24.5332   10.0036 N.am      4 UNK        -0.4486 
     70 C         -47.6422  -23.6561    9.3179 C.2       3 UNK         0.4961 
     71 O         -48.5095  -22.9530    9.8352 O.2       3 UNK        -0.5105 
     72 CA        -47.4217  -23.5726    7.7962 C.3       3 UNK         0.0299 
     73 CB        -46.4756  -22.4080    7.4645 C.3       3 UNK        -0.1972 
     74 N         -46.9261  -24.7978    7.1516 N.am      3 UNK        -0.4305 
     75 C         -47.4431  -26.0315    7.2581 C.2       2 UNK         0.5006 
     76 O         -48.3898  -26.3200    7.9940 O.2       2 UNK        -0.5106 
     77 CA        -46.7626  -27.1291    6.4263 C.3       2 UNK         0.0296 
     78 CB        -45.2233  -27.1086    6.5712 C.3       2 UNK        -0.2002 
     79 N         -47.2759  -28.4343    6.8363 N.am      2 UNK        -0.4032 
     80 C         -47.2643  -29.5492    6.0961 C.2       1 UNK         0.5000 
     81 O         -46.8687  -29.5895    4.9301 O.2       1 UNK        -0.5238 
     82 H82       -45.0413  -31.7316    7.3178 H         1 UNK         0.0889 
     83 H83       -44.7611  -30.0072    7.6314 H         1 UNK         0.0889 
     84 H84       -44.1745  -31.2252    8.7584 H         1 UNK         0.0889 
     85 H85       -48.3246  -30.8222    8.7852 H         1 UNK         0.3028 
     86 H86       -47.1086  -31.6511    6.3481 H         1 UNK         0.0864 
     87 H87       -49.3690  -31.1465    5.3650 H         1 UNK         0.0720 
     88 H88       -49.3743  -32.2561    6.6991 H         1 UNK         0.0720 
     89 H89       -51.8086  -30.0544    5.3868 H         1 UNK         0.0814 
     90 H90       -50.5095  -28.8797    5.3441 H         1 UNK         0.0814 
     91 H91       -51.2349  -26.6415    5.5404 H         1 UNK         0.1469 
     92 H92       -54.6689  -25.5913    7.8835 H         1 UNK         0.1381 
     93 H93       -53.4341  -29.6883    7.6051 H         1 UNK         0.1206 
     94 H94       -55.7740  -29.0226    8.3244 H         1 UNK         0.0813 
     95 H95       -56.1249  -27.3536    8.7102 H         1 UNK         0.0813 
     96 H96       -56.0677  -29.9698   11.7259 H         1 UNK         0.0638 
     97 H97       -56.9758  -29.4143   10.3536 H         1 UNK         0.0638 
     98 H98       -57.3112  -27.1912   11.4515 H         1 UNK         0.0568 
     99 H99       -59.8894  -28.5707   13.9725 H         1 UNK         0.3450 
    100 H100      -58.4372  -27.6731   14.3371 H         1 UNK         0.3450 
    101 H101      -56.0800  -26.5332   13.1366 H         1 UNK         0.2987 
    102 H102      -54.5210  -26.5401   14.7305 H         1 UNK         0.0766 
    103 H103      -56.6205  -26.4034   16.0583 H         1 UNK         0.0798 
    104 H104      -56.2315  -27.9045   16.8863 H         1 UNK         0.0798 
    105 H105      -55.2342  -26.4710   17.1315 H         1 UNK         0.0798 
    106 H106      -53.9279  -28.7614   16.5459 H         1 UNK         0.3198 
    107 H107      -51.6411  -29.2536   16.7360 H         1 UNK         0.0843 
    108 H108      -52.7516  -31.1340   15.4469 H         1 UNK         0.0831 
    109 H109      -51.0291  -31.4254   15.6121 H         1 UNK         0.0831 
    110 H110      -51.6818  -30.8349   14.0853 H         1 UNK         0.0831 
    111 H111      -50.3766  -28.0600   14.5151 H         1 UNK         0.3133 
    112 H112      -47.0167  -28.5319   15.6940 H         1 UNK         0.0566 
    113 H113      -46.7254  -28.2260   13.2779 H         1 UNK         0.0814 
    114 H114      -47.5062  -29.7685   13.5534 H         1 UNK         0.0814 
    115 H115      -48.4550  -28.4036   12.9856 H         1 UNK         0.0814 
    116 H116      -48.4491  -26.3708   14.3595 H         1 UNK         0.3091 
    117 H117      -48.7261  -24.3265   17.2849 H         1 UNK         0.0702 
    118 H118      -47.6107  -22.7667   15.7028 H         1 UNK         0.0785 
    119 H119      -47.0822  -24.1166   14.7022 H         1 UNK         0.0785 
    120 H120      -46.4590  -23.9324   16.3359 H         1 UNK         0.0785 
    121 H121      -49.5213  -24.4137   14.4339 H         1 UNK         0.2998 
    122 H122      -52.2219  -25.3157   14.3427 H         1 UNK         0.0697 
    123 H123      -53.3037  -22.9034   15.8872 H         1 UNK         0.0825 
    124 H124      -53.7700  -24.5782   16.1213 H         1 UNK         0.0825 
    125 H125      -54.1614  -23.7699   14.6127 H         1 UNK         0.0825 
    126 H126      -51.5914  -23.9351   12.7754 H         1 UNK         0.3029 
    127 H127      -51.3032  -20.5872   12.3110 H         1 UNK         0.0897 
    128 H128      -48.8715  -20.6619   11.7239 H         1 UNK         0.0792 
    129 H129      -49.0882  -20.5227   13.4610 H         1 UNK         0.0792 
    130 H130      -48.6537  -22.0740   12.7562 H         1 UNK         0.0792 
    131 H131      -50.0592  -22.7391   10.8566 H         1 UNK         0.3086 
    132 H132      -53.0082  -23.8857    9.2197 H         1 UNK         0.0583 
    133 H133      -52.2695  -22.0495    7.8165 H         1 UNK         0.1020 
    134 H134      -50.6162  -22.2039    8.3299 H         1 UNK         0.1020 
    135 H135      -53.5562  -23.8799    6.6495 H         1 UNK         0.0694 
    136 H136      -52.8695  -24.4549    5.1522 H         1 UNK         0.0694 
    137 H137      -50.3720  -24.8649    9.1382 H         1 UNK         0.2989 
    138 H138      -50.5620  -27.0665   11.9602 H         1 UNK         0.1055 
    139 H139      -51.6420  -28.2776   10.0990 H         1 UNK         0.0806 
    140 H140      -49.9273  -28.6594   10.1412 H         1 UNK         0.0806 
    141 H141      -50.5594  -27.5396    8.9333 H         1 UNK         0.0806 
    142 H142      -48.6262  -26.2606    9.8881 H         1 UNK         0.3061 
    143 H143      -47.0103  -23.8925   11.9726 H         1 UNK         0.0734 
    144 H144      -45.9923  -25.9254   12.9732 H         1 UNK         0.0832 
    145 H145      -45.9238  -26.7011   11.3943 H         1 UNK         0.0832 
    146 H146      -44.9497  -25.2680   11.7267 H         1 UNK         0.0832 
    147 H147      -46.2079  -25.0709    9.4987 H         1 UNK         0.3156 
    148 H148      -48.3898  -23.3504    7.3482 H         1 UNK         0.0589 
    149 H149      -45.4677  -22.5858    7.8424 H         1 UNK         0.0808 
    150 H150      -46.4090  -22.2427    6.3890 H         1 UNK         0.0808 
    151 H151      -46.8308  -21.4769    7.9096 H         1 UNK         0.0808 
    152 H152      -46.1415  -24.6742    6.5283 H         1 UNK         0.3098 
    153 H153      -47.0320  -26.9549    5.3817 H         1 UNK         0.0720 
    154 H154      -44.7607  -27.9136    6.0002 H         1 UNK         0.0791 
    155 H155      -44.9159  -27.2222    7.6127 H         1 UNK         0.0791 
    156 H156      -44.7910  -26.1790    6.1982 H         1 UNK         0.0791 
    157 H157      -47.7096  -28.4517    7.7504 H         1 UNK         0.3028 
@<TRIPOS>BOND
     1    1    2 1    
     2    1   82 1    
     3    1   83 1    
     4    1   84 1    
     5    2    3 2    
     6    2    4 am   BACKBONE|DICT|INTERRES
     7    4    5 1    
     8    4   85 1    
     9    5    6 1    
    10    5   80 1    
    11    5   86 1    
    12    6    7 1    
    13    6   87 1    
    14    6   88 1    
    15    7    8 1    
    16    8    9 1    
    17    8   89 1    
    18    8   90 1    
    19    9   10 ar   
    20    9   14 ar   
    21   10   11 ar   
    22   10   91 1    
    23   11   12 ar   
    24   11   58 1    
    25   12   13 ar   
    26   12   92 1    
    27   13   14 ar   
    28   13   15 1    
    29   14   93 1    
    30   15   16 1    
    31   15   94 1    
    32   15   95 1    
    33   16   17 1    
    34   17   18 1    
    35   17   96 1    
    36   17   97 1    
    37   18   19 1    
    38   18   22 1    
    39   18   98 1    
    40   19   20 am   BACKBONE|DICT|INTERRES
    41   19   21 2    
    42   20   99 1    
    43   20  100 1    
    44   22   23 am   BACKBONE|DICT|INTERRES
    45   22  101 1    
    46   23   24 2    
    47   23   25 1    
    48   25   26 1    
    49   25   27 1    
    50   25  102 1    
    51   26  103 1    
    52   26  104 1    
    53   26  105 1    
    54   27   28 am   BACKBONE|DICT|INTERRES
    55   27  106 1    
    56   28   29 2    
    57   28   30 1    
    58   30   31 1    
    59   30   32 1    
    60   30  107 1    
    61   31  108 1    
    62   31  109 1    
    63   31  110 1    
    64   32   33 am   BACKBONE|DICT|INTERRES
    65   32  111 1    
    66   33   34 2    
    67   33   35 1    
    68   35   36 1    
    69   35   37 1    
    70   35  112 1    
    71   36  113 1    
    72   36  114 1    
    73   36  115 1    
    74   37   38 am   BACKBONE|DICT|INTERRES
    75   37  116 1    
    76   38   39 2    
    77   38   40 1    
    78   40   41 1    
    79   40   42 1    
    80   40  117 1    
    81   41  118 1    
    82   41  119 1    
    83   41  120 1    
    84   42   43 am   BACKBONE|DICT|INTERRES
    85   42  121 1    
    86   43   44 2    
    87   43   45 1    
    88   45   46 1    
    89   45   47 1    
    90   45  122 1    
    91   46  123 1    
    92   46  124 1    
    93   46  125 1    
    94   47   48 am   BACKBONE|DICT|INTERRES
    95   47  126 1    
    96   48   49 2    
    97   48   50 1    
    98   50   51 1    
    99   50   52 1    
   100   50  127 1    
   101   51  128 1    
   102   51  129 1    
   103   51  130 1    
   104   52   53 am   BACKBONE|DICT|INTERRES
   105   52  131 1    
   106   53   54 2    
   107   53   55 1    
   108   55   56 1    
   109   55   59 1    
   110   55  132 1    
   111   56   57 1    
   112   56  133 1    
   113   56  134 1    
   114   57   58 1    
   115   58  135 1    
   116   58  136 1    
   117   59   60 am   BACKBONE|DICT|INTERRES
   118   59  137 1    
   119   60   61 2    
   120   60   62 1    
   121   62   63 1    
   122   62   64 1    
   123   62  138 1    
   124   63  139 1    
   125   63  140 1    
   126   63  141 1    
   127   64   65 am   BACKBONE|DICT|INTERRES
   128   64  142 1    
   129   65   66 2    
   130   65   67 1    
   131   67   68 1    
   132   67   69 1    
   133   67  143 1    
   134   68  144 1    
   135   68  145 1    
   136   68  146 1    
   137   69   70 am   BACKBONE|DICT|INTERRES
   138   69  147 1    
   139   70   71 2    
   140   70   72 1    
   141   72   73 1    
   142   72   74 1    
   143   72  148 1    
   144   73  149 1    
   145   73  150 1    
   146   73  151 1    
   147   74   75 am   BACKBONE|DICT|INTERRES
   148   74  152 1    
   149   75   76 2    
   150   75   77 1    
   151   77   78 1    
   152   77   79 1    
   153   77  153 1    
   154   78  154 1    
   155   78  155 1    
   156   78  156 1    
   157   79   80 am   BACKBONE|DICT|INTERRES
   158   79  157 1    
   159   80   81 2    
@<TRIPOS>SUBSTRUCTURE
     1 UNK         1 GROUP             0       ****    0 ROOT    
