@<TRIPOS>MOLECULE
3R207
157   159    1
SMALL
USER_CHARGES


@<TRIPOS>ATOM
      1 CA        -52.3470  -27.3322    7.8904 C.3       0 UNK        -0.1975 
      2 C         -52.8484  -27.4548    6.4532 C.2       0 UNK         0.4852 
      3 O         -53.7916  -26.7568    6.0866 O.2       0 UNK        -0.5216 
      4 N         -52.2702  -28.3228    5.6106 N.am      1 UNK        -0.4461 
      5 CA        -51.0669  -29.1217    5.8607 C.3       1 UNK         0.0864 
      6 C6        -51.0458  -30.3850    4.9647 C.3       14 UNK        -0.0898 
      7 S7        -49.8902  -31.6647    5.5631 S.3       14 UNK        -0.2598 
      8 C8        -50.9799  -32.7142    6.5857 C.3       14 UNK         0.0286 
      9 C9        -51.4956  -31.9758    7.8139 C.ar      14 UNK        -0.0844 
     10 C10       -50.5952  -31.4889    8.7655 C.ar      14 UNK        -0.0881 
     11 C11       -51.0477  -30.7545    9.8645 C.ar      14 UNK        -0.0643 
     12 C12       -52.4185  -30.5426   10.0334 C.ar      14 UNK        -0.0930 
     13 C13       -53.3329  -31.0460    9.1017 C.ar      14 UNK        -0.0827 
     14 C14       -52.8656  -31.7589    7.9923 C.ar      14 UNK        -0.1249 
     15 C15       -54.8251  -30.8253    9.2998 C.3       14 UNK         0.0141 
     16 S16       -55.4962  -29.6406    8.0913 S.3       14 UNK        -0.2313 
     17 C17       -57.0090  -29.0770    8.9476 C.3       14 UNK        -0.0915 
     18 CA        -56.9993  -27.5500    9.2635 C.3       13 UNK         0.0968 
     19 C         -58.3208  -27.0709    9.9382 C.2       13 UNK         0.5732 
     20 N         -58.2876  -26.1079   10.8515 N.am      13 UNK        -0.7310 
     21 O         -59.4013  -27.5524    9.6045 O.2       13 UNK        -0.5035 
     22 N         -55.7593  -27.0937    9.9202 N.am      13 UNK        -0.4233 
     23 C         -55.2971  -27.4914   11.1123 C.2       13 UNK         0.4989 
     24 O         -55.8994  -28.2608   11.8642 O.2       13 UNK        -0.4996 
     25 CA        -53.8846  -26.9932   11.4734 C.3       12 UNK         0.0216 
     26 CB        -53.7182  -25.4637   11.3163 C.3       12 UNK        -0.1964 
     27 N         -53.4311  -27.4519   12.7935 N.am      12 UNK        -0.4276 
     28 C         -53.8581  -27.0608   14.0023 C.2       12 UNK         0.5020 
     29 O         -54.7051  -26.1860   14.1936 O.2       12 UNK        -0.5489 
     30 CA        -53.2128  -27.7491   15.2169 C.3       11 UNK         0.0294 
     31 CB        -52.3115  -28.9543   14.8674 C.3       11 UNK        -0.2019 
     32 N         -52.4089  -26.7517   15.9143 N.am      11 UNK        -0.4493 
     33 C         -52.6649  -26.2520   17.1288 C.2       11 UNK         0.4932 
     34 O         -53.5900  -26.6354   17.8478 O.2       11 UNK        -0.5029 
     35 CA        -51.7322  -25.1238   17.6127 C.3       10 UNK         0.0280 
     36 CB        -51.8266  -24.8618   19.1315 C.3       10 UNK        -0.1976 
     37 N         -50.3383  -25.3064   17.1902 N.am      10 UNK        -0.4242 
     38 C         -49.4993  -26.2958   17.5399 C.2       10 UNK         0.5072 
     39 O         -49.7970  -27.1967   18.3258 O.2       10 UNK        -0.5224 
     40 CA        -48.0897  -26.3100   16.9096 C.3       9 UNK         0.0343 
     41 CB        -47.8935  -27.5771   16.0591 C.3       9 UNK        -0.2003 
     42 N         -47.7901  -25.1381   16.0828 N.am      9 UNK        -0.4272 
     43 C         -47.5157  -23.9104   16.5444 C.2       9 UNK         0.4988 
     44 O         -47.3945  -23.6388   17.7391 O.2       9 UNK        -0.5108 
     45 CA        -47.4100  -22.7846   15.4980 C.3       8 UNK         0.0248 
     46 CB        -45.9718  -22.6650   14.9700 C.3       8 UNK        -0.2001 
     47 N         -48.3455  -22.9439   14.3758 N.am      8 UNK        -0.4140 
     48 C         -49.6825  -22.9536   14.5032 C.2       8 UNK         0.5028 
     49 O         -50.2653  -22.7896   15.5747 O.2       8 UNK        -0.5428 
     50 CA        -50.5142  -23.2517   13.2461 C.3       7 UNK         0.0264 
     51 CB        -50.6212  -22.0058   12.3536 C.3       7 UNK        -0.1988 
     52 N         -49.9826  -24.3807   12.4796 N.am      7 UNK        -0.4454 
     53 C         -49.9459  -25.6462   12.9245 C.2       7 UNK         0.5027 
     54 O         -50.4438  -26.0025   13.9931 O.2       7 UNK        -0.5083 
     55 CA        -49.1858  -26.6823   12.0706 C.3       6 UNK         0.0844 
     56 C56       -50.0937  -27.3341   11.0030 C.3       14 UNK        -0.0967 
     57 S57       -49.2384  -28.7062   10.1561 S.3       14 UNK        -0.2604 
     58 C58       -50.0406  -30.1849   10.8492 C.3       14 UNK         0.0134 
     59 N         -47.9650  -26.1192   11.4913 N.am      6 UNK        -0.4116 
     60 C         -46.9024  -25.7162   12.1984 C.2       5 UNK         0.5034 
     61 O         -46.8260  -25.7848   13.4242 O.2       5 UNK        -0.5045 
     62 CA        -45.7484  -25.0911   11.4045 C.3       5 UNK         0.0224 
     63 CB        -44.8714  -26.1781   10.7624 C.3       5 UNK        -0.1978 
     64 N         -46.2359  -24.1715   10.3751 N.am      5 UNK        -0.4737 
     65 C         -46.7801  -22.9753   10.6334 C.2       4 UNK         0.5027 
     66 O         -46.9130  -22.5152   11.7676 O.2       4 UNK        -0.5211 
     67 CA        -47.2881  -22.1705    9.4249 C.3       4 UNK         0.0297 
     68 CB        -46.1286  -21.4248    8.7458 C.3       4 UNK        -0.1993 
     69 N         -47.9977  -22.9874    8.4347 N.am      4 UNK        -0.4486 
     70 C         -49.1493  -23.6263    8.6790 C.2       3 UNK         0.4961 
     71 O         -49.7124  -23.6342    9.7717 O.2       3 UNK        -0.5105 
     72 CA        -49.7741  -24.4191    7.5218 C.3       3 UNK         0.0299 
     73 CB        -50.3151  -23.4755    6.4357 C.3       3 UNK        -0.1972 
     74 N         -48.9368  -25.4537    6.9017 N.am      3 UNK        -0.4305 
     75 C         -48.0661  -26.2853    7.4939 C.2       2 UNK         0.5006 
     76 O         -47.6527  -26.1594    8.6462 O.2       2 UNK        -0.5106 
     77 CA        -47.6566  -27.5184    6.6664 C.3       2 UNK         0.0296 
     78 CB        -46.4850  -28.2920    7.2998 C.3       2 UNK        -0.2002 
     79 N         -48.8075  -28.4174    6.5333 N.am      2 UNK        -0.4032 
     80 C         -49.8176  -28.2367    5.6715 C.2       1 UNK         0.5000 
     81 O         -49.8074  -27.3719    4.7898 O.2       1 UNK        -0.5238 
     82 H82       -52.7548  -26.4377    8.3591 H         1 UNK         0.0889 
     83 H83       -51.2626  -27.2641    7.9456 H         1 UNK         0.0889 
     84 H84       -52.6698  -28.1955    8.4690 H         1 UNK         0.0889 
     85 H85       -52.6115  -28.3574    4.6609 H         1 UNK         0.3028 
     86 H86       -51.0999  -29.4464    6.9004 H         1 UNK         0.0864 
     87 H87       -52.0423  -30.8283    4.9209 H         1 UNK         0.0720 
     88 H88       -50.7899  -30.1313    3.9341 H         1 UNK         0.0720 
     89 H89       -50.4212  -33.5932    6.9099 H         1 UNK         0.0814 
     90 H90       -51.8042  -33.0837    5.9736 H         1 UNK         0.0814 
     91 H91       -49.5343  -31.6516    8.6311 H         1 UNK         0.1469 
     92 H92       -52.7735  -29.9859   10.8885 H         1 UNK         0.1381 
     93 H93       -53.5720  -32.1338    7.2642 H         1 UNK         0.1206 
     94 H94       -55.0176  -30.4688   10.3125 H         1 UNK         0.0813 
     95 H95       -55.3540  -31.7745    9.2035 H         1 UNK         0.0813 
     96 H96       -57.8532  -29.3211    8.3007 H         1 UNK         0.0638 
     97 H97       -57.1593  -29.6549    9.8607 H         1 UNK         0.0638 
     98 H98       -56.9985  -27.0380    8.3008 H         1 UNK         0.0568 
     99 H99       -59.1492  -25.7978   11.2721 H         1 UNK         0.3450 
    100 H100      -57.4108  -25.7036   11.1368 H         1 UNK         0.3450 
    101 H101      -55.2046  -26.4529    9.3734 H         1 UNK         0.2987 
    102 H102      -53.2185  -27.4689   10.7547 H         1 UNK         0.0766 
    103 H103      -52.7269  -25.1387   11.6310 H         1 UNK         0.0798 
    104 H104      -54.4495  -24.9117   11.9073 H         1 UNK         0.0798 
    105 H105      -53.8375  -25.1479   10.2800 H         1 UNK         0.0798 
    106 H106      -52.7718  -28.2147   12.7872 H         1 UNK         0.3198 
    107 H107      -54.0281  -28.1063   15.8494 H         1 UNK         0.0843 
    108 H108      -51.9307  -29.4227   15.7753 H         1 UNK         0.0831 
    109 H109      -51.4461  -28.6671   14.2684 H         1 UNK         0.0831 
    110 H110      -52.8650  -29.7228   14.3258 H         1 UNK         0.0831 
    111 H111      -51.6461  -26.3530   15.3686 H         1 UNK         0.3133 
    112 H112      -52.0774  -24.2205   17.1084 H         1 UNK         0.0566 
    113 H113      -51.1651  -24.0505   19.4354 H         1 UNK         0.0814 
    114 H114      -52.8399  -24.5757   19.4158 H         1 UNK         0.0814 
    115 H115      -51.5648  -25.7456   19.7139 H         1 UNK         0.0814 
    116 H116      -50.0049  -24.6081   16.5341 H         1 UNK         0.3091 
    117 H117      -47.3710  -26.3384   17.7310 H         1 UNK         0.0702 
    118 H118      -46.8891  -27.6218   15.6375 H         1 UNK         0.0785 
    119 H119      -48.6054  -27.6214   15.2348 H         1 UNK         0.0785 
    120 H120      -48.0330  -28.4781   16.6579 H         1 UNK         0.0785 
    121 H121      -47.7773  -25.2866   15.0779 H         1 UNK         0.2998 
    122 H122      -47.6629  -21.8488   16.0005 H         1 UNK         0.0697 
    123 H123      -45.8674  -21.8177   14.2922 H         1 UNK         0.0825 
    124 H124      -45.2667  -22.5138   15.7885 H         1 UNK         0.0825 
    125 H125      -45.6613  -23.5618   14.4340 H         1 UNK         0.0825 
    126 H126      -47.9366  -23.0383   13.4506 H         1 UNK         0.3029 
    127 H127      -51.5215  -23.5190   13.5737 H         1 UNK         0.0897 
    128 H128      -51.2964  -22.1785   11.5153 H         1 UNK         0.0792 
    129 H129      -51.0117  -21.1551   12.9137 H         1 UNK         0.0792 
    130 H130      -49.6521  -21.7144   11.9470 H         1 UNK         0.0792 
    131 H131      -49.6267  -24.1675   11.5493 H         1 UNK         0.3086 
    132 H132      -48.8734  -27.4731   12.7562 H         1 UNK         0.0583 
    133 H133      -51.0078  -27.7112   11.4557 H         1 UNK         0.1020 
    134 H134      -50.3974  -26.5970   10.2572 H         1 UNK         0.1020 
    135 H135      -49.2735  -30.9336   11.0523 H         1 UNK         0.0694 
    136 H136      -50.5054  -29.9628   11.8107 H         1 UNK         0.0694 
    137 H137      -47.9222  -26.0643   10.4754 H         1 UNK         0.2989 
    138 H138      -45.1316  -24.5247   12.1058 H         1 UNK         0.1055 
    139 H139      -44.4744  -26.8544   11.5206 H         1 UNK         0.0806 
    140 H140      -44.0199  -25.7428   10.2393 H         1 UNK         0.0806 
    141 H141      -45.4300  -26.7839   10.0478 H         1 UNK         0.0806 
    142 H142      -46.2699  -24.5239    9.4272 H         1 UNK         0.3061 
    143 H143      -47.9924  -21.4264    9.8033 H         1 UNK         0.0734 
    144 H144      -46.4876  -20.7717    7.9502 H         1 UNK         0.0832 
    145 H145      -45.5975  -20.7967    9.4626 H         1 UNK         0.0832 
    146 H146      -45.4005  -22.1129    8.3144 H         1 UNK         0.0832 
    147 H147      -47.5908  -23.0596    7.5134 H         1 UNK         0.3156 
    148 H148      -50.6317  -24.9430    7.9450 H         1 UNK         0.0589 
    149 H149      -49.5107  -22.9823    5.8889 H         1 UNK         0.0808 
    150 H150      -50.9288  -24.0143    5.7132 H         1 UNK         0.0808 
    151 H151      -50.9422  -22.6951    6.8697 H         1 UNK         0.0808 
    152 H152      -49.1977  -25.7036    5.9539 H         1 UNK         0.3098 
    153 H153      -47.3397  -27.1760    5.6790 H         1 UNK         0.0720 
    154 H154      -45.6105  -27.6499    7.4125 H         1 UNK         0.0791 
    155 H155      -46.1885  -29.1384    6.6802 H         1 UNK         0.0791 
    156 H156      -46.7371  -28.6742    8.2899 H         1 UNK         0.0791 
    157 H157      -48.8938  -29.1311    7.2435 H         1 UNK         0.3028 
@<TRIPOS>BOND
     1    1    2 1    
     2    1   82 1    
     3    1   83 1    
     4    1   84 1    
     5    2    3 2    
     6    2    4 am   BACKBONE|DICT|INTERRES
     7    4    5 1    
     8    4   85 1    
     9    5    6 1    
    10    5   80 1    
    11    5   86 1    
    12    6    7 1    
    13    6   87 1    
    14    6   88 1    
    15    7    8 1    
    16    8    9 1    
    17    8   89 1    
    18    8   90 1    
    19    9   10 ar   
    20    9   14 ar   
    21   10   11 ar   
    22   10   91 1    
    23   11   12 ar   
    24   11   58 1    
    25   12   13 ar   
    26   12   92 1    
    27   13   14 ar   
    28   13   15 1    
    29   14   93 1    
    30   15   16 1    
    31   15   94 1    
    32   15   95 1    
    33   16   17 1    
    34   17   18 1    
    35   17   96 1    
    36   17   97 1    
    37   18   19 1    
    38   18   22 1    
    39   18   98 1    
    40   19   20 am   BACKBONE|DICT|INTERRES
    41   19   21 2    
    42   20   99 1    
    43   20  100 1    
    44   22   23 am   BACKBONE|DICT|INTERRES
    45   22  101 1    
    46   23   24 2    
    47   23   25 1    
    48   25   26 1    
    49   25   27 1    
    50   25  102 1    
    51   26  103 1    
    52   26  104 1    
    53   26  105 1    
    54   27   28 am   BACKBONE|DICT|INTERRES
    55   27  106 1    
    56   28   29 2    
    57   28   30 1    
    58   30   31 1    
    59   30   32 1    
    60   30  107 1    
    61   31  108 1    
    62   31  109 1    
    63   31  110 1    
    64   32   33 am   BACKBONE|DICT|INTERRES
    65   32  111 1    
    66   33   34 2    
    67   33   35 1    
    68   35   36 1    
    69   35   37 1    
    70   35  112 1    
    71   36  113 1    
    72   36  114 1    
    73   36  115 1    
    74   37   38 am   BACKBONE|DICT|INTERRES
    75   37  116 1    
    76   38   39 2    
    77   38   40 1    
    78   40   41 1    
    79   40   42 1    
    80   40  117 1    
    81   41  118 1    
    82   41  119 1    
    83   41  120 1    
    84   42   43 am   BACKBONE|DICT|INTERRES
    85   42  121 1    
    86   43   44 2    
    87   43   45 1    
    88   45   46 1    
    89   45   47 1    
    90   45  122 1    
    91   46  123 1    
    92   46  124 1    
    93   46  125 1    
    94   47   48 am   BACKBONE|DICT|INTERRES
    95   47  126 1    
    96   48   49 2    
    97   48   50 1    
    98   50   51 1    
    99   50   52 1    
   100   50  127 1    
   101   51  128 1    
   102   51  129 1    
   103   51  130 1    
   104   52   53 am   BACKBONE|DICT|INTERRES
   105   52  131 1    
   106   53   54 2    
   107   53   55 1    
   108   55   56 1    
   109   55   59 1    
   110   55  132 1    
   111   56   57 1    
   112   56  133 1    
   113   56  134 1    
   114   57   58 1    
   115   58  135 1    
   116   58  136 1    
   117   59   60 am   BACKBONE|DICT|INTERRES
   118   59  137 1    
   119   60   61 2    
   120   60   62 1    
   121   62   63 1    
   122   62   64 1    
   123   62  138 1    
   124   63  139 1    
   125   63  140 1    
   126   63  141 1    
   127   64   65 am   BACKBONE|DICT|INTERRES
   128   64  142 1    
   129   65   66 2    
   130   65   67 1    
   131   67   68 1    
   132   67   69 1    
   133   67  143 1    
   134   68  144 1    
   135   68  145 1    
   136   68  146 1    
   137   69   70 am   BACKBONE|DICT|INTERRES
   138   69  147 1    
   139   70   71 2    
   140   70   72 1    
   141   72   73 1    
   142   72   74 1    
   143   72  148 1    
   144   73  149 1    
   145   73  150 1    
   146   73  151 1    
   147   74   75 am   BACKBONE|DICT|INTERRES
   148   74  152 1    
   149   75   76 2    
   150   75   77 1    
   151   77   78 1    
   152   77   79 1    
   153   77  153 1    
   154   78  154 1    
   155   78  155 1    
   156   78  156 1    
   157   79   80 am   BACKBONE|DICT|INTERRES
   158   79  157 1    
   159   80   81 2    
@<TRIPOS>SUBSTRUCTURE
     1 UNK         1 GROUP             0       ****    0 ROOT    
