@<TRIPOS>MOLECULE
3R207
157   159    1
SMALL
USER_CHARGES


@<TRIPOS>ATOM
      1 CA        -49.0233  -22.5614    3.5311 C.3       0 UNK        -0.1975 
      2 C         -48.9886  -23.4172    4.7875 C.2       0 UNK         0.4852 
      3 O         -48.1249  -24.2874    4.9076 O.2       0 UNK        -0.5216 
      4 N         -49.9036  -23.1631    5.7358 N.am      1 UNK        -0.4461 
      5 CA        -50.0769  -23.9103    6.9925 C.3       1 UNK         0.0864 
      6 C6        -50.6862  -25.3197    6.7540 C.3       14 UNK        -0.0898 
      7 S7        -52.4517  -25.1854    6.3204 S.3       14 UNK        -0.2598 
      8 C8        -52.8536  -26.8947    5.8416 C.3       14 UNK         0.0286 
      9 C9        -52.7507  -27.8701    7.0071 C.ar      14 UNK        -0.0844 
     10 C10       -51.7722  -28.8662    7.0015 C.ar      14 UNK        -0.0881 
     11 C11       -51.6924  -29.7867    8.0488 C.ar      14 UNK        -0.0643 
     12 C12       -52.5855  -29.6935    9.1185 C.ar      14 UNK        -0.0930 
     13 C13       -53.5763  -28.7022    9.1429 C.ar      14 UNK        -0.0827 
     14 C14       -53.6512  -27.7994    8.0754 C.ar      14 UNK        -0.1249 
     15 C15       -54.5777  -28.5589   10.2933 C.3       14 UNK         0.0141 
     16 S16       -54.9225  -30.0876   11.2348 S.3       14 UNK        -0.2313 
     17 C17       -53.6107  -30.0602   12.5053 C.3       14 UNK        -0.0915 
     18 CA        -54.0289  -30.7962   13.8106 C.3       13 UNK         0.0968 
     19 C         -52.8934  -30.9713   14.8655 C.2       13 UNK         0.5732 
     20 N         -51.6516  -30.5983   14.5848 N.am      13 UNK        -0.7310 
     21 O         -53.1338  -31.5061   15.9465 O.2       13 UNK        -0.5035 
     22 N         -55.2579  -30.2633   14.4208 N.am      13 UNK        -0.4233 
     23 C         -55.3811  -29.0630   14.9988 C.2       13 UNK         0.4989 
     24 O         -54.5095  -28.1892   14.9781 O.2       13 UNK        -0.4996 
     25 CA        -56.6940  -28.8001   15.7497 C.3       12 UNK         0.0216 
     26 CB        -56.9270  -29.8308   16.8747 C.3       12 UNK        -0.1964 
     27 N         -56.6143  -27.4590   16.3147 N.am      12 UNK        -0.4276 
     28 C         -57.6229  -26.6980   16.7455 C.2       12 UNK         0.5020 
     29 O         -58.8033  -27.0504   16.7325 O.2       12 UNK        -0.5489 
     30 CA        -57.2548  -25.3086   17.2970 C.3       11 UNK         0.0294 
     31 CB        -57.3198  -25.3075   18.8331 C.3       11 UNK        -0.2019 
     32 N         -55.9259  -24.8490   16.8796 N.am      11 UNK        -0.4493 
     33 C         -55.6181  -24.3787   15.6661 C.2       11 UNK         0.4932 
     34 O         -56.4309  -24.2883   14.7458 O.2       11 UNK        -0.5029 
     35 CA        -54.1703  -23.9099   15.4389 C.3       10 UNK         0.0280 
     36 CB        -53.9047  -22.5675   16.1477 C.3       10 UNK        -0.1976 
     37 N         -53.1231  -24.8920   15.7547 N.am      10 UNK        -0.4242 
     38 C         -52.7835  -25.4291   16.9389 C.2       10 UNK         0.5072 
     39 O         -53.4119  -25.2382   17.9818 O.2       10 UNK        -0.5224 
     40 CA        -51.5144  -26.3081   16.9934 C.3       9 UNK         0.0343 
     41 CB        -51.8675  -27.7994   17.1002 C.3       9 UNK        -0.2003 
     42 N         -50.6063  -26.1080   15.8603 N.am      9 UNK        -0.4272 
     43 C         -49.8811  -24.9991   15.6554 C.2       9 UNK         0.4988 
     44 O         -49.8072  -24.0765   16.4682 O.2       9 UNK        -0.5108 
     45 CA        -49.1270  -24.8712   14.3165 C.3       8 UNK         0.0248 
     46 CB        -47.6237  -25.1122   14.5276 C.3       8 UNK        -0.2001 
     47 N         -49.6161  -25.7176   13.2147 N.am      8 UNK        -0.4140 
     48 C         -50.8638  -25.6881   12.7142 C.2       8 UNK         0.5028 
     49 O         -51.7695  -25.0186   13.2116 O.2       8 UNK        -0.5428 
     50 CA        -51.1821  -26.5119   11.4523 C.3       7 UNK         0.0264 
     51 CB        -51.5740  -25.5774   10.2992 C.3       7 UNK        -0.1988 
     52 N         -50.0951  -27.3913   11.0140 N.am      7 UNK        -0.4454 
     53 C         -49.8395  -28.5925   11.5518 C.2       7 UNK         0.5027 
     54 O         -50.5338  -29.0930   12.4367 O.2       7 UNK        -0.5083 
     55 CA        -48.5802  -29.3551   11.0823 C.3       6 UNK         0.0844 
     56 C56       -48.9229  -30.6106   10.2357 C.3       14 UNK        -0.0967 
     57 S57       -49.0048  -30.3203    8.4316 S.3       14 UNK        -0.2604 
     58 C58       -50.6667  -30.9064    7.9935 C.3       14 UNK         0.0134 
     59 N         -47.5596  -28.5130   10.4486 N.am      6 UNK        -0.4116 
     60 C         -46.9045  -27.5002   11.0243 C.2       5 UNK         0.5034 
     61 O         -47.0939  -27.1558   12.1898 O.2       5 UNK        -0.5045 
     62 CA        -45.9168  -26.6961   10.1642 C.3       5 UNK         0.0224 
     63 CB        -44.4557  -27.0507   10.5001 C.3       5 UNK        -0.1978 
     64 N         -46.1735  -26.7466    8.7178 N.am      5 UNK        -0.4737 
     65 C         -45.9737  -27.7390    7.8385 C.2       4 UNK         0.5027 
     66 O         -45.5819  -28.8635    8.1462 O.2       4 UNK        -0.5211 
     67 CA        -46.2736  -27.4157    6.3618 C.3       4 UNK         0.0297 
     68 CB        -47.7350  -27.7475    6.0235 C.3       4 UNK        -0.1993 
     69 N         -46.0046  -26.0116    6.0346 N.am      4 UNK        -0.4486 
     70 C         -44.7784  -25.4684    5.9871 C.2       3 UNK         0.4961 
     71 O         -43.7351  -26.1160    6.0797 O.2       3 UNK        -0.5105 
     72 CA        -44.7028  -23.9390    5.8543 C.3       3 UNK         0.0299 
     73 CB        -44.8114  -23.5015    4.3842 C.3       3 UNK        -0.1972 
     74 N         -45.7361  -23.2795    6.6572 N.am      3 UNK        -0.4305 
     75 C         -45.6813  -23.1479    7.9919 C.2       2 UNK         0.5006 
     76 O         -44.7162  -23.4930    8.6735 O.2       2 UNK        -0.5106 
     77 CA        -46.9051  -22.5377    8.6995 C.3       2 UNK         0.0296 
     78 CB        -46.6930  -21.0342    8.9391 C.3       2 UNK        -0.2002 
     79 N         -48.1641  -22.7401    7.9782 N.am      2 UNK        -0.4032 
     80 C         -48.7869  -23.9205    7.8450 C.2       1 UNK         0.5000 
     81 O         -48.3640  -24.9677    8.3374 O.2       1 UNK        -0.5238 
     82 H82       -49.8221  -21.8209    3.5631 H         1 UNK         0.0889 
     83 H83       -49.1789  -23.1914    2.6560 H         1 UNK         0.0889 
     84 H84       -48.0765  -22.0364    3.4088 H         1 UNK         0.0889 
     85 H85       -50.5832  -22.4321    5.5754 H         1 UNK         0.3028 
     86 H86       -50.7889  -23.3413    7.5931 H         1 UNK         0.0864 
     87 H87       -50.1597  -25.8440    5.9559 H         1 UNK         0.0720 
     88 H88       -50.6046  -25.9555    7.6348 H         1 UNK         0.0720 
     89 H89       -52.2037  -27.1963    5.0186 H         1 UNK         0.0814 
     90 H90       -53.8712  -26.9186    5.4494 H         1 UNK         0.0814 
     91 H91       -51.0777  -28.9381    6.1756 H         1 UNK         0.1469 
     92 H92       -52.5073  -30.4126    9.9175 H         1 UNK         0.1381 
     93 H93       -54.4089  -27.0274    8.0766 H         1 UNK         0.1206 
     94 H94       -54.2434  -27.7721   10.9695 H         1 UNK         0.0813 
     95 H95       -55.5308  -28.2171    9.8870 H         1 UNK         0.0813 
     96 H96       -53.3267  -29.0297   12.7214 H         1 UNK         0.0638 
     97 H97       -52.7318  -30.5438   12.0812 H         1 UNK         0.0638 
     98 H98       -54.2767  -31.8182   13.5217 H         1 UNK         0.0568 
     99 H99       -50.9366  -30.7505   15.2765 H         1 UNK         0.3450 
    100 H100      -51.4123  -30.1225   13.7187 H         1 UNK         0.3450 
    101 H101      -56.0198  -30.9201   14.4987 H         1 UNK         0.2987 
    102 H102      -57.5149  -28.8372   15.0307 H         1 UNK         0.0766 
    103 H103      -57.8362  -29.6127   17.4352 H         1 UNK         0.0798 
    104 H104      -56.0963  -29.8460   17.5818 H         1 UNK         0.0798 
    105 H105      -57.0368  -30.8401   16.4773 H         1 UNK         0.0798 
    106 H106      -55.6802  -27.0664   16.2866 H         1 UNK         0.3198 
    107 H107      -57.9981  -24.6018   16.9217 H         1 UNK         0.0843 
    108 H108      -56.5867  -25.9882   19.2680 H         1 UNK         0.0831 
    109 H109      -58.3044  -25.6209   19.1831 H         1 UNK         0.0831 
    110 H110      -57.1355  -24.3120   19.2375 H         1 UNK         0.0831 
    111 H111      -55.1637  -24.9263   17.5519 H         1 UNK         0.3133 
    112 H112      -54.0712  -23.7296   14.3672 H         1 UNK         0.0566 
    113 H113      -52.9173  -22.1788   15.8976 H         1 UNK         0.0814 
    114 H114      -54.6350  -21.8158   15.8453 H         1 UNK         0.0814 
    115 H115      -53.9627  -22.6575   17.2328 H         1 UNK         0.0814 
    116 H116      -52.5466  -25.1325   14.9506 H         1 UNK         0.3091 
    117 H117      -50.9821  -26.0281   17.9049 H         1 UNK         0.0702 
    118 H118      -50.9908  -28.3943   17.3564 H         1 UNK         0.0785 
    119 H119      -52.2644  -28.1856   16.1631 H         1 UNK         0.0785 
    120 H120      -52.6165  -27.9774   17.8732 H         1 UNK         0.0785 
    121 H121      -50.6076  -26.8177   15.1419 H         1 UNK         0.2998 
    122 H122      -49.2540  -23.8361   13.9930 H         1 UNK         0.0697 
    123 H123      -47.4151  -26.1518   14.7831 H         1 UNK         0.0825 
    124 H124      -47.2341  -24.4927   15.3368 H         1 UNK         0.0825 
    125 H125      -47.0526  -24.8637   13.6331 H         1 UNK         0.0825 
    126 H126      -48.9218  -26.3035   12.7635 H         1 UNK         0.3029 
    127 H127      -52.0516  -27.1264   11.6922 H         1 UNK         0.0897 
    128 H128      -51.9235  -26.1470    9.4412 H         1 UNK         0.0792 
    129 H129      -52.3889  -24.9117   10.5872 H         1 UNK         0.0792 
    130 H130      -50.7383  -24.9536    9.9831 H         1 UNK         0.0792 
    131 H131      -49.4860  -27.0445   10.2863 H         1 UNK         0.3086 
    132 H132      -48.1256  -29.7219   12.0052 H         1 UNK         0.0583 
    133 H133      -48.1417  -31.3563   10.3906 H         1 UNK         0.1020 
    134 H134      -49.8383  -31.0892   10.5896 H         1 UNK         0.1020 
    135 H135      -50.6332  -31.3064    6.9790 H         1 UNK         0.0694 
    136 H136      -50.9573  -31.7416    8.6324 H         1 UNK         0.0694 
    137 H137      -47.3217  -28.7497    9.4933 H         1 UNK         0.2989 
    138 H138      -46.0669  -25.6511   10.4414 H         1 UNK         0.1055 
    139 H139      -44.2496  -26.8827   11.5580 H         1 UNK         0.0806 
    140 H140      -43.7599  -26.4330    9.9320 H         1 UNK         0.0806 
    141 H141      -44.2286  -28.0960   10.2897 H         1 UNK         0.0806 
    142 H142      -46.6478  -25.9233    8.3573 H         1 UNK         0.3061 
    143 H143      -45.6265  -28.0379    5.7400 H         1 UNK         0.0734 
    144 H144      -47.9958  -27.4348    5.0122 H         1 UNK         0.0832 
    145 H145      -47.9096  -28.8218    6.0850 H         1 UNK         0.0832 
    146 H146      -48.4268  -27.2667    6.7153 H         1 UNK         0.0832 
    147 H147      -46.8086  -25.4122    5.8665 H         1 UNK         0.3156 
    148 H148      -43.7256  -23.6195    6.2231 H         1 UNK         0.0589 
    149 H149      -45.7500  -23.8166    3.9288 H         1 UNK         0.0808 
    150 H150      -44.7366  -22.4186    4.2853 H         1 UNK         0.0808 
    151 H151      -44.0050  -23.9364    3.7923 H         1 UNK         0.0808 
    152 H152      -46.5824  -23.0127    6.1747 H         1 UNK         0.3098 
    153 H153      -46.9941  -23.0267    9.6723 H         1 UNK         0.0720 
    154 H154      -47.5124  -20.6042    9.5155 H         1 UNK         0.0791 
    155 H155      -46.6135  -20.4818    8.0020 H         1 UNK         0.0791 
    156 H156      -45.7755  -20.8547    9.5017 H         1 UNK         0.0791 
    157 H157      -48.5738  -21.9283    7.5384 H         1 UNK         0.3028 
@<TRIPOS>BOND
     1    1    2 1    
     2    1   82 1    
     3    1   83 1    
     4    1   84 1    
     5    2    3 2    
     6    2    4 am   BACKBONE|DICT|INTERRES
     7    4    5 1    
     8    4   85 1    
     9    5    6 1    
    10    5   80 1    
    11    5   86 1    
    12    6    7 1    
    13    6   87 1    
    14    6   88 1    
    15    7    8 1    
    16    8    9 1    
    17    8   89 1    
    18    8   90 1    
    19    9   10 ar   
    20    9   14 ar   
    21   10   11 ar   
    22   10   91 1    
    23   11   12 ar   
    24   11   58 1    
    25   12   13 ar   
    26   12   92 1    
    27   13   14 ar   
    28   13   15 1    
    29   14   93 1    
    30   15   16 1    
    31   15   94 1    
    32   15   95 1    
    33   16   17 1    
    34   17   18 1    
    35   17   96 1    
    36   17   97 1    
    37   18   19 1    
    38   18   22 1    
    39   18   98 1    
    40   19   20 am   BACKBONE|DICT|INTERRES
    41   19   21 2    
    42   20   99 1    
    43   20  100 1    
    44   22   23 am   BACKBONE|DICT|INTERRES
    45   22  101 1    
    46   23   24 2    
    47   23   25 1    
    48   25   26 1    
    49   25   27 1    
    50   25  102 1    
    51   26  103 1    
    52   26  104 1    
    53   26  105 1    
    54   27   28 am   BACKBONE|DICT|INTERRES
    55   27  106 1    
    56   28   29 2    
    57   28   30 1    
    58   30   31 1    
    59   30   32 1    
    60   30  107 1    
    61   31  108 1    
    62   31  109 1    
    63   31  110 1    
    64   32   33 am   BACKBONE|DICT|INTERRES
    65   32  111 1    
    66   33   34 2    
    67   33   35 1    
    68   35   36 1    
    69   35   37 1    
    70   35  112 1    
    71   36  113 1    
    72   36  114 1    
    73   36  115 1    
    74   37   38 am   BACKBONE|DICT|INTERRES
    75   37  116 1    
    76   38   39 2    
    77   38   40 1    
    78   40   41 1    
    79   40   42 1    
    80   40  117 1    
    81   41  118 1    
    82   41  119 1    
    83   41  120 1    
    84   42   43 am   BACKBONE|DICT|INTERRES
    85   42  121 1    
    86   43   44 2    
    87   43   45 1    
    88   45   46 1    
    89   45   47 1    
    90   45  122 1    
    91   46  123 1    
    92   46  124 1    
    93   46  125 1    
    94   47   48 am   BACKBONE|DICT|INTERRES
    95   47  126 1    
    96   48   49 2    
    97   48   50 1    
    98   50   51 1    
    99   50   52 1    
   100   50  127 1    
   101   51  128 1    
   102   51  129 1    
   103   51  130 1    
   104   52   53 am   BACKBONE|DICT|INTERRES
   105   52  131 1    
   106   53   54 2    
   107   53   55 1    
   108   55   56 1    
   109   55   59 1    
   110   55  132 1    
   111   56   57 1    
   112   56  133 1    
   113   56  134 1    
   114   57   58 1    
   115   58  135 1    
   116   58  136 1    
   117   59   60 am   BACKBONE|DICT|INTERRES
   118   59  137 1    
   119   60   61 2    
   120   60   62 1    
   121   62   63 1    
   122   62   64 1    
   123   62  138 1    
   124   63  139 1    
   125   63  140 1    
   126   63  141 1    
   127   64   65 am   BACKBONE|DICT|INTERRES
   128   64  142 1    
   129   65   66 2    
   130   65   67 1    
   131   67   68 1    
   132   67   69 1    
   133   67  143 1    
   134   68  144 1    
   135   68  145 1    
   136   68  146 1    
   137   69   70 am   BACKBONE|DICT|INTERRES
   138   69  147 1    
   139   70   71 2    
   140   70   72 1    
   141   72   73 1    
   142   72   74 1    
   143   72  148 1    
   144   73  149 1    
   145   73  150 1    
   146   73  151 1    
   147   74   75 am   BACKBONE|DICT|INTERRES
   148   74  152 1    
   149   75   76 2    
   150   75   77 1    
   151   77   78 1    
   152   77   79 1    
   153   77  153 1    
   154   78  154 1    
   155   78  155 1    
   156   78  156 1    
   157   79   80 am   BACKBONE|DICT|INTERRES
   158   79  157 1    
   159   80   81 2    
@<TRIPOS>SUBSTRUCTURE
     1 UNK         1 GROUP             0       ****    0 ROOT    
