@<TRIPOS>MOLECULE
3R207
157   159    1
SMALL
USER_CHARGES


@<TRIPOS>ATOM
      1 CA        -46.2716  -30.4455    4.4910 C.3       0 UNK        -0.1975 
      2 C         -47.2311  -29.4540    3.8491 C.2       0 UNK         0.4852 
      3 O         -47.0554  -29.0983    2.6826 O.2       0 UNK        -0.5216 
      4 N         -48.2476  -29.0144    4.6003 N.am      1 UNK        -0.4461 
      5 CA        -49.2138  -27.9899    4.1944 C.3       1 UNK         0.0864 
      6 C6        -50.5473  -28.1125    4.9792 C.3       14 UNK        -0.0898 
      7 S7        -50.3627  -28.1605    6.7977 S.3       14 UNK        -0.2598 
      8 C8        -50.7358  -29.9153    7.1096 C.3       14 UNK         0.0286 
      9 C9        -50.6361  -30.2506    8.5879 C.ar      14 UNK        -0.0844 
     10 C10       -49.4004  -30.5644    9.1568 C.ar      14 UNK        -0.0881 
     11 C11       -49.3037  -30.8797   10.5149 C.ar      14 UNK        -0.0643 
     12 C12       -50.4532  -30.8584   11.3131 C.ar      14 UNK        -0.0930 
     13 C13       -51.6994  -30.5511   10.7535 C.ar      14 UNK        -0.0827 
     14 C14       -51.7819  -30.2625    9.3861 C.ar      14 UNK        -0.1249 
     15 C15       -52.9585  -30.5562   11.6159 C.3       14 UNK         0.0141 
     16 S16       -53.9335  -29.0349   11.3992 S.3       14 UNK        -0.2313 
     17 C17       -55.3573  -29.3282   12.4968 C.3       14 UNK        -0.0915 
     18 CA        -56.4079  -28.1951   12.3628 C.3       13 UNK         0.0968 
     19 C         -57.6703  -28.4754   13.2223 C.2       13 UNK         0.5732 
     20 N         -58.5178  -29.3977   12.7853 N.am      13 UNK        -0.7310 
     21 O         -57.8817  -27.8956   14.2852 O.2       13 UNK        -0.5035 
     22 N         -55.8033  -26.8817   12.6216 N.am      13 UNK        -0.4233 
     23 C         -56.3005  -25.7101   12.2151 C.2       13 UNK         0.4989 
     24 O         -57.3697  -25.5835   11.6143 O.2       13 UNK        -0.4996 
     25 CA        -55.4108  -24.4858   12.4924 C.3       12 UNK         0.0216 
     26 CB        -56.0689  -23.1413   12.1114 C.3       12 UNK        -0.1964 
     27 N         -54.8958  -24.4710   13.8661 N.am      12 UNK        -0.4276 
     28 C         -55.5985  -24.2969   14.9956 C.2       12 UNK         0.5020 
     29 O         -56.8173  -24.1160   15.0324 O.2       12 UNK        -0.5489 
     30 CA        -54.7840  -24.2924   16.3018 C.3       11 UNK         0.0294 
     31 CB        -55.6601  -24.2677   17.5737 C.3       11 UNK        -0.2019 
     32 N         -53.7886  -25.3677   16.3595 N.am      11 UNK        -0.4493 
     33 C         -54.0088  -26.6904   16.4324 C.2       11 UNK         0.4932 
     34 O         -55.1314  -27.1941   16.4414 O.2       11 UNK        -0.5029 
     35 CA        -52.7837  -27.6269   16.5203 C.3       10 UNK         0.0280 
     36 CB        -52.8346  -28.7085   15.4277 C.3       10 UNK        -0.1976 
     37 N         -51.4960  -26.9318   16.4453 N.am      10 UNK        -0.4242 
     38 C         -50.9278  -26.2394   17.4427 C.2       10 UNK         0.5072 
     39 O         -51.3882  -26.1777   18.5830 O.2       10 UNK        -0.5224 
     40 CA        -49.6602  -25.4357   17.0983 C.3       9 UNK         0.0343 
     41 CB        -48.4054  -26.2995   17.2967 C.3       9 UNK        -0.2003 
     42 N         -49.6727  -24.8798   15.7391 N.am      9 UNK        -0.4272 
     43 C         -50.5688  -23.9890   15.2851 C.2       9 UNK         0.4988 
     44 O         -51.4640  -23.5082   15.9796 O.2       9 UNK        -0.5108 
     45 CA        -50.5013  -23.6197   13.7933 C.3       8 UNK         0.0248 
     46 CB        -49.3567  -22.6336   13.5120 C.3       8 UNK        -0.2001 
     47 N         -50.3669  -24.7986   12.9369 N.am      8 UNK        -0.4140 
     48 C         -51.2792  -25.7760   12.8347 C.2       8 UNK         0.5028 
     49 O         -52.3822  -25.7474   13.3838 O.2       8 UNK        -0.5428 
     50 CA        -50.8654  -27.0134   12.0253 C.3       7 UNK         0.0264 
     51 CB        -51.0855  -26.7884   10.5205 C.3       7 UNK        -0.1988 
     52 N         -49.4735  -27.3904   12.2849 N.am      7 UNK        -0.4454 
     53 C         -49.0483  -27.9268   13.4386 C.2       7 UNK         0.5027 
     54 O         -49.7987  -28.1958   14.3756 O.2       7 UNK        -0.5083 
     55 CA        -47.5334  -28.1604   13.6130 C.3       6 UNK         0.0844 
     56 C56       -47.1083  -29.5937   13.2133 C.3       14 UNK        -0.0967 
     57 S57       -46.8954  -29.8429   11.4143 S.3       14 UNK        -0.2604 
     58 C58       -47.9567  -31.2847   11.0917 C.3       14 UNK         0.0134 
     59 N         -46.7219  -27.1320   12.9609 N.am      6 UNK        -0.4116 
     60 C         -46.6554  -25.8516   13.3450 C.2       5 UNK         0.5034 
     61 O         -47.2219  -25.4039   14.3406 O.2       5 UNK        -0.5045 
     62 CA        -45.8727  -24.8983   12.4256 C.3       5 UNK         0.0224 
     63 CB        -44.3779  -24.9083   12.7820 C.3       5 UNK        -0.1978 
     64 N         -46.0435  -25.1928   10.9963 N.am      5 UNK        -0.4737 
     65 C         -47.2229  -25.1881   10.3607 C.2       4 UNK         0.5027 
     66 O         -48.2954  -24.9677   10.9267 O.2       4 UNK        -0.5211 
     67 CA        -47.2004  -25.5577    8.8670 C.3       4 UNK         0.0297 
     68 CB        -47.2086  -27.0876    8.7034 C.3       4 UNK        -0.1993 
     69 N         -48.3336  -25.0043    8.1213 N.am      4 UNK        -0.4486 
     70 C         -48.6265  -23.7026    7.9947 C.2       3 UNK         0.4961 
     71 O         -47.9425  -22.7889    8.4618 O.2       3 UNK        -0.5105 
     72 CA        -49.8884  -23.3871    7.1682 C.3       3 UNK         0.0299 
     73 CB        -50.2937  -21.8984    7.2248 C.3       3 UNK        -0.1972 
     74 N         -49.7598  -23.8457    5.7786 N.am      3 UNK        -0.4305 
     75 C         -48.8283  -23.4784    4.8818 C.2       2 UNK         0.5006 
     76 O         -47.9681  -22.6205    5.0890 O.2       2 UNK        -0.5106 
     77 CA        -48.8765  -24.1939    3.5140 C.3       2 UNK         0.0296 
     78 CB        -47.5734  -24.0222    2.7027 C.3       2 UNK        -0.2002 
     79 N         -49.2418  -25.6160    3.6005 N.am      2 UNK        -0.4032 
     80 C         -48.6066  -26.5741    4.2954 C.2       1 UNK         0.5000 
     81 O         -47.6140  -26.3741    5.0012 O.2       1 UNK        -0.5238 
     82 H82       -46.2556  -31.3748    3.9222 H         1 UNK         0.0889 
     83 H83       -46.5540  -30.6808    5.5171 H         1 UNK         0.0889 
     84 H84       -45.2622  -30.0351    4.5032 H         1 UNK         0.0889 
     85 H85       -48.3125  -29.2961    5.5671 H         1 UNK         0.3028 
     86 H86       -49.4443  -28.1548    3.1392 H         1 UNK         0.0864 
     87 H87       -51.0658  -29.0150    4.6521 H         1 UNK         0.0720 
     88 H88       -51.2265  -27.2960    4.7280 H         1 UNK         0.0720 
     89 H89       -50.0504  -30.5451    6.5407 H         1 UNK         0.0814 
     90 H90       -51.7377  -30.1420    6.7415 H         1 UNK         0.0814 
     91 H91       -48.5111  -30.5693    8.5416 H         1 UNK         0.1469 
     92 H92       -50.3784  -31.0963   12.3653 H         1 UNK         0.1381 
     93 H93       -52.7412  -30.0293    8.9447 H         1 UNK         0.1206 
     94 H94       -52.7040  -30.6615   12.6718 H         1 UNK         0.0813 
     95 H95       -53.5691  -31.4194   11.3484 H         1 UNK         0.0813 
     96 H96       -55.0047  -29.4094   13.5252 H         1 UNK         0.0638 
     97 H97       -55.7952  -30.2939   12.2384 H         1 UNK         0.0638 
     98 H98       -56.7423  -28.1842   11.3232 H         1 UNK         0.0568 
     99 H99       -59.3394  -29.6039   13.3317 H         1 UNK         0.3450 
    100 H100      -58.3570  -29.8872   11.9189 H         1 UNK         0.3450 
    101 H101      -54.9268  -26.8886   13.1217 H         1 UNK         0.2987 
    102 H102      -54.5357  -24.6050   11.8513 H         1 UNK         0.0766 
    103 H103      -55.4013  -22.3026   12.3085 H         1 UNK         0.0798 
    104 H104      -56.9959  -22.9696   12.6590 H         1 UNK         0.0798 
    105 H105      -56.3140  -23.1168   11.0489 H         1 UNK         0.0798 
    106 H106      -53.9090  -24.7108   13.9466 H         1 UNK         0.3198 
    107 H107      -54.2145  -23.3618   16.2895 H         1 UNK         0.0843 
    108 H108      -56.3186  -25.1348   17.6317 H         1 UNK         0.0831 
    109 H109      -56.2940  -23.3804   17.5915 H         1 UNK         0.0831 
    110 H110      -55.0495  -24.2470   18.4763 H         1 UNK         0.0831 
    111 H111      -52.8264  -25.0488   16.3244 H         1 UNK         0.3133 
    112 H112      -52.8403  -28.1308   17.4872 H         1 UNK         0.0566 
    113 H113      -51.9879  -29.3907   15.5029 H         1 UNK         0.0814 
    114 H114      -53.7381  -29.3118   15.5183 H         1 UNK         0.0814 
    115 H115      -52.8261  -28.2728   14.4283 H         1 UNK         0.0814 
    116 H116      -51.0084  -26.9906   15.5575 H         1 UNK         0.3091 
    117 H117      -49.6063  -24.5948   17.7929 H         1 UNK         0.0702 
    118 H118      -47.4954  -25.7272   17.1151 H         1 UNK         0.0785 
    119 H119      -48.4008  -27.1603   16.6284 H         1 UNK         0.0785 
    120 H120      -48.3510  -26.6794   18.3178 H         1 UNK         0.0785 
    121 H121      -48.9225  -25.1780   15.1199 H         1 UNK         0.2998 
    122 H122      -51.4410  -23.1297   13.5297 H         1 UNK         0.0697 
    123 H123      -48.3837  -23.0568   13.7604 H         1 UNK         0.0825 
    124 H124      -49.4751  -21.7228   14.1002 H         1 UNK         0.0825 
    125 H125      -49.3343  -22.3422   12.4616 H         1 UNK         0.0825 
    126 H126      -49.5154  -24.8805   12.3853 H         1 UNK         0.3029 
    127 H127      -51.4951  -27.8455   12.3420 H         1 UNK         0.0897 
    128 H128      -50.5584  -25.9102   10.1494 H         1 UNK         0.0792 
    129 H129      -52.1447  -26.6448   10.3042 H         1 UNK         0.0792 
    130 H130      -50.7517  -27.6473    9.9397 H         1 UNK         0.0792 
    131 H131      -48.7957  -27.1373   11.5805 H         1 UNK         0.3086 
    132 H132      -47.3411  -28.0716   14.6842 H         1 UNK         0.0583 
    133 H133      -46.1482  -29.8194   13.6802 H         1 UNK         0.1020 
    134 H134      -47.8026  -30.3271   13.6278 H         1 UNK         0.1020 
    135 H135      -47.4452  -31.9311   10.3769 H         1 UNK         0.0694 
    136 H136      -48.0821  -31.8866   11.9925 H         1 UNK         0.0694 
    137 H137      -46.2339  -27.4172   12.1243 H         1 UNK         0.2989 
    138 H138      -46.2598  -23.8921   12.6012 H         1 UNK         0.1055 
    139 H139      -44.2275  -24.6756   13.8373 H         1 UNK         0.0806 
    140 H140      -43.8277  -24.1627   12.2076 H         1 UNK         0.0806 
    141 H141      -43.9219  -25.8813   12.5948 H         1 UNK         0.0806 
    142 H142      -45.2050  -25.3925   10.4688 H         1 UNK         0.3061 
    143 H143      -46.2871  -25.1565    8.4232 H         1 UNK         0.0734 
    144 H144      -48.1102  -27.5358    9.1244 H         1 UNK         0.0832 
    145 H145      -47.1544  -27.3743    7.6527 H         1 UNK         0.0832 
    146 H146      -46.3541  -27.5445    9.2038 H         1 UNK         0.0832 
    147 H147      -48.9444  -25.6770    7.6815 H         1 UNK         0.3156 
    148 H148      -50.7026  -23.9624    7.6122 H         1 UNK         0.0589 
    149 H149      -49.5228  -21.2480    6.8104 H         1 UNK         0.0808 
    150 H150      -51.2164  -21.7173    6.6736 H         1 UNK         0.0808 
    151 H151      -50.4636  -21.5822    8.2547 H         1 UNK         0.0808 
    152 H152      -50.4152  -24.5604    5.4959 H         1 UNK         0.3098 
    153 H153      -49.6758  -23.7073    2.9530 H         1 UNK         0.0720 
    154 H154      -47.6429  -24.5118    1.7314 H         1 UNK         0.0791 
    155 H155      -46.7135  -24.4397    3.2278 H         1 UNK         0.0791 
    156 H156      -47.3614  -22.9685    2.5172 H         1 UNK         0.0791 
    157 H157      -50.0553  -25.8820    3.0622 H         1 UNK         0.3028 
@<TRIPOS>BOND
     1    1    2 1    
     2    1   82 1    
     3    1   83 1    
     4    1   84 1    
     5    2    3 2    
     6    2    4 am   BACKBONE|DICT|INTERRES
     7    4    5 1    
     8    4   85 1    
     9    5    6 1    
    10    5   80 1    
    11    5   86 1    
    12    6    7 1    
    13    6   87 1    
    14    6   88 1    
    15    7    8 1    
    16    8    9 1    
    17    8   89 1    
    18    8   90 1    
    19    9   10 ar   
    20    9   14 ar   
    21   10   11 ar   
    22   10   91 1    
    23   11   12 ar   
    24   11   58 1    
    25   12   13 ar   
    26   12   92 1    
    27   13   14 ar   
    28   13   15 1    
    29   14   93 1    
    30   15   16 1    
    31   15   94 1    
    32   15   95 1    
    33   16   17 1    
    34   17   18 1    
    35   17   96 1    
    36   17   97 1    
    37   18   19 1    
    38   18   22 1    
    39   18   98 1    
    40   19   20 am   BACKBONE|DICT|INTERRES
    41   19   21 2    
    42   20   99 1    
    43   20  100 1    
    44   22   23 am   BACKBONE|DICT|INTERRES
    45   22  101 1    
    46   23   24 2    
    47   23   25 1    
    48   25   26 1    
    49   25   27 1    
    50   25  102 1    
    51   26  103 1    
    52   26  104 1    
    53   26  105 1    
    54   27   28 am   BACKBONE|DICT|INTERRES
    55   27  106 1    
    56   28   29 2    
    57   28   30 1    
    58   30   31 1    
    59   30   32 1    
    60   30  107 1    
    61   31  108 1    
    62   31  109 1    
    63   31  110 1    
    64   32   33 am   BACKBONE|DICT|INTERRES
    65   32  111 1    
    66   33   34 2    
    67   33   35 1    
    68   35   36 1    
    69   35   37 1    
    70   35  112 1    
    71   36  113 1    
    72   36  114 1    
    73   36  115 1    
    74   37   38 am   BACKBONE|DICT|INTERRES
    75   37  116 1    
    76   38   39 2    
    77   38   40 1    
    78   40   41 1    
    79   40   42 1    
    80   40  117 1    
    81   41  118 1    
    82   41  119 1    
    83   41  120 1    
    84   42   43 am   BACKBONE|DICT|INTERRES
    85   42  121 1    
    86   43   44 2    
    87   43   45 1    
    88   45   46 1    
    89   45   47 1    
    90   45  122 1    
    91   46  123 1    
    92   46  124 1    
    93   46  125 1    
    94   47   48 am   BACKBONE|DICT|INTERRES
    95   47  126 1    
    96   48   49 2    
    97   48   50 1    
    98   50   51 1    
    99   50   52 1    
   100   50  127 1    
   101   51  128 1    
   102   51  129 1    
   103   51  130 1    
   104   52   53 am   BACKBONE|DICT|INTERRES
   105   52  131 1    
   106   53   54 2    
   107   53   55 1    
   108   55   56 1    
   109   55   59 1    
   110   55  132 1    
   111   56   57 1    
   112   56  133 1    
   113   56  134 1    
   114   57   58 1    
   115   58  135 1    
   116   58  136 1    
   117   59   60 am   BACKBONE|DICT|INTERRES
   118   59  137 1    
   119   60   61 2    
   120   60   62 1    
   121   62   63 1    
   122   62   64 1    
   123   62  138 1    
   124   63  139 1    
   125   63  140 1    
   126   63  141 1    
   127   64   65 am   BACKBONE|DICT|INTERRES
   128   64  142 1    
   129   65   66 2    
   130   65   67 1    
   131   67   68 1    
   132   67   69 1    
   133   67  143 1    
   134   68  144 1    
   135   68  145 1    
   136   68  146 1    
   137   69   70 am   BACKBONE|DICT|INTERRES
   138   69  147 1    
   139   70   71 2    
   140   70   72 1    
   141   72   73 1    
   142   72   74 1    
   143   72  148 1    
   144   73  149 1    
   145   73  150 1    
   146   73  151 1    
   147   74   75 am   BACKBONE|DICT|INTERRES
   148   74  152 1    
   149   75   76 2    
   150   75   77 1    
   151   77   78 1    
   152   77   79 1    
   153   77  153 1    
   154   78  154 1    
   155   78  155 1    
   156   78  156 1    
   157   79   80 am   BACKBONE|DICT|INTERRES
   158   79  157 1    
   159   80   81 2    
@<TRIPOS>SUBSTRUCTURE
     1 UNK         1 GROUP             0       ****    0 ROOT    
