@<TRIPOS>MOLECULE
3R207
157   159    1
SMALL
USER_CHARGES


@<TRIPOS>ATOM
      1 CA        -48.3827  -28.7047    0.8388 C.3       0 UNK        -0.1975 
      2 C         -48.3357  -28.2200    2.2806 C.2       0 UNK         0.4852 
      3 O         -47.6110  -27.2706    2.5837 O.2       0 UNK        -0.5216 
      4 N         -49.1088  -28.8581    3.1685 N.am      1 UNK        -0.4461 
      5 CA        -49.1592  -28.5582    4.6032 C.3       1 UNK         0.0864 
      6 C6        -50.3623  -29.2433    5.2943 C.3       14 UNK        -0.0898 
      7 S7        -51.9674  -28.6522    4.6637 S.3       14 UNK        -0.2598 
      8 C8        -53.1227  -29.4698    5.8129 C.3       14 UNK         0.0286 
      9 C9        -52.9750  -28.9451    7.2343 C.ar      14 UNK        -0.0844 
     10 C10       -53.5133  -27.7039    7.5840 C.ar      14 UNK        -0.0881 
     11 C11       -53.3571  -27.1948    8.8766 C.ar      14 UNK        -0.0643 
     12 C12       -52.6355  -27.9427    9.8164 C.ar      14 UNK        -0.0930 
     13 C13       -52.1182  -29.1999    9.4909 C.ar      14 UNK        -0.0827 
     14 C14       -52.2930  -29.6951    8.1964 C.ar      14 UNK        -0.1249 
     15 C15       -51.3533  -30.0242   10.5218 C.3       14 UNK         0.0141 
     16 S16       -52.1904  -30.1402   12.1398 S.3       14 UNK        -0.2313 
     17 C17       -53.8370  -30.7945   11.6958 C.3       14 UNK        -0.0915 
     18 CA        -54.9664  -29.7317   11.8734 C.3       13 UNK         0.0968 
     19 C         -56.3608  -30.1953   11.3497 C.2       13 UNK         0.5732 
     20 N         -56.4143  -30.9702   10.2738 N.am      13 UNK        -0.7310 
     21 O         -57.4078  -29.8158   11.8720 O.2       13 UNK        -0.5035 
     22 N         -54.9996  -29.1672   13.2344 N.am      13 UNK        -0.4233 
     23 C         -55.3425  -29.8124   14.3583 C.2       13 UNK         0.4989 
     24 O         -55.6903  -30.9942   14.3917 O.2       13 UNK        -0.4996 
     25 CA        -55.2639  -29.0307   15.6864 C.3       12 UNK         0.0216 
     26 CB        -54.2528  -29.6882   16.6408 C.3       12 UNK        -0.1964 
     27 N         -54.9205  -27.6110   15.5348 N.am      12 UNK        -0.4276 
     28 C         -55.7810  -26.6535   15.1606 C.2       12 UNK         0.5020 
     29 O         -56.9617  -26.8800   14.8924 O.2       12 UNK        -0.5489 
     30 CA        -55.2376  -25.2146   15.0261 C.3       11 UNK         0.0294 
     31 CB        -56.3032  -24.1481   15.3557 C.3       11 UNK        -0.2019 
     32 N         -53.9929  -24.9493   15.7607 N.am      11 UNK        -0.4493 
     33 C         -53.7922  -24.9897   17.0861 C.2       11 UNK         0.4932 
     34 O         -54.6570  -25.2918   17.9097 O.2       11 UNK        -0.5029 
     35 CA        -52.3607  -24.6472   17.5443 C.3       10 UNK         0.0280 
     36 CB        -52.1441  -24.8299   19.0618 C.3       10 UNK        -0.1976 
     37 N         -51.3460  -25.3763   16.7713 N.am      10 UNK        -0.4242 
     38 C         -51.1818  -26.7060   16.6978 C.2       10 UNK         0.5072 
     39 O         -51.8663  -27.5131   17.3254 O.2       10 UNK        -0.5224 
     40 CA        -50.1046  -27.2487   15.7393 C.3       9 UNK         0.0343 
     41 CB        -50.7569  -28.0400   14.5947 C.3       9 UNK        -0.2003 
     42 N         -49.2308  -26.2251   15.1603 N.am      9 UNK        -0.4272 
     43 C         -48.2329  -25.6085   15.8088 C.2       9 UNK         0.4988 
     44 O         -47.9579  -25.8056   16.9923 O.2       9 UNK        -0.5108 
     45 CA        -47.4099  -24.5952   15.0000 C.3       8 UNK         0.0248 
     46 CB        -46.3630  -25.3136   14.1334 C.3       8 UNK        -0.2001 
     47 N         -48.2694  -23.7617   14.1566 N.am      8 UNK        -0.4140 
     48 C         -48.8668  -22.6355   14.5731 C.2       8 UNK         0.5028 
     49 O         -48.6796  -22.1316   15.6809 O.2       8 UNK        -0.5428 
     50 CA        -49.8627  -21.9644   13.6098 C.3       7 UNK         0.0264 
     51 CB        -49.1849  -20.8471   12.8013 C.3       7 UNK        -0.1988 
     52 N         -50.5125  -22.9172   12.7036 N.am      7 UNK        -0.4454 
     53 C         -51.4551  -23.7831   13.1084 C.2       7 UNK         0.5027 
     54 O         -51.8752  -23.8312   14.2646 O.2       7 UNK        -0.5083 
     55 CA        -52.0244  -24.7921   12.0905 C.3       6 UNK         0.0844 
     56 C56       -53.3678  -24.2774   11.5147 C.3       14 UNK        -0.0967 
     57 S57       -54.4497  -25.6346   10.9551 S.3       14 UNK        -0.2604 
     58 C58       -53.9536  -25.8277    9.2084 C.3       14 UNK         0.0134 
     59 N         -51.0765  -25.1658   11.0353 N.am      6 UNK        -0.4116 
     60 C         -49.8650  -25.7085   11.2205 C.2       5 UNK         0.5034 
     61 O         -49.3917  -25.9592   12.3301 O.2       5 UNK        -0.5045 
     62 CA        -49.0043  -25.9622    9.9677 C.3       5 UNK         0.0224 
     63 CB        -49.7716  -25.8541    8.6303 C.3       5 UNK        -0.1978 
     64 N         -47.8269  -25.0887    9.9199 N.am      5 UNK        -0.4737 
     65 C         -47.8005  -23.7498   10.0265 C.2       4 UNK         0.5027 
     66 O         -48.7891  -23.0592   10.2790 O.2       4 UNK        -0.5211 
     67 CA        -46.4442  -23.0558    9.7991 C.3       4 UNK         0.0297 
     68 CB        -45.7230  -22.8266   11.1362 C.3       4 UNK        -0.1993 
     69 N         -45.5536  -23.7986    8.9036 N.am      4 UNK        -0.4486 
     70 C         -45.7723  -24.0236    7.6010 C.2       3 UNK         0.4961 
     71 O         -46.7186  -23.5529    6.9692 O.2       3 UNK        -0.5105 
     72 CA        -44.7844  -24.9604    6.8802 C.3       3 UNK         0.0299 
     73 CB        -43.3843  -25.0181    7.5343 C.3       3 UNK        -0.1972 
     74 N         -45.3412  -26.3097    6.7190 N.am      3 UNK        -0.4305 
     75 C         -45.7576  -27.1379    7.6898 C.2       2 UNK         0.5006 
     76 O         -45.7300  -26.8649    8.8919 O.2       2 UNK        -0.5106 
     77 CA        -46.3414  -28.4769    7.2214 C.3       2 UNK         0.0296 
     78 CB        -46.7604  -29.3999    8.3842 C.3       2 UNK        -0.2002 
     79 N         -47.4919  -28.2202    6.3582 N.am      2 UNK        -0.4032 
     80 C         -47.8507  -28.9691    5.3095 C.2       1 UNK         0.5000 
     81 O         -47.2284  -29.9649    4.9277 O.2       1 UNK        -0.5238 
     82 H82       -48.6997  -27.8957    0.1811 H         1 UNK         0.0889 
     83 H83       -49.0751  -29.5367    0.7108 H         1 UNK         0.0889 
     84 H84       -47.3936  -29.0346    0.5221 H         1 UNK         0.0889 
     85 H85       -49.6774  -29.6362    2.8671 H         1 UNK         0.3028 
     86 H86       -49.2738  -27.4767    4.7083 H         1 UNK         0.0864 
     87 H87       -50.3153  -30.3279    5.1772 H         1 UNK         0.0720 
     88 H88       -50.3308  -29.0469    6.3671 H         1 UNK         0.0720 
     89 H89       -52.9644  -30.5489    5.7792 H         1 UNK         0.0814 
     90 H90       -54.1440  -29.3016    5.4680 H         1 UNK         0.0814 
     91 H91       -54.0450  -27.1274    6.8389 H         1 UNK         0.1469 
     92 H92       -52.4863  -27.5619   10.8159 H         1 UNK         0.1381 
     93 H93       -51.8817  -30.6591    7.9295 H         1 UNK         0.1206 
     94 H94       -51.1788  -31.0363   10.1533 H         1 UNK         0.0813 
     95 H95       -50.3698  -29.5759   10.6682 H         1 UNK         0.0813 
     96 H96       -54.0355  -31.6705   12.3148 H         1 UNK         0.0638 
     97 H97       -53.7939  -31.1572   10.6685 H         1 UNK         0.0638 
     98 H98       -54.7258  -28.8843   11.2343 H         1 UNK         0.0568 
     99 H99       -57.3149  -31.2533    9.9211 H         1 UNK         0.3450 
    100 H100      -55.5750  -31.2682    9.8034 H         1 UNK         0.3450 
    101 H101      -54.7603  -28.1913   13.3048 H         1 UNK         0.2987 
    102 H102      -56.2504  -29.0959   16.1505 H         1 UNK         0.0766 
    103 H103      -54.2101  -29.1659   17.5970 H         1 UNK         0.0798 
    104 H104      -53.2477  -29.6979   16.2191 H         1 UNK         0.0798 
    105 H105      -54.5262  -30.7230   16.8515 H         1 UNK         0.0798 
    106 H106      -53.9779  -27.3425   15.7822 H         1 UNK         0.3198 
    107 H107      -54.9866  -25.1024   13.9716 H         1 UNK         0.0843 
    108 H108      -56.6597  -24.2368   16.3823 H         1 UNK         0.0831 
    109 H109      -57.1711  -24.2441   14.7020 H         1 UNK         0.0831 
    110 H110      -55.9109  -23.1401   15.2216 H         1 UNK         0.0831 
    111 H111      -53.2044  -24.6402   15.1924 H         1 UNK         0.3133 
    112 H112      -52.2127  -23.5903   17.3175 H         1 UNK         0.0566 
    113 H113      -51.1284  -24.5616   19.3521 H         1 UNK         0.0814 
    114 H114      -52.8230  -24.1937   19.6308 H         1 UNK         0.0814 
    115 H115      -52.3231  -25.8578   19.3785 H         1 UNK         0.0814 
    116 H116      -50.7751  -24.8067   16.1615 H         1 UNK         0.3091 
    117 H117      -49.4832  -27.9383   16.3144 H         1 UNK         0.0702 
    118 H118      -51.3346  -28.8816   14.9776 H         1 UNK         0.0785 
    119 H119      -50.0079  -28.4497   13.9164 H         1 UNK         0.0785 
    120 H120      -51.4339  -27.4211   14.0072 H         1 UNK         0.0785 
    121 H121      -49.3448  -26.0486   14.1642 H         1 UNK         0.2998 
    122 H122      -46.8732  -23.9626   15.7107 H         1 UNK         0.0697 
    123 H123      -46.8193  -25.8785   13.3194 H         1 UNK         0.0825 
    124 H124      -45.7767  -26.0150   14.7288 H         1 UNK         0.0825 
    125 H125      -45.6614  -24.6020   13.7015 H         1 UNK         0.0825 
    126 H126      -48.5177  -24.1360   13.2498 H         1 UNK         0.3029 
    127 H127      -50.6381  -21.5004   14.2242 H         1 UNK         0.0897 
    128 H128      -49.9039  -20.3219   12.1724 H         1 UNK         0.0792 
    129 H129      -48.7327  -20.1071   13.4631 H         1 UNK         0.0792 
    130 H130      -48.3960  -21.2303   12.1563 H         1 UNK         0.0792 
    131 H131      -50.1669  -22.9520   11.7477 H         1 UNK         0.3086 
    132 H132      -52.2276  -25.6997   12.6611 H         1 UNK         0.0583 
    133 H133      -53.9382  -23.7364   12.2730 H         1 UNK         0.1020 
    134 H134      -53.2075  -23.5548   10.7125 H         1 UNK         0.1020 
    135 H135      -54.8423  -25.6589    8.5983 H         1 UNK         0.0694 
    136 H136      -53.2390  -25.0566    8.9211 H         1 UNK         0.0694 
    137 H137      -51.3563  -24.9599   10.0889 H         1 UNK         0.2989 
    138 H138      -48.6317  -26.9833   10.0599 H         1 UNK         0.1055 
    139 H139      -50.1915  -24.8605    8.4694 H         1 UNK         0.0806 
    140 H140      -49.1115  -26.0585    7.7886 H         1 UNK         0.0806 
    141 H141      -50.5821  -26.5793    8.5745 H         1 UNK         0.0806 
    142 H142      -46.9501  -25.5645    9.7220 H         1 UNK         0.3061 
    143 H143      -46.6493  -22.0839    9.3456 H         1 UNK         0.0734 
    144 H144      -44.8463  -22.1915   11.0081 H         1 UNK         0.0832 
    145 H145      -46.3711  -22.3374   11.8633 H         1 UNK         0.0832 
    146 H146      -45.3919  -23.7673   11.5749 H         1 UNK         0.0832 
    147 H147      -44.7648  -24.2627    9.3307 H         1 UNK         0.3156 
    148 H148      -44.6568  -24.5548    5.8753 H         1 UNK         0.0589 
    149 H149      -43.3959  -25.4968    8.5139 H         1 UNK         0.0808 
    150 H150      -42.6879  -25.5770    6.9091 H         1 UNK         0.0808 
    151 H151      -42.9669  -24.0178    7.6584 H         1 UNK         0.0808 
    152 H152      -45.4512  -26.6180    5.7623 H         1 UNK         0.3098 
    153 H153      -45.5546  -28.9774    6.6528 H         1 UNK         0.0720 
    154 H154      -47.1064  -30.3663    8.0171 H         1 UNK         0.0791 
    155 H155      -47.5628  -28.9623    8.9786 H         1 UNK         0.0791 
    156 H156      -45.9214  -29.5907    9.0546 H         1 UNK         0.0791 
    157 H157      -48.0412  -27.4048    6.5905 H         1 UNK         0.3028 
@<TRIPOS>BOND
     1    1    2 1    
     2    1   82 1    
     3    1   83 1    
     4    1   84 1    
     5    2    3 2    
     6    2    4 am   BACKBONE|DICT|INTERRES
     7    4    5 1    
     8    4   85 1    
     9    5    6 1    
    10    5   80 1    
    11    5   86 1    
    12    6    7 1    
    13    6   87 1    
    14    6   88 1    
    15    7    8 1    
    16    8    9 1    
    17    8   89 1    
    18    8   90 1    
    19    9   10 ar   
    20    9   14 ar   
    21   10   11 ar   
    22   10   91 1    
    23   11   12 ar   
    24   11   58 1    
    25   12   13 ar   
    26   12   92 1    
    27   13   14 ar   
    28   13   15 1    
    29   14   93 1    
    30   15   16 1    
    31   15   94 1    
    32   15   95 1    
    33   16   17 1    
    34   17   18 1    
    35   17   96 1    
    36   17   97 1    
    37   18   19 1    
    38   18   22 1    
    39   18   98 1    
    40   19   20 am   BACKBONE|DICT|INTERRES
    41   19   21 2    
    42   20   99 1    
    43   20  100 1    
    44   22   23 am   BACKBONE|DICT|INTERRES
    45   22  101 1    
    46   23   24 2    
    47   23   25 1    
    48   25   26 1    
    49   25   27 1    
    50   25  102 1    
    51   26  103 1    
    52   26  104 1    
    53   26  105 1    
    54   27   28 am   BACKBONE|DICT|INTERRES
    55   27  106 1    
    56   28   29 2    
    57   28   30 1    
    58   30   31 1    
    59   30   32 1    
    60   30  107 1    
    61   31  108 1    
    62   31  109 1    
    63   31  110 1    
    64   32   33 am   BACKBONE|DICT|INTERRES
    65   32  111 1    
    66   33   34 2    
    67   33   35 1    
    68   35   36 1    
    69   35   37 1    
    70   35  112 1    
    71   36  113 1    
    72   36  114 1    
    73   36  115 1    
    74   37   38 am   BACKBONE|DICT|INTERRES
    75   37  116 1    
    76   38   39 2    
    77   38   40 1    
    78   40   41 1    
    79   40   42 1    
    80   40  117 1    
    81   41  118 1    
    82   41  119 1    
    83   41  120 1    
    84   42   43 am   BACKBONE|DICT|INTERRES
    85   42  121 1    
    86   43   44 2    
    87   43   45 1    
    88   45   46 1    
    89   45   47 1    
    90   45  122 1    
    91   46  123 1    
    92   46  124 1    
    93   46  125 1    
    94   47   48 am   BACKBONE|DICT|INTERRES
    95   47  126 1    
    96   48   49 2    
    97   48   50 1    
    98   50   51 1    
    99   50   52 1    
   100   50  127 1    
   101   51  128 1    
   102   51  129 1    
   103   51  130 1    
   104   52   53 am   BACKBONE|DICT|INTERRES
   105   52  131 1    
   106   53   54 2    
   107   53   55 1    
   108   55   56 1    
   109   55   59 1    
   110   55  132 1    
   111   56   57 1    
   112   56  133 1    
   113   56  134 1    
   114   57   58 1    
   115   58  135 1    
   116   58  136 1    
   117   59   60 am   BACKBONE|DICT|INTERRES
   118   59  137 1    
   119   60   61 2    
   120   60   62 1    
   121   62   63 1    
   122   62   64 1    
   123   62  138 1    
   124   63  139 1    
   125   63  140 1    
   126   63  141 1    
   127   64   65 am   BACKBONE|DICT|INTERRES
   128   64  142 1    
   129   65   66 2    
   130   65   67 1    
   131   67   68 1    
   132   67   69 1    
   133   67  143 1    
   134   68  144 1    
   135   68  145 1    
   136   68  146 1    
   137   69   70 am   BACKBONE|DICT|INTERRES
   138   69  147 1    
   139   70   71 2    
   140   70   72 1    
   141   72   73 1    
   142   72   74 1    
   143   72  148 1    
   144   73  149 1    
   145   73  150 1    
   146   73  151 1    
   147   74   75 am   BACKBONE|DICT|INTERRES
   148   74  152 1    
   149   75   76 2    
   150   75   77 1    
   151   77   78 1    
   152   77   79 1    
   153   77  153 1    
   154   78  154 1    
   155   78  155 1    
   156   78  156 1    
   157   79   80 am   BACKBONE|DICT|INTERRES
   158   79  157 1    
   159   80   81 2    
@<TRIPOS>SUBSTRUCTURE
     1 UNK         1 GROUP             0       ****    0 ROOT    
