@<TRIPOS>MOLECULE
3R207
157   159    1
SMALL
USER_CHARGES


@<TRIPOS>ATOM
      1 CA        -49.7929  -29.8559    1.8226 C.3       0 UNK        -0.1975 
      2 C         -50.1724  -28.5017    2.4023 C.2       0 UNK         0.4852 
      3 O         -49.9602  -27.4742    1.7552 O.2       0 UNK        -0.5216 
      4 N         -50.7273  -28.4851    3.6209 N.am      1 UNK        -0.4461 
      5 CA        -51.1406  -27.2875    4.3597 C.3       1 UNK         0.0864 
      6 C6        -52.2768  -27.6061    5.3714 C.3       14 UNK        -0.0898 
      7 S7        -51.9269  -28.9747    6.5365 S.3       14 UNK        -0.2598 
      8 C8        -51.9591  -28.0644    8.1115 C.3       14 UNK         0.0286 
      9 C9        -51.4528  -28.8973    9.2794 C.ar      14 UNK        -0.0844 
     10 C10       -50.1124  -29.2920    9.3444 C.ar      14 UNK        -0.0881 
     11 C11       -49.6384  -30.0257   10.4375 C.ar      14 UNK        -0.0643 
     12 C12       -50.5159  -30.3554   11.4763 C.ar      14 UNK        -0.0930 
     13 C13       -51.8559  -29.9571   11.4260 C.ar      14 UNK        -0.0827 
     14 C14       -52.3166  -29.2329   10.3232 C.ar      14 UNK        -0.1249 
     15 C15       -52.8000  -30.2592   12.5798 C.3       14 UNK         0.0141 
     16 S16       -54.2416  -31.2406   12.0600 S.3       14 UNK        -0.2313 
     17 C17       -55.4536  -30.7767   13.3441 C.3       14 UNK        -0.0915 
     18 CA        -56.4086  -29.6460   12.8691 C.3       13 UNK         0.0968 
     19 C         -57.6149  -29.4494   13.8336 C.2       13 UNK         0.5732 
     20 N         -57.9661  -28.2339   14.2405 N.am      13 UNK        -0.7310 
     21 O         -58.2711  -30.4209   14.2025 O.2       13 UNK        -0.5035 
     22 N         -55.6746  -28.3968   12.6218 N.am      13 UNK        -0.4233 
     23 C         -55.7279  -27.6703   11.4987 C.2       13 UNK         0.4989 
     24 O         -56.3586  -28.0108   10.4965 O.2       13 UNK        -0.4996 
     25 CA        -54.9316  -26.3456   11.4743 C.3       12 UNK         0.0216 
     26 CB        -55.5828  -25.2849   10.5629 C.3       12 UNK        -0.1964 
     27 N         -54.6499  -25.7732   12.7974 N.am      12 UNK        -0.4276 
     28 C         -55.5280  -25.4475   13.7549 C.2       12 UNK         0.5020 
     29 O         -56.7479  -25.5920   13.6453 O.2       12 UNK        -0.5489 
     30 CA        -54.9218  -24.9398   15.0791 C.3       11 UNK         0.0294 
     31 CB        -55.9843  -24.7688   16.1846 C.3       11 UNK        -0.2019 
     32 N         -53.8140  -25.7670   15.5833 N.am      11 UNK        -0.4493 
     33 C         -53.7988  -27.0977   15.7667 C.2       11 UNK         0.4932 
     34 O         -54.7085  -27.8467   15.4081 O.2       11 UNK        -0.5029 
     35 CA        -52.5732  -27.7032   16.4776 C.3       10 UNK         0.0280 
     36 CB        -52.1848  -29.0793   15.9123 C.3       10 UNK        -0.1976 
     37 N         -51.3984  -26.8278   16.4452 N.am      10 UNK        -0.4242 
     38 C         -51.0295  -26.0137   17.4431 C.2       10 UNK         0.5072 
     39 O         -51.6662  -25.8752   18.4884 O.2       10 UNK        -0.5224 
     40 CA        -49.7334  -25.2119   17.2460 C.3       9 UNK         0.0343 
     41 CB        -48.5076  -26.0977   17.5216 C.3       9 UNK        -0.2003 
     42 N         -49.6136  -24.6015   15.9196 N.am      9 UNK        -0.4272 
     43 C         -50.4197  -23.6400   15.4453 C.2       9 UNK         0.4988 
     44 O         -51.3844  -23.1864   16.0620 O.2       9 UNK        -0.5108 
     45 CA        -50.1073  -23.1023   14.0377 C.3       8 UNK         0.0248 
     46 CB        -48.8675  -22.1932   14.0517 C.3       8 UNK        -0.2001 
     47 N         -49.9252  -24.1712   13.0562 N.am      8 UNK        -0.4140 
     48 C         -50.8859  -25.0305   12.6895 C.2       8 UNK         0.5028 
     49 O         -52.0467  -24.9837   13.0925 O.2       8 UNK        -0.5428 
     50 CA        -50.4700  -26.1586   11.7392 C.3       7 UNK         0.0264 
     51 CB        -50.4014  -25.6454   10.2910 C.3       7 UNK        -0.1988 
     52 N         -49.1863  -26.7438   12.1247 N.am      7 UNK        -0.4454 
     53 C         -48.9602  -27.4065   13.2690 C.2       7 UNK         0.5027 
     54 O         -49.8163  -27.6001   14.1322 O.2       7 UNK        -0.5083 
     55 CA        -47.5158  -27.8819   13.5224 C.3       6 UNK         0.0844 
     56 C56       -47.2252  -29.2494   12.8535 C.3       14 UNK        -0.0967 
     57 S57       -47.0468  -29.1798   11.0334 S.3       14 UNK        -0.2604 
     58 C58       -48.1872  -30.4865   10.4736 C.3       14 UNK         0.0134 
     59 N         -46.5263  -26.8579   13.1725 N.am      6 UNK        -0.4116 
     60 C         -46.4239  -25.6587   13.7642 C.2       5 UNK         0.5034 
     61 O         -47.1073  -25.3065   14.7240 O.2       5 UNK        -0.5045 
     62 CA        -45.4297  -24.6578   13.1499 C.3       5 UNK         0.0224 
     63 CB        -44.0334  -24.8381   13.7657 C.3       5 UNK        -0.1978 
     64 N         -45.3375  -24.7362   11.6870 N.am      5 UNK        -0.4737 
     65 C         -46.3660  -24.5594   10.8464 C.2       4 UNK         0.5027 
     66 O         -47.5146  -24.3156   11.2233 O.2       4 UNK        -0.5211 
     67 CA        -46.0513  -24.7433    9.3515 C.3       4 UNK         0.0297 
     68 CB        -45.7005  -26.2087    9.0391 C.3       4 UNK        -0.1993 
     69 N         -47.1672  -24.3560    8.4911 N.am      4 UNK        -0.4486 
     70 C         -47.5375  -23.1025    8.1995 C.2       3 UNK         0.4961 
     71 O         -46.9650  -22.0968    8.6238 O.2       3 UNK        -0.5105 
     72 CA        -48.7387  -22.9765    7.2388 C.3       3 UNK         0.0299 
     73 CB        -48.9344  -21.5497    6.6832 C.3       3 UNK        -0.1972 
     74 N         -48.6771  -23.9737    6.1603 N.am      3 UNK        -0.4305 
     75 C         -47.7379  -24.0999    5.2114 C.2       2 UNK         0.5006 
     76 O         -46.8468  -23.2724    5.0165 O.2       2 UNK        -0.5106 
     77 CA        -47.7530  -25.3747    4.3399 C.3       2 UNK         0.0296 
     78 CB        -46.7502  -26.4055    4.8966 C.3       2 UNK        -0.2002 
     79 N         -49.0577  -26.0145    4.0967 N.am      2 UNK        -0.4032 
     80 C         -49.9205  -26.5554    4.9695 C.2       1 UNK         0.5000 
     81 O         -49.7694  -26.4938    6.1904 O.2       1 UNK        -0.5238 
     82 H82       -50.0407  -30.6729    2.5001 H         1 UNK         0.0889 
     83 H83       -48.7221  -29.8919    1.6244 H         1 UNK         0.0889 
     84 H84       -50.3197  -30.0224    0.8834 H         1 UNK         0.0889 
     85 H85       -50.8553  -29.3531    4.1231 H         1 UNK         0.3028 
     86 H86       -51.5710  -26.5877    3.6394 H         1 UNK         0.0864 
     87 H87       -53.1734  -27.8860    4.8163 H         1 UNK         0.0720 
     88 H88       -52.5554  -26.7053    5.9213 H         1 UNK         0.0720 
     89 H89       -52.9774  -27.7183    8.2958 H         1 UNK         0.0814 
     90 H90       -51.3477  -27.1689    8.0264 H         1 UNK         0.0814 
     91 H91       -49.4390  -29.0267    8.5403 H         1 UNK         0.1469 
     92 H92       -50.1543  -30.9174   12.3260 H         1 UNK         0.1381 
     93 H93       -53.3516  -28.9249   10.2842 H         1 UNK         0.1206 
     94 H94       -53.1324  -29.3094   12.9979 H         1 UNK         0.0813 
     95 H95       -52.2857  -30.7941   13.3791 H         1 UNK         0.0813 
     96 H96       -54.9366  -30.4898   14.2616 H         1 UNK         0.0638 
     97 H97       -56.0170  -31.6799   13.5845 H         1 UNK         0.0638 
     98 H98       -56.8629  -29.9859   11.9372 H         1 UNK         0.0568 
     99 H99       -58.7557  -28.1359   14.8575 H         1 UNK         0.3450 
    100 H100      -57.4552  -27.4075   13.9453 H         1 UNK         0.3450 
    101 H101      -55.1933  -28.0224   13.4326 H         1 UNK         0.2987 
    102 H102      -53.9585  -26.5918   11.0471 H         1 UNK         0.0766 
    103 H103      -54.9893  -24.3711   10.5324 H         1 UNK         0.0798 
    104 H104      -56.5851  -25.0232   10.9037 H         1 UNK         0.0798 
    105 H105      -55.6702  -25.6451    9.5371 H         1 UNK         0.0798 
    106 H106      -53.6634  -25.5774   12.9895 H         1 UNK         0.3198 
    107 H107      -54.4999  -23.9566   14.8645 H         1 UNK         0.0843 
    108 H108      -56.4575  -25.7189   16.4365 H         1 UNK         0.0831 
    109 H109      -56.7731  -24.0850   15.8686 H         1 UNK         0.0831 
    110 H110      -55.5476  -24.3593   17.0954 H         1 UNK         0.0831 
    111 H111      -52.9851  -25.2551   15.8557 H         1 UNK         0.3133 
    112 H112      -52.8810  -27.8647   17.5125 H         1 UNK         0.0566 
    113 H113      -51.3866  -29.5338   16.4990 H         1 UNK         0.0814 
    114 H114      -53.0266  -29.7728   15.9236 H         1 UNK         0.0814 
    115 H115      -51.8330  -28.9983   14.8867 H         1 UNK         0.0814 
    116 H116      -50.8111  -26.8980   15.6162 H         1 UNK         0.3091 
    117 H117      -49.7340  -24.4025   17.9791 H         1 UNK         0.0702 
    118 H118      -47.5856  -25.5167   17.4938 H         1 UNK         0.0785 
    119 H119      -48.4179  -26.9009   16.7890 H         1 UNK         0.0785 
    120 H120      -48.5702  -26.5587   18.5082 H         1 UNK         0.0785 
    121 H121      -48.8169  -24.8959   15.3588 H         1 UNK         0.2998 
    122 H122      -50.9611  -22.5027   13.7151 H         1 UNK         0.0697 
    123 H123      -47.9712  -22.7314   14.3599 H         1 UNK         0.0825 
    124 H124      -49.0026  -21.3619   14.7448 H         1 UNK         0.0825 
    125 H125      -48.6777  -21.7669   13.0663 H         1 UNK         0.0825 
    126 H126      -49.0085  -24.2677   12.6295 H         1 UNK         0.3029 
    127 H127      -51.2198  -26.9503   11.7953 H         1 UNK         0.0897 
    128 H128      -49.8496  -24.7091   10.2091 H         1 UNK         0.0792 
    129 H129      -51.4033  -25.4605    9.9023 H         1 UNK         0.0792 
    130 H130      -49.9168  -26.3662    9.6341 H         1 UNK         0.0792 
    131 H131      -48.4110  -26.5890   11.4970 H         1 UNK         0.3086 
    132 H132      -47.4318  -28.0350   14.6007 H         1 UNK         0.0583 
    133 H133      -46.2947  -29.6526   13.2560 H         1 UNK         0.1020 
    134 H134      -47.9918  -29.9753   13.1298 H         1 UNK         0.1020 
    135 H135      -47.8879  -30.7973    9.4715 H         1 UNK         0.0694 
    136 H136      -48.0756  -31.3694   11.1049 H         1 UNK         0.0694 
    137 H137      -45.9339  -27.0607   12.3810 H         1 UNK         0.2989 
    138 H138      -45.7870  -23.6566   13.4006 H         1 UNK         0.1055 
    139 H139      -44.0749  -24.7648   14.8536 H         1 UNK         0.0806 
    140 H140      -43.3435  -24.0685   13.4187 H         1 UNK         0.0806 
    141 H141      -43.6041  -25.8105   13.5211 H         1 UNK         0.0806 
    142 H142      -44.4245  -24.9330   11.3014 H         1 UNK         0.3061 
    143 H143      -45.1920  -24.1146    9.1088 H         1 UNK         0.0734 
    144 H144      -45.4081  -26.3295    7.9958 H         1 UNK         0.0832 
    145 H145      -44.8663  -26.5647    9.6445 H         1 UNK         0.0832 
    146 H146      -46.5457  -26.8720    9.2246 H         1 UNK         0.0832 
    147 H147      -47.7216  -25.1089    8.1117 H         1 UNK         0.3156 
    148 H148      -49.6238  -23.2222    7.8277 H         1 UNK         0.0589 
    149 H149      -48.0570  -21.1993    6.1392 H         1 UNK         0.0808 
    150 H150      -49.7897  -21.5001    6.0096 H         1 UNK         0.0808 
    151 H151      -49.1169  -20.8404    7.4914 H         1 UNK         0.0808 
    152 H152      -49.3060  -24.7699    6.2577 H         1 UNK         0.3098 
    153 H153      -47.3949  -25.0695    3.3554 H         1 UNK         0.0720 
    154 H154      -46.6542  -27.2635    4.2311 H         1 UNK         0.0791 
    155 H155      -47.0495  -26.7752    5.8779 H         1 UNK         0.0791 
    156 H156      -45.7568  -25.9677    5.0048 H         1 UNK         0.0791 
    157 H157      -49.2860  -26.1543    3.1163 H         1 UNK         0.3028 
@<TRIPOS>BOND
     1    1    2 1    
     2    1   82 1    
     3    1   83 1    
     4    1   84 1    
     5    2    3 2    
     6    2    4 am   BACKBONE|DICT|INTERRES
     7    4    5 1    
     8    4   85 1    
     9    5    6 1    
    10    5   80 1    
    11    5   86 1    
    12    6    7 1    
    13    6   87 1    
    14    6   88 1    
    15    7    8 1    
    16    8    9 1    
    17    8   89 1    
    18    8   90 1    
    19    9   10 ar   
    20    9   14 ar   
    21   10   11 ar   
    22   10   91 1    
    23   11   12 ar   
    24   11   58 1    
    25   12   13 ar   
    26   12   92 1    
    27   13   14 ar   
    28   13   15 1    
    29   14   93 1    
    30   15   16 1    
    31   15   94 1    
    32   15   95 1    
    33   16   17 1    
    34   17   18 1    
    35   17   96 1    
    36   17   97 1    
    37   18   19 1    
    38   18   22 1    
    39   18   98 1    
    40   19   20 am   BACKBONE|DICT|INTERRES
    41   19   21 2    
    42   20   99 1    
    43   20  100 1    
    44   22   23 am   BACKBONE|DICT|INTERRES
    45   22  101 1    
    46   23   24 2    
    47   23   25 1    
    48   25   26 1    
    49   25   27 1    
    50   25  102 1    
    51   26  103 1    
    52   26  104 1    
    53   26  105 1    
    54   27   28 am   BACKBONE|DICT|INTERRES
    55   27  106 1    
    56   28   29 2    
    57   28   30 1    
    58   30   31 1    
    59   30   32 1    
    60   30  107 1    
    61   31  108 1    
    62   31  109 1    
    63   31  110 1    
    64   32   33 am   BACKBONE|DICT|INTERRES
    65   32  111 1    
    66   33   34 2    
    67   33   35 1    
    68   35   36 1    
    69   35   37 1    
    70   35  112 1    
    71   36  113 1    
    72   36  114 1    
    73   36  115 1    
    74   37   38 am   BACKBONE|DICT|INTERRES
    75   37  116 1    
    76   38   39 2    
    77   38   40 1    
    78   40   41 1    
    79   40   42 1    
    80   40  117 1    
    81   41  118 1    
    82   41  119 1    
    83   41  120 1    
    84   42   43 am   BACKBONE|DICT|INTERRES
    85   42  121 1    
    86   43   44 2    
    87   43   45 1    
    88   45   46 1    
    89   45   47 1    
    90   45  122 1    
    91   46  123 1    
    92   46  124 1    
    93   46  125 1    
    94   47   48 am   BACKBONE|DICT|INTERRES
    95   47  126 1    
    96   48   49 2    
    97   48   50 1    
    98   50   51 1    
    99   50   52 1    
   100   50  127 1    
   101   51  128 1    
   102   51  129 1    
   103   51  130 1    
   104   52   53 am   BACKBONE|DICT|INTERRES
   105   52  131 1    
   106   53   54 2    
   107   53   55 1    
   108   55   56 1    
   109   55   59 1    
   110   55  132 1    
   111   56   57 1    
   112   56  133 1    
   113   56  134 1    
   114   57   58 1    
   115   58  135 1    
   116   58  136 1    
   117   59   60 am   BACKBONE|DICT|INTERRES
   118   59  137 1    
   119   60   61 2    
   120   60   62 1    
   121   62   63 1    
   122   62   64 1    
   123   62  138 1    
   124   63  139 1    
   125   63  140 1    
   126   63  141 1    
   127   64   65 am   BACKBONE|DICT|INTERRES
   128   64  142 1    
   129   65   66 2    
   130   65   67 1    
   131   67   68 1    
   132   67   69 1    
   133   67  143 1    
   134   68  144 1    
   135   68  145 1    
   136   68  146 1    
   137   69   70 am   BACKBONE|DICT|INTERRES
   138   69  147 1    
   139   70   71 2    
   140   70   72 1    
   141   72   73 1    
   142   72   74 1    
   143   72  148 1    
   144   73  149 1    
   145   73  150 1    
   146   73  151 1    
   147   74   75 am   BACKBONE|DICT|INTERRES
   148   74  152 1    
   149   75   76 2    
   150   75   77 1    
   151   77   78 1    
   152   77   79 1    
   153   77  153 1    
   154   78  154 1    
   155   78  155 1    
   156   78  156 1    
   157   79   80 am   BACKBONE|DICT|INTERRES
   158   79  157 1    
   159   80   81 2    
@<TRIPOS>SUBSTRUCTURE
     1 UNK         1 GROUP             0       ****    0 ROOT    
