@<TRIPOS>MOLECULE
3R207
157   159    1
SMALL
USER_CHARGES


@<TRIPOS>ATOM
      1 CA        -45.9742  -32.4636    5.1689 C.3       0 UNK        -0.1975 
      2 C         -46.9496  -31.4345    4.6173 C.2       0 UNK         0.4852 
      3 O         -46.6574  -30.7949    3.6063 O.2       0 UNK        -0.5216 
      4 N         -48.1059  -31.2702    5.2742 N.am      1 UNK        -0.4461 
      5 CA        -49.1734  -30.3377    4.8835 C.3       1 UNK         0.0864 
      6 C6        -50.4936  -30.6091    5.6450 C.3       14 UNK        -0.0898 
      7 S7        -51.0318  -32.3553    5.6396 S.3       14 UNK        -0.2598 
      8 C8        -52.7405  -32.2381    6.2819 C.3       14 UNK         0.0286 
      9 C9        -52.8879  -31.2018    7.3905 C.ar      14 UNK        -0.0844 
     10 C10       -52.2040  -31.3552    8.6013 C.ar      14 UNK        -0.0881 
     11 C11       -52.2627  -30.3590    9.5811 C.ar      14 UNK        -0.0643 
     12 C12       -53.0437  -29.2219    9.3557 C.ar      14 UNK        -0.0930 
     13 C13       -53.7352  -29.0591    8.1521 C.ar      14 UNK        -0.0827 
     14 C14       -53.6588  -30.0551    7.1757 C.ar      14 UNK        -0.1249 
     15 C15       -54.4863  -27.7673    7.8733 C.3       14 UNK         0.0141 
     16 S16       -55.7818  -27.4234    9.1029 S.3       14 UNK        -0.2313 
     17 C17       -55.8648  -25.6096    8.9453 C.3       14 UNK        -0.0915 
     18 CA        -54.8551  -24.8911    9.8822 C.3       13 UNK         0.0968 
     19 C         -54.7445  -23.3864    9.5471 C.2       13 UNK         0.5732 
     20 N         -53.5459  -22.8925    9.2722 N.am      13 UNK        -0.7310 
     21 O         -55.7425  -22.6687    9.5255 O.2       13 UNK        -0.5035 
     22 N         -55.2265  -25.0249   11.2940 N.am      13 UNK        -0.4233 
     23 C         -54.5851  -25.7819   12.1892 C.2       13 UNK         0.4989 
     24 O         -53.6182  -26.4921   11.9144 O.2       13 UNK        -0.4996 
     25 CA        -55.0940  -25.6834   13.6403 C.3       12 UNK         0.0216 
     26 CB        -56.5977  -26.0179   13.7610 C.3       12 UNK        -0.1964 
     27 N         -54.2883  -26.4718   14.5839 N.am      12 UNK        -0.4276 
     28 C         -54.2165  -27.8058   14.7273 C.2       12 UNK         0.5020 
     29 O         -54.9105  -28.6105   14.1040 O.2       12 UNK        -0.5489 
     30 CA        -53.2010  -28.3442   15.7574 C.3       11 UNK         0.0294 
     31 CB        -52.2076  -29.3202   15.1008 C.3       11 UNK        -0.2019 
     32 N         -52.4468  -27.2677   16.4080 N.am      11 UNK        -0.4493 
     33 C         -52.7693  -26.6899   17.5731 C.2       11 UNK         0.4932 
     34 O         -53.7075  -27.0638   18.2784 O.2       11 UNK        -0.5029 
     35 CA        -51.9410  -25.4587   17.9945 C.3       10 UNK         0.0280 
     36 CB        -51.9559  -25.2111   19.5185 C.3       10 UNK        -0.1976 
     37 N         -50.5732  -25.4546   17.4613 N.am      10 UNK        -0.4242 
     38 C         -49.5720  -26.2957   17.7681 C.2       10 UNK         0.5072 
     39 O         -49.6734  -27.2009   18.5976 O.2       10 UNK        -0.5224 
     40 CA        -48.2282  -26.1262   17.0270 C.3       9 UNK         0.0343 
     41 CB        -47.8705  -27.4097   16.2574 C.3       9 UNK        -0.2003 
     42 N         -48.1962  -24.9954   16.0952 N.am      9 UNK        -0.4272 
     43 C         -48.0598  -23.7074   16.4383 C.2       9 UNK         0.4988 
     44 O         -47.8722  -23.3229   17.5928 O.2       9 UNK        -0.5108 
     45 CA        -48.2014  -22.6680   15.3091 C.3       8 UNK         0.0248 
     46 CB        -46.8477  -22.4221   14.6245 C.3       8 UNK        -0.2001 
     47 N         -49.2084  -23.0301   14.3030 N.am      8 UNK        -0.4140 
     48 C         -50.5133  -23.2036   14.5635 C.2       8 UNK         0.5028 
     49 O         -51.0158  -23.0430   15.6759 O.2       8 UNK        -0.5428 
     50 CA        -51.4016  -23.7077   13.4145 C.3       7 UNK         0.0264 
     51 CB        -51.7701  -22.5685   12.4557 C.3       7 UNK        -0.1988 
     52 N         -50.8052  -24.8259   12.6777 N.am      7 UNK        -0.4454 
     53 C         -50.5148  -26.0117   13.2361 C.2       7 UNK         0.5027 
     54 O         -50.7679  -26.2835   14.4102 O.2       7 UNK        -0.5083 
     55 CA        -49.7636  -27.0512   12.3782 C.3       6 UNK         0.0844 
     56 C56       -50.7329  -27.8330   11.4658 C.3       14 UNK        -0.0967 
     57 S57       -50.0019  -29.3897   10.8578 S.3       14 UNK        -0.2604 
     58 C58       -51.4541  -30.4957   10.8636 C.3       14 UNK         0.0134 
     59 N         -48.6582  -26.4423   11.6341 N.am      6 UNK        -0.4116 
     60 C         -47.6144  -25.8213   12.2025 C.2       5 UNK         0.5034 
     61 O         -47.4156  -25.7785   13.4154 O.2       5 UNK        -0.5045 
     62 CA        -46.6699  -25.0579   11.2655 C.3       5 UNK         0.0224 
     63 CB        -45.6286  -26.0002   10.6427 C.3       5 UNK        -0.1978 
     64 N         -47.4124  -24.3512   10.2188 N.am      5 UNK        -0.4737 
     65 C         -48.1717  -23.2689   10.4438 C.2       4 UNK         0.5027 
     66 O         -48.2837  -22.7349   11.5468 O.2       4 UNK        -0.5211 
     67 CA        -48.9609  -22.7066    9.2498 C.3       4 UNK         0.0297 
     68 CB        -48.0881  -21.7386    8.4363 C.3       4 UNK        -0.1993 
     69 N         -49.4781  -23.7581    8.3715 N.am      4 UNK        -0.4486 
     70 C         -50.4780  -24.5895    8.6948 C.2       3 UNK         0.4961 
     71 O         -51.1232  -24.5097    9.7406 O.2       3 UNK        -0.5105 
     72 CA        -50.8118  -25.7068    7.6899 C.3       3 UNK         0.0299 
     73 CB        -51.8747  -25.2211    6.6915 C.3       3 UNK        -0.1972 
     74 N         -49.6555  -26.2241    6.9482 N.am      3 UNK        -0.4305 
     75 C         -48.5451  -26.7389    7.4933 C.2       2 UNK         0.5006 
     76 O         -48.3491  -26.8098    8.7077 O.2       2 UNK        -0.5106 
     77 CA        -47.4897  -27.2712    6.5089 C.3       2 UNK         0.0296 
     78 CB        -46.0856  -27.3460    7.1356 C.3       2 UNK        -0.2002 
     79 N         -47.8729  -28.6015    6.0443 N.am      2 UNK        -0.4032 
     80 C         -48.7819  -28.8582    5.0928 C.2       1 UNK         0.5000 
     81 O         -49.3330  -27.9806    4.4245 O.2       1 UNK        -0.5238 
     82 H82       -46.3619  -32.9568    6.0602 H         1 UNK         0.0889 
     83 H83       -45.0307  -31.9846    5.4294 H         1 UNK         0.0889 
     84 H84       -45.7728  -33.2285    4.4193 H         1 UNK         0.0889 
     85 H85       -48.3103  -31.8496    6.0767 H         1 UNK         0.3028 
     86 H86       -49.3606  -30.4766    3.8165 H         1 UNK         0.0864 
     87 H87       -50.3909  -30.2999    6.6875 H         1 UNK         0.0720 
     88 H88       -51.2982  -30.0025    5.2237 H         1 UNK         0.0720 
     89 H89       -53.0489  -33.2152    6.6561 H         1 UNK         0.0814 
     90 H90       -53.4073  -32.0064    5.4500 H         1 UNK         0.0814 
     91 H91       -51.5896  -32.2313    8.7582 H         1 UNK         0.1469 
     92 H92       -53.0952  -28.4444   10.1051 H         1 UNK         0.1381 
     93 H93       -54.1701  -29.9209    6.2321 H         1 UNK         0.1206 
     94 H94       -54.9346  -27.7751    6.8786 H         1 UNK         0.0813 
     95 H95       -53.7590  -26.9573    7.8786 H         1 UNK         0.0813 
     96 H96       -56.8857  -25.2922    9.1653 H         1 UNK         0.0638 
     97 H97       -55.6855  -25.3435    7.9016 H         1 UNK         0.0638 
     98 H98       -53.8699  -25.3321    9.7156 H         1 UNK         0.0568 
     99 H99       -53.4610  -21.9151    9.0446 H         1 UNK         0.3450 
    100 H100      -52.7143  -23.4647    9.3737 H         1 UNK         0.3450 
    101 H101      -55.9843  -24.4287   11.5945 H         1 UNK         0.2987 
    102 H102      -54.9605  -24.6436   13.9429 H         1 UNK         0.0766 
    103 H103      -56.9210  -26.0223   14.8020 H         1 UNK         0.0798 
    104 H104      -56.8323  -26.9935   13.3338 H         1 UNK         0.0798 
    105 H105      -57.2124  -25.2835   13.2400 H         1 UNK         0.0798 
    106 H106      -53.6338  -25.9384   15.1364 H         1 UNK         0.3198 
    107 H107      -53.7697  -28.8991   16.5065 H         1 UNK         0.0843 
    108 H108      -51.6240  -28.8394   14.3169 H         1 UNK         0.0831 
    109 H109      -52.7290  -30.1636   14.6462 H         1 UNK         0.0831 
    110 H110      -51.5109  -29.7277   15.8335 H         1 UNK         0.0831 
    111 H111      -51.6777  -26.8798   15.8608 H         1 UNK         0.3133 
    112 H112      -52.4338  -24.6043   17.5288 H         1 UNK         0.0566 
    113 H113      -51.3680  -24.3322   19.7834 H         1 UNK         0.0814 
    114 H114      -52.9716  -25.0388   19.8765 H         1 UNK         0.0814 
    115 H115      -51.5589  -26.0615   20.0733 H         1 UNK         0.0814 
    116 H116      -50.3980  -24.7476   16.7550 H         1 UNK         0.3091 
    117 H117      -47.4621  -25.9642   17.7879 H         1 UNK         0.0702 
    118 H118      -46.9020  -27.3204   15.7649 H         1 UNK         0.0785 
    119 H119      -48.6140  -27.6400   15.4939 H         1 UNK         0.0785 
    120 H120      -47.8140  -28.2687   16.9271 H         1 UNK         0.0785 
    121 H121      -48.2672  -25.2263   15.1083 H         1 UNK         0.2998 
    122 H122      -48.5240  -21.7306   15.7666 H         1 UNK         0.0697 
    123 H123      -46.4694  -23.3236   14.1426 H         1 UNK         0.0825 
    124 H124      -46.0976  -22.1001   15.3480 H         1 UNK         0.0825 
    125 H125      -46.9221  -21.6433   13.8653 H         1 UNK         0.0825 
    126 H126      -48.8830  -23.1342   13.3447 H         1 UNK         0.3029 
    127 H127      -52.3273  -24.0735   13.8624 H         1 UNK         0.0897 
    128 H128      -52.5160  -22.8984   11.7361 H         1 UNK         0.0792 
    129 H129      -52.1965  -21.7225   12.9964 H         1 UNK         0.0792 
    130 H130      -50.9055  -22.2024   11.9030 H         1 UNK         0.0792 
    131 H131      -50.6400  -24.6891   11.6853 H         1 UNK         0.3086 
    132 H132      -49.3202  -27.7614   13.0794 H         1 UNK         0.0583 
    133 H133      -51.6400  -28.0824   12.0173 H         1 UNK         0.1020 
    134 H134      -51.0509  -27.2224   10.6193 H         1 UNK         0.1020 
    135 H135      -51.1011  -31.5217   10.9771 H         1 UNK         0.0694 
    136 H136      -52.0871  -30.3000   11.7303 H         1 UNK         0.0694 
    137 H137      -48.7052  -26.4844   10.6201 H         1 UNK         0.2989 
    138 H138      -46.1370  -24.3147   11.8629 H         1 UNK         0.1055 
    139 H139      -45.0064  -26.4515   11.4168 H         1 UNK         0.0806 
    140 H140      -44.9637  -25.4678    9.9625 H         1 UNK         0.0806 
    141 H141      -46.0956  -26.8157   10.0915 H         1 UNK         0.0806 
    142 H142      -47.4377  -24.7855    9.3068 H         1 UNK         0.3061 
    143 H143      -49.8099  -22.1458    9.6469 H         1 UNK         0.0734 
    144 H144      -48.6558  -21.2742    7.6298 H         1 UNK         0.0832 
    145 H145      -47.7091  -20.9337    9.0679 H         1 UNK         0.0832 
    146 H146      -47.2253  -22.2400    7.9961 H         1 UNK         0.0832 
    147 H147      -49.0198  -23.8833    7.4808 H         1 UNK         0.3156 
    148 H148      -51.2300  -26.5404    8.2576 H         1 UNK         0.0589 
    149 H149      -51.4958  -24.4190    6.0568 H         1 UNK         0.0808 
    150 H150      -52.2090  -26.0311    6.0427 H         1 UNK         0.0808 
    151 H151      -52.7552  -24.8357    7.2066 H         1 UNK         0.0808 
    152 H152      -49.7442  -26.2668    5.9403 H         1 UNK         0.3098 
    153 H153      -47.4394  -26.5890    5.6574 H         1 UNK         0.0720 
    154 H154      -45.3435  -27.6643    6.4033 H         1 UNK         0.0791 
    155 H155      -46.0498  -28.0460    7.9713 H         1 UNK         0.0791 
    156 H156      -45.7723  -26.3705    7.5095 H         1 UNK         0.0791 
    157 H157      -47.4973  -29.3839    6.5599 H         1 UNK         0.3028 
@<TRIPOS>BOND
     1    1    2 1    
     2    1   82 1    
     3    1   83 1    
     4    1   84 1    
     5    2    3 2    
     6    2    4 am   BACKBONE|DICT|INTERRES
     7    4    5 1    
     8    4   85 1    
     9    5    6 1    
    10    5   80 1    
    11    5   86 1    
    12    6    7 1    
    13    6   87 1    
    14    6   88 1    
    15    7    8 1    
    16    8    9 1    
    17    8   89 1    
    18    8   90 1    
    19    9   10 ar   
    20    9   14 ar   
    21   10   11 ar   
    22   10   91 1    
    23   11   12 ar   
    24   11   58 1    
    25   12   13 ar   
    26   12   92 1    
    27   13   14 ar   
    28   13   15 1    
    29   14   93 1    
    30   15   16 1    
    31   15   94 1    
    32   15   95 1    
    33   16   17 1    
    34   17   18 1    
    35   17   96 1    
    36   17   97 1    
    37   18   19 1    
    38   18   22 1    
    39   18   98 1    
    40   19   20 am   BACKBONE|DICT|INTERRES
    41   19   21 2    
    42   20   99 1    
    43   20  100 1    
    44   22   23 am   BACKBONE|DICT|INTERRES
    45   22  101 1    
    46   23   24 2    
    47   23   25 1    
    48   25   26 1    
    49   25   27 1    
    50   25  102 1    
    51   26  103 1    
    52   26  104 1    
    53   26  105 1    
    54   27   28 am   BACKBONE|DICT|INTERRES
    55   27  106 1    
    56   28   29 2    
    57   28   30 1    
    58   30   31 1    
    59   30   32 1    
    60   30  107 1    
    61   31  108 1    
    62   31  109 1    
    63   31  110 1    
    64   32   33 am   BACKBONE|DICT|INTERRES
    65   32  111 1    
    66   33   34 2    
    67   33   35 1    
    68   35   36 1    
    69   35   37 1    
    70   35  112 1    
    71   36  113 1    
    72   36  114 1    
    73   36  115 1    
    74   37   38 am   BACKBONE|DICT|INTERRES
    75   37  116 1    
    76   38   39 2    
    77   38   40 1    
    78   40   41 1    
    79   40   42 1    
    80   40  117 1    
    81   41  118 1    
    82   41  119 1    
    83   41  120 1    
    84   42   43 am   BACKBONE|DICT|INTERRES
    85   42  121 1    
    86   43   44 2    
    87   43   45 1    
    88   45   46 1    
    89   45   47 1    
    90   45  122 1    
    91   46  123 1    
    92   46  124 1    
    93   46  125 1    
    94   47   48 am   BACKBONE|DICT|INTERRES
    95   47  126 1    
    96   48   49 2    
    97   48   50 1    
    98   50   51 1    
    99   50   52 1    
   100   50  127 1    
   101   51  128 1    
   102   51  129 1    
   103   51  130 1    
   104   52   53 am   BACKBONE|DICT|INTERRES
   105   52  131 1    
   106   53   54 2    
   107   53   55 1    
   108   55   56 1    
   109   55   59 1    
   110   55  132 1    
   111   56   57 1    
   112   56  133 1    
   113   56  134 1    
   114   57   58 1    
   115   58  135 1    
   116   58  136 1    
   117   59   60 am   BACKBONE|DICT|INTERRES
   118   59  137 1    
   119   60   61 2    
   120   60   62 1    
   121   62   63 1    
   122   62   64 1    
   123   62  138 1    
   124   63  139 1    
   125   63  140 1    
   126   63  141 1    
   127   64   65 am   BACKBONE|DICT|INTERRES
   128   64  142 1    
   129   65   66 2    
   130   65   67 1    
   131   67   68 1    
   132   67   69 1    
   133   67  143 1    
   134   68  144 1    
   135   68  145 1    
   136   68  146 1    
   137   69   70 am   BACKBONE|DICT|INTERRES
   138   69  147 1    
   139   70   71 2    
   140   70   72 1    
   141   72   73 1    
   142   72   74 1    
   143   72  148 1    
   144   73  149 1    
   145   73  150 1    
   146   73  151 1    
   147   74   75 am   BACKBONE|DICT|INTERRES
   148   74  152 1    
   149   75   76 2    
   150   75   77 1    
   151   77   78 1    
   152   77   79 1    
   153   77  153 1    
   154   78  154 1    
   155   78  155 1    
   156   78  156 1    
   157   79   80 am   BACKBONE|DICT|INTERRES
   158   79  157 1    
   159   80   81 2    
@<TRIPOS>SUBSTRUCTURE
     1 UNK         1 GROUP             0       ****    0 ROOT    
