@<TRIPOS>MOLECULE
3R207
157   159    1
SMALL
USER_CHARGES


@<TRIPOS>ATOM
      1 CA        -51.0509  -25.1991    0.7344 C.3       0 UNK        -0.1975 
      2 C         -50.4847  -26.0735    1.8432 C.2       0 UNK         0.4852 
      3 O         -49.7011  -26.9818    1.5612 O.2       0 UNK        -0.5216 
      4 N         -50.8709  -25.7989    3.0981 N.am      1 UNK        -0.4461 
      5 CA        -50.4827  -26.4894    4.3385 C.3       1 UNK         0.0864 
      6 C6        -50.8619  -27.9986    4.3676 C.3       14 UNK        -0.0898 
      7 S7        -52.6743  -28.2495    4.3570 S.3       14 UNK        -0.2598 
      8 C8        -52.9954  -29.0003    5.9917 C.3       14 UNK         0.0286 
      9 C9        -53.1003  -27.9695    7.1108 C.ar      14 UNK        -0.0844 
     10 C10       -51.9759  -27.2384    7.4965 C.ar      14 UNK        -0.0881 
     11 C11       -52.0440  -26.3034    8.5280 C.ar      14 UNK        -0.0643 
     12 C12       -53.2488  -26.1156    9.2066 C.ar      14 UNK        -0.0930 
     13 C13       -54.3776  -26.8641    8.8602 C.ar      14 UNK        -0.0827 
     14 C14       -54.3044  -27.7752    7.7988 C.ar      14 UNK        -0.1249 
     15 C15       -55.6663  -26.6979    9.6532 C.3       14 UNK         0.0141 
     16 S16       -55.9364  -28.0675   10.8265 S.3       14 UNK        -0.2313 
     17 C17       -54.4815  -27.9462   11.9258 C.3       14 UNK        -0.0915 
     18 CA        -54.3549  -29.1845   12.8512 C.3       13 UNK         0.0968 
     19 C         -52.9627  -29.2555   13.5460 C.2       13 UNK         0.5732 
     20 N         -52.8613  -29.3369   14.8677 N.am      13 UNK        -0.7310 
     21 O         -51.9422  -29.2724   12.8640 O.2       13 UNK        -0.5035 
     22 N         -55.4908  -29.2865   13.7788 N.am      13 UNK        -0.4233 
     23 C         -55.9716  -30.4392   14.2638 C.2       13 UNK         0.4989 
     24 O         -55.5796  -31.5490   13.8972 O.2       13 UNK        -0.4996 
     25 CA        -57.0671  -30.3348   15.3485 C.3       12 UNK         0.0216 
     26 CB        -57.1786  -31.6138   16.2064 C.3       12 UNK        -0.1964 
     27 N         -56.9298  -29.1507   16.2093 N.am      12 UNK        -0.4276 
     28 C         -55.8585  -28.8086   16.9395 C.2       12 UNK         0.5020 
     29 O         -54.8242  -29.4755   17.0137 O.2       12 UNK        -0.5489 
     30 CA        -55.9303  -27.4537   17.6577 C.3       11 UNK         0.0294 
     31 CB        -55.7008  -27.6158   19.1692 C.3       11 UNK        -0.2019 
     32 N         -54.9424  -26.5196   17.1167 N.am      11 UNK        -0.4493 
     33 C         -54.8809  -26.0786   15.8545 C.2       11 UNK         0.4932 
     34 O         -55.6725  -26.4185   14.9734 O.2       11 UNK        -0.5029 
     35 CA        -53.7612  -25.0787   15.5147 C.3       10 UNK         0.0280 
     36 CB        -54.0416  -23.6939   16.1286 C.3       10 UNK        -0.1976 
     37 N         -52.4001  -25.5328   15.8279 N.am      10 UNK        -0.4242 
     38 C         -51.8482  -25.8236   17.0163 C.2       10 UNK         0.5072 
     39 O         -52.4498  -25.7842   18.0911 O.2       10 UNK        -0.5224 
     40 CA        -50.3554  -26.1977   17.0040 C.3       9 UNK         0.0343 
     41 CB        -50.1285  -27.5714   16.3525 C.3       9 UNK        -0.2003 
     42 N         -49.5365  -25.1899   16.3276 N.am      9 UNK        -0.4272 
     43 C         -49.3379  -23.9401   16.7753 C.2       9 UNK         0.4988 
     44 O         -49.7550  -23.5192   17.8546 O.2       9 UNK        -0.5108 
     45 CA        -48.5523  -22.9915   15.8554 C.3       8 UNK         0.0248 
     46 CB        -47.0360  -23.1692   16.0396 C.3       8 UNK        -0.2001 
     47 N         -48.9135  -23.1892   14.4511 N.am      8 UNK        -0.4140 
     48 C         -50.0535  -22.7483   13.8990 C.2       8 UNK         0.5028 
     49 O         -50.8656  -22.0300   14.4826 O.2       8 UNK        -0.5428 
     50 CA        -50.3502  -23.1931   12.4583 C.3       7 UNK         0.0264 
     51 CB        -49.8578  -22.1420   11.4511 C.3       7 UNK        -0.1988 
     52 N         -49.7596  -24.4948   12.1386 N.am      7 UNK        -0.4454 
     53 C         -50.2545  -25.6663   12.5698 C.2       7 UNK         0.5027 
     54 O         -51.2496  -25.7564   13.2873 O.2       7 UNK        -0.5083 
     55 CA        -49.5111  -26.9556   12.1600 C.3       6 UNK         0.0844 
     56 C56       -50.0578  -27.5037   10.8194 C.3       14 UNK        -0.0967 
     57 S57       -49.4171  -26.6140    9.3512 S.3       14 UNK        -0.2604 
     58 C58       -50.8035  -25.5179    8.9159 C.3       14 UNK         0.0134 
     59 N         -48.0591  -26.8039   12.1057 N.am      6 UNK        -0.4116 
     60 C         -47.2551  -26.3213   13.0570 C.2       5 UNK         0.5034 
     61 O         -47.6238  -26.0546   14.2011 O.2       5 UNK        -0.5045 
     62 CA        -45.8116  -26.0141   12.6184 C.3       5 UNK         0.0224 
     63 CB        -44.8738  -27.1639   13.0158 C.3       5 UNK        -0.1978 
     64 N         -45.6734  -25.7510   11.1757 N.am      5 UNK        -0.4737 
     65 C         -46.2742  -24.7630   10.4978 C.2       4 UNK         0.5027 
     66 O         -47.0428  -23.9590   11.0247 O.2       4 UNK        -0.5211 
     67 CA        -46.0135  -24.6660    8.9830 C.3       4 UNK         0.0297 
     68 CB        -44.6308  -24.0491    8.6989 C.3       4 UNK        -0.1993 
     69 N         -46.2107  -25.9125    8.2254 N.am      4 UNK        -0.4486 
     70 C         -45.5197  -27.0617    8.2878 C.2       3 UNK         0.4961 
     71 O         -44.6073  -27.2744    9.0876 O.2       3 UNK        -0.5105 
     72 CA        -45.8985  -28.1685    7.2822 C.3       3 UNK         0.0299 
     73 CB        -46.8499  -29.1889    7.9276 C.3       3 UNK        -0.1972 
     74 N         -46.4902  -27.6728    6.0334 N.am      3 UNK        -0.4305 
     75 C         -45.8553  -26.9099    5.1310 C.2       2 UNK         0.5006 
     76 O         -44.6747  -26.5765    5.2441 O.2       2 UNK        -0.5106 
     77 CA        -46.6352  -26.4323    3.8865 C.3       2 UNK         0.0296 
     78 CB        -46.0129  -27.0170    2.6063 C.3       2 UNK        -0.2002 
     79 N         -48.0799  -26.6957    3.8572 N.am      2 UNK        -0.4032 
     80 C         -49.0044  -26.2424    4.7134 C.2       1 UNK         0.5000 
     81 O         -48.7332  -25.6363    5.7512 O.2       1 UNK        -0.5238 
     82 H82       -50.2425  -24.6975    0.2031 H         1 UNK         0.0889 
     83 H83       -51.7283  -24.4373    1.1197 H         1 UNK         0.0889 
     84 H84       -51.6006  -25.8110    0.0198 H         1 UNK         0.0889 
     85 H85       -51.5024  -25.0226    3.2402 H         1 UNK         0.3028 
     86 H86       -51.0622  -25.9934    5.1184 H         1 UNK         0.0864 
     87 H87       -50.4309  -28.5017    5.2336 H         1 UNK         0.0720 
     88 H88       -50.4462  -28.5238    3.5071 H         1 UNK         0.0720 
     89 H89       -52.2169  -29.7263    6.2300 H         1 UNK         0.0814 
     90 H90       -53.9230  -29.5707    5.9236 H         1 UNK         0.0814 
     91 H91       -51.0268  -27.3988    7.0125 H         1 UNK         0.1469 
     92 H92       -53.3013  -25.4082   10.0231 H         1 UNK         0.1381 
     93 H93       -55.1793  -28.3519    7.5309 H         1 UNK         0.1206 
     94 H94       -56.5114  -26.6505    8.9652 H         1 UNK         0.0813 
     95 H95       -55.6661  -25.7541   10.2007 H         1 UNK         0.0813 
     96 H96       -54.5419  -27.0253   12.5079 H         1 UNK         0.0638 
     97 H97       -53.5923  -27.8603   11.3015 H         1 UNK         0.0638 
     98 H98       -54.3774  -30.0604   12.2000 H         1 UNK         0.0568 
     99 H99       -53.6780  -29.3746   15.4704 H         1 UNK         0.3450 
    100 H100      -51.9447  -29.4183   15.2725 H         1 UNK         0.3450 
    101 H101      -55.8324  -28.4084   14.1513 H         1 UNK         0.2987 
    102 H102      -58.0086  -30.2153   14.8104 H         1 UNK         0.0766 
    103 H103      -57.9699  -31.5250   16.9507 H         1 UNK         0.0798 
    104 H104      -56.2473  -31.8298   16.7313 H         1 UNK         0.0798 
    105 H105      -57.4134  -32.4822   15.5896 H         1 UNK         0.0798 
    106 H106      -57.7097  -28.5071   16.1857 H         1 UNK         0.3198 
    107 H107      -56.9198  -27.0173   17.5072 H         1 UNK         0.0843 
    108 H108      -54.7060  -28.0079   19.3858 H         1 UNK         0.0831 
    109 H109      -56.4255  -28.3067   19.6023 H         1 UNK         0.0831 
    110 H110      -55.8066  -26.6648   19.6915 H         1 UNK         0.0831 
    111 H111      -54.1823  -26.2379   17.7333 H         1 UNK         0.3133 
    112 H112      -53.7762  -24.9576   14.4302 H         1 UNK         0.0566 
    113 H113      -53.3063  -22.9607   15.7960 H         1 UNK         0.0814 
    114 H114      -55.0242  -23.3267   15.8296 H         1 UNK         0.0814 
    115 H115      -54.0206  -23.7159   17.2185 H         1 UNK         0.0814 
    116 H116      -51.8161  -25.6432   14.9996 H         1 UNK         0.3091 
    117 H117      -50.0191  -26.2584   18.0412 H         1 UNK         0.0702 
    118 H118      -49.0787  -27.8622   16.3991 H         1 UNK         0.0785 
    119 H119      -50.4291  -27.5801   15.3046 H         1 UNK         0.0785 
    120 H120      -50.7022  -28.3431   16.8673 H         1 UNK         0.0785 
    121 H121      -49.0842  -25.4691   15.4633 H         1 UNK         0.2998 
    122 H122      -48.8055  -21.9667   16.1363 H         1 UNK         0.0697 
    123 H123      -46.7088  -24.1819   15.8038 H         1 UNK         0.0825 
    124 H124      -46.7464  -22.9690   17.0720 H         1 UNK         0.0825 
    125 H125      -46.4760  -22.4798   15.4076 H         1 UNK         0.0825 
    126 H126      -48.3140  -23.7912   13.9041 H         1 UNK         0.3029 
    127 H127      -51.4349  -23.2752   12.3571 H         1 UNK         0.0897 
    128 H128      -50.0822  -22.4364   10.4258 H         1 UNK         0.0792 
    129 H129      -48.7817  -21.9816   11.5263 H         1 UNK         0.0792 
    130 H130      -50.3419  -21.1803   11.6261 H         1 UNK         0.0792 
    131 H131      -48.9085  -24.4844   11.5830 H         1 UNK         0.3086 
    132 H132      -49.7165  -27.6951   12.9357 H         1 UNK         0.0583 
    133 H133      -49.7626  -28.5491   10.7182 H         1 UNK         0.1020 
    134 H134      -51.1490  -27.5223   10.8168 H         1 UNK         0.1020 
    135 H135      -51.0131  -24.8387    9.7416 H         1 UNK         0.0694 
    136 H136      -50.5026  -24.8942    8.0730 H         1 UNK         0.0694 
    137 H137      -47.6509  -26.9561   11.1950 H         1 UNK         0.2989 
    138 H138      -45.5008  -25.1126   13.1507 H         1 UNK         0.1055 
    139 H139      -44.9408  -27.3720   14.0848 H         1 UNK         0.0806 
    140 H140      -43.8336  -26.9197   12.7993 H         1 UNK         0.0806 
    141 H141      -45.1188  -28.0858   12.4866 H         1 UNK         0.0806 
    142 H142      -45.0872  -26.3849   10.6349 H         1 UNK         0.3061 
    143 H143      -46.7607  -23.9746    8.5894 H         1 UNK         0.0734 
    144 H144      -44.4800  -23.8925    7.6307 H         1 UNK         0.0832 
    145 H145      -44.5303  -23.0787    9.1868 H         1 UNK         0.0832 
    146 H146      -43.8183  -24.6791    9.0619 H         1 UNK         0.0832 
    147 H147      -46.9726  -25.8820    7.5583 H         1 UNK         0.3156 
    148 H148      -44.9750  -28.6901    7.0222 H         1 UNK         0.0589 
    149 H149      -47.8264  -28.7558    8.1421 H         1 UNK         0.0808 
    150 H150      -47.0028  -30.0519    7.2794 H         1 UNK         0.0808 
    151 H151      -46.4445  -29.5622    8.8693 H         1 UNK         0.0808 
    152 H152      -47.4617  -27.8896    5.8696 H         1 UNK         0.3098 
    153 H153      -46.5146  -25.3478    3.8522 H         1 UNK         0.0720 
    154 H154      -46.4772  -26.5997    1.7123 H         1 UNK         0.0791 
    155 H155      -46.1232  -28.1014    2.5665 H         1 UNK         0.0791 
    156 H156      -44.9465  -26.7947    2.5462 H         1 UNK         0.0791 
    157 H157      -48.4394  -27.1181    3.0047 H         1 UNK         0.3028 
@<TRIPOS>BOND
     1    1    2 1    
     2    1   82 1    
     3    1   83 1    
     4    1   84 1    
     5    2    3 2    
     6    2    4 am   BACKBONE|DICT|INTERRES
     7    4    5 1    
     8    4   85 1    
     9    5    6 1    
    10    5   80 1    
    11    5   86 1    
    12    6    7 1    
    13    6   87 1    
    14    6   88 1    
    15    7    8 1    
    16    8    9 1    
    17    8   89 1    
    18    8   90 1    
    19    9   10 ar   
    20    9   14 ar   
    21   10   11 ar   
    22   10   91 1    
    23   11   12 ar   
    24   11   58 1    
    25   12   13 ar   
    26   12   92 1    
    27   13   14 ar   
    28   13   15 1    
    29   14   93 1    
    30   15   16 1    
    31   15   94 1    
    32   15   95 1    
    33   16   17 1    
    34   17   18 1    
    35   17   96 1    
    36   17   97 1    
    37   18   19 1    
    38   18   22 1    
    39   18   98 1    
    40   19   20 am   BACKBONE|DICT|INTERRES
    41   19   21 2    
    42   20   99 1    
    43   20  100 1    
    44   22   23 am   BACKBONE|DICT|INTERRES
    45   22  101 1    
    46   23   24 2    
    47   23   25 1    
    48   25   26 1    
    49   25   27 1    
    50   25  102 1    
    51   26  103 1    
    52   26  104 1    
    53   26  105 1    
    54   27   28 am   BACKBONE|DICT|INTERRES
    55   27  106 1    
    56   28   29 2    
    57   28   30 1    
    58   30   31 1    
    59   30   32 1    
    60   30  107 1    
    61   31  108 1    
    62   31  109 1    
    63   31  110 1    
    64   32   33 am   BACKBONE|DICT|INTERRES
    65   32  111 1    
    66   33   34 2    
    67   33   35 1    
    68   35   36 1    
    69   35   37 1    
    70   35  112 1    
    71   36  113 1    
    72   36  114 1    
    73   36  115 1    
    74   37   38 am   BACKBONE|DICT|INTERRES
    75   37  116 1    
    76   38   39 2    
    77   38   40 1    
    78   40   41 1    
    79   40   42 1    
    80   40  117 1    
    81   41  118 1    
    82   41  119 1    
    83   41  120 1    
    84   42   43 am   BACKBONE|DICT|INTERRES
    85   42  121 1    
    86   43   44 2    
    87   43   45 1    
    88   45   46 1    
    89   45   47 1    
    90   45  122 1    
    91   46  123 1    
    92   46  124 1    
    93   46  125 1    
    94   47   48 am   BACKBONE|DICT|INTERRES
    95   47  126 1    
    96   48   49 2    
    97   48   50 1    
    98   50   51 1    
    99   50   52 1    
   100   50  127 1    
   101   51  128 1    
   102   51  129 1    
   103   51  130 1    
   104   52   53 am   BACKBONE|DICT|INTERRES
   105   52  131 1    
   106   53   54 2    
   107   53   55 1    
   108   55   56 1    
   109   55   59 1    
   110   55  132 1    
   111   56   57 1    
   112   56  133 1    
   113   56  134 1    
   114   57   58 1    
   115   58  135 1    
   116   58  136 1    
   117   59   60 am   BACKBONE|DICT|INTERRES
   118   59  137 1    
   119   60   61 2    
   120   60   62 1    
   121   62   63 1    
   122   62   64 1    
   123   62  138 1    
   124   63  139 1    
   125   63  140 1    
   126   63  141 1    
   127   64   65 am   BACKBONE|DICT|INTERRES
   128   64  142 1    
   129   65   66 2    
   130   65   67 1    
   131   67   68 1    
   132   67   69 1    
   133   67  143 1    
   134   68  144 1    
   135   68  145 1    
   136   68  146 1    
   137   69   70 am   BACKBONE|DICT|INTERRES
   138   69  147 1    
   139   70   71 2    
   140   70   72 1    
   141   72   73 1    
   142   72   74 1    
   143   72  148 1    
   144   73  149 1    
   145   73  150 1    
   146   73  151 1    
   147   74   75 am   BACKBONE|DICT|INTERRES
   148   74  152 1    
   149   75   76 2    
   150   75   77 1    
   151   77   78 1    
   152   77   79 1    
   153   77  153 1    
   154   78  154 1    
   155   78  155 1    
   156   78  156 1    
   157   79   80 am   BACKBONE|DICT|INTERRES
   158   79  157 1    
   159   80   81 2    
@<TRIPOS>SUBSTRUCTURE
     1 UNK         1 GROUP             0       ****    0 ROOT    
