@<TRIPOS>MOLECULE
3R207
157   159    1
SMALL
USER_CHARGES


@<TRIPOS>ATOM
      1 CA        -54.2446  -29.4782    5.9604 C.3       0 UNK        -0.1975 
      2 C         -53.0063  -28.7756    6.4984 C.2       0 UNK         0.4852 
      3 O         -53.1015  -27.6323    6.9452 O.2       0 UNK        -0.5216 
      4 N         -51.8529  -29.4572    6.4599 N.am      1 UNK        -0.4461 
      5 CA        -50.5528  -28.9428    6.9071 C.3       1 UNK         0.0864 
      6 C6        -49.5310  -30.0988    7.0975 C.3       14 UNK        -0.0898 
      7 S7        -48.3961  -29.8053    8.4976 S.3       14 UNK        -0.2598 
      8 C8        -49.2424  -30.7057    9.8433 C.3       14 UNK         0.0286 
      9 C9        -50.6207  -30.1203   10.1135 C.ar      14 UNK        -0.0844 
     10 C10       -50.7311  -28.8367   10.6516 C.ar      14 UNK        -0.0881 
     11 C11       -51.9805  -28.2270   10.7926 C.ar      14 UNK        -0.0643 
     12 C12       -53.1286  -28.9343   10.4291 C.ar      14 UNK        -0.0930 
     13 C13       -53.0360  -30.2414    9.9417 C.ar      14 UNK        -0.0827 
     14 C14       -51.7783  -30.8296    9.7789 C.ar      14 UNK        -0.1249 
     15 C15       -54.3005  -30.9957    9.5695 C.3       14 UNK         0.0141 
     16 S16       -55.2833  -31.3928   11.0490 S.3       14 UNK        -0.2313 
     17 C17       -56.9697  -31.2593   10.3696 C.3       14 UNK        -0.0915 
     18 CA        -57.5064  -29.7956   10.3774 C.3       13 UNK         0.0968 
     19 C         -58.8645  -29.6480    9.6244 C.2       13 UNK         0.5732 
     20 N         -59.7386  -28.7266   10.0119 N.am      13 UNK        -0.7310 
     21 O         -59.1205  -30.3519    8.6499 O.2       13 UNK        -0.5035 
     22 N         -57.4649  -29.1668   11.7110 N.am      13 UNK        -0.4233 
     23 C         -58.1688  -29.5318   12.7886 C.2       13 UNK         0.4989 
     24 O         -58.9589  -30.4774   12.8106 O.2       13 UNK        -0.4996 
     25 CA        -57.9394  -28.6887   14.0579 C.3       12 UNK         0.0216 
     26 CB        -58.9377  -29.0269   15.1819 C.3       12 UNK        -0.1964 
     27 N         -56.5769  -28.8344   14.5761 N.am      12 UNK        -0.4276 
     28 C         -55.4869  -28.2386   14.0772 C.2       12 UNK         0.5020 
     29 O         -55.4950  -27.5209   13.0726 O.2       12 UNK        -0.5489 
     30 CA        -54.1662  -28.5190   14.8137 C.3       11 UNK         0.0294 
     31 CB        -53.4214  -29.6991   14.1699 C.3       11 UNK        -0.2019 
     32 N         -53.2890  -27.3472   14.8360 N.am      11 UNK        -0.4493 
     33 C         -53.5167  -26.2338   15.5479 C.2       11 UNK         0.4932 
     34 O         -54.5033  -26.0804   16.2710 O.2       11 UNK        -0.5029 
     35 CA        -52.4547  -25.1156   15.4478 C.3       10 UNK         0.0280 
     36 CB        -52.5387  -24.1017   16.6079 C.3       10 UNK        -0.1976 
     37 N         -51.0789  -25.6108   15.3047 N.am      10 UNK        -0.4242 
     38 C         -50.4240  -26.4461   16.1271 C.2       10 UNK         0.5072 
     39 O         -50.8977  -26.9169   17.1622 O.2       10 UNK        -0.5224 
     40 CA        -48.9990  -26.8447   15.7119 C.3       9 UNK         0.0343 
     41 CB        -49.0413  -27.9009   14.5944 C.3       9 UNK        -0.2003 
     42 N         -48.1677  -25.7099   15.2986 N.am      9 UNK        -0.4272 
     43 C         -47.7415  -24.7434   16.1269 C.2       9 UNK         0.4988 
     44 O         -48.0263  -24.6906   17.3240 O.2       9 UNK        -0.5108 
     45 CA        -46.8191  -23.6646   15.5337 C.3       8 UNK         0.0248 
     46 CB        -45.3916  -24.2076   15.3567 C.3       8 UNK        -0.2001 
     47 N         -47.3089  -23.1397   14.2595 N.am      8 UNK        -0.4140 
     48 C         -48.3767  -22.3394   14.1273 C.2       8 UNK         0.5028 
     49 O         -49.0161  -21.8842   15.0766 O.2       8 UNK        -0.5428 
     50 CA        -48.8292  -22.0116   12.6904 C.3       7 UNK         0.0264 
     51 CB        -48.0329  -20.8252   12.1274 C.3       7 UNK        -0.1988 
     52 N         -48.7395  -23.1598   11.7787 N.am      7 UNK        -0.4454 
     53 C         -49.4097  -24.3070   11.9691 C.2       7 UNK         0.5027 
     54 O         -50.1818  -24.4925   12.9100 O.2       7 UNK        -0.5083 
     55 CA        -49.1324  -25.4778   11.0079 C.3       6 UNK         0.0844 
     56 C56       -50.0514  -25.4929    9.7618 C.3       14 UNK        -0.0967 
     57 S57       -51.8577  -25.5337   10.0729 S.3       14 UNK        -0.2604 
     58 C58       -52.1040  -26.8170   11.3496 C.3       14 UNK         0.0134 
     59 N         -47.7157  -25.5801   10.6579 N.am      6 UNK        -0.4116 
     60 C         -46.7647  -25.9457   11.5302 C.2       5 UNK         0.5034 
     61 O         -46.9892  -26.2658   12.6972 O.2       5 UNK        -0.5045 
     62 CA        -45.3126  -25.8776   11.0394 C.3       5 UNK         0.0224 
     63 CB        -44.9868  -27.0503   10.1002 C.3       5 UNK        -0.1978 
     64 N         -45.0236  -24.6038   10.3786 N.am      5 UNK        -0.4737 
     65 C         -45.0677  -23.4118   10.9920 C.2       4 UNK         0.5027 
     66 O         -45.2986  -23.2683   12.1912 O.2       4 UNK        -0.5211 
     67 CA        -44.8507  -22.1647   10.1226 C.3       4 UNK         0.0297 
     68 CB        -43.3700  -21.7543   10.1393 C.3       4 UNK        -0.1993 
     69 N         -45.2952  -22.3262    8.7382 N.am      4 UNK        -0.4486 
     70 C         -46.5481  -22.5775    8.3314 C.2       3 UNK         0.4961 
     71 O         -47.5053  -22.7135    9.0984 O.2       3 UNK        -0.5105 
     72 CA        -46.7588  -22.6628    6.8035 C.3       3 UNK         0.0299 
     73 CB        -45.4411  -22.7715    5.9999 C.3       3 UNK        -0.1972 
     74 N         -47.6686  -23.7179    6.3429 N.am      3 UNK        -0.4305 
     75 C         -47.7237  -25.0039    6.7171 C.2       2 UNK         0.5006 
     76 O         -47.1777  -25.4872    7.7130 O.2       2 UNK        -0.5106 
     77 CA        -48.4673  -25.9216    5.7421 C.3       2 UNK         0.0296 
     78 CB        -47.4989  -26.4173    4.6484 C.3       2 UNK        -0.2002 
     79 N         -49.0497  -27.0538    6.4555 N.am      2 UNK        -0.4032 
     80 C         -50.0168  -27.8405    5.9676 C.2       1 UNK         0.5000 
     81 O         -50.4688  -27.7313    4.8228 O.2       1 UNK        -0.5238 
     82 H82       -54.0856  -30.5503    5.8454 H         1 UNK         0.0889 
     83 H83       -54.5156  -29.0655    4.9890 H         1 UNK         0.0889 
     84 H84       -55.0859  -29.3327    6.6373 H         1 UNK         0.0889 
     85 H85       -51.8382  -30.3763    6.0432 H         1 UNK         0.3028 
     86 H86       -50.7384  -28.4654    7.8707 H         1 UNK         0.0864 
     87 H87       -50.0461  -31.0422    7.2859 H         1 UNK         0.0720 
     88 H88       -48.9437  -30.2715    6.1933 H         1 UNK         0.0720 
     89 H89       -48.6382  -30.6452   10.7496 H         1 UNK         0.0814 
     90 H90       -49.3092  -31.7643    9.5873 H         1 UNK         0.0814 
     91 H91       -49.8283  -28.3117   10.9163 H         1 UNK         0.1469 
     92 H92       -54.1007  -28.4740   10.5436 H         1 UNK         0.1381 
     93 H93       -51.6995  -31.8274    9.3699 H         1 UNK         0.1206 
     94 H94       -54.0688  -31.9178    9.0345 H         1 UNK         0.0813 
     95 H95       -54.8816  -30.3791    8.8839 H         1 UNK         0.0813 
     96 H96       -57.6248  -31.9104   10.9498 H         1 UNK         0.0638 
     97 H97       -56.9613  -31.6691    9.3580 H         1 UNK         0.0638 
     98 H98       -56.8165  -29.2038    9.7758 H         1 UNK         0.0568 
     99 H99       -60.6080  -28.6310    9.5113 H         1 UNK         0.3450 
    100 H100      -59.5389  -28.1289   10.7972 H         1 UNK         0.3450 
    101 H101      -56.8012  -28.4074   11.8286 H         1 UNK         0.2987 
    102 H102      -58.0969  -27.6431   13.7837 H         1 UNK         0.0766 
    103 H103      -58.8043  -28.3704   16.0421 H         1 UNK         0.0798 
    104 H104      -58.8296  -30.0566   15.5253 H         1 UNK         0.0798 
    105 H105      -59.9665  -28.9036   14.8406 H         1 UNK         0.0798 
    106 H106      -56.4694  -29.4441   15.3743 H         1 UNK         0.3198 
    107 H107      -54.3932  -28.7817   15.8495 H         1 UNK         0.0843 
    108 H108      -54.0438  -30.5949   14.1550 H         1 UNK         0.0831 
    109 H109      -52.5130  -29.9455   14.7198 H         1 UNK         0.0831 
    110 H110      -53.1415  -29.4871   13.1391 H         1 UNK         0.0831 
    111 H111      -52.4671  -27.3832   14.2542 H         1 UNK         0.3133 
    112 H112      -52.6742  -24.5767   14.5249 H         1 UNK         0.0566 
    113 H113      -51.7976  -23.3100   16.4945 H         1 UNK         0.0814 
    114 H114      -53.5186  -23.6243   16.6434 H         1 UNK         0.0814 
    115 H115      -52.3729  -24.5801   17.5738 H         1 UNK         0.0814 
    116 H116      -50.5921  -25.2668   14.4765 H         1 UNK         0.3091 
    117 H117      -48.5207  -27.3011   16.5812 H         1 UNK         0.0702 
    118 H118      -48.0425  -28.2708   14.3621 H         1 UNK         0.0785 
    119 H119      -49.4707  -27.5023   13.6759 H         1 UNK         0.0785 
    120 H120      -49.6435  -28.7611   14.8905 H         1 UNK         0.0785 
    121 H121      -47.8373  -25.7150   14.3373 H         1 UNK         0.2998 
    122 H122      -46.7760  -22.8367   16.2447 H         1 UNK         0.0697 
    123 H123      -45.3530  -25.0158   14.6252 H         1 UNK         0.0825 
    124 H124      -45.0013  -24.5978   16.2976 H         1 UNK         0.0825 
    125 H125      -44.7102  -23.4251   15.0221 H         1 UNK         0.0825 
    126 H126      -46.7838  -23.3976   13.4278 H         1 UNK         0.3029 
    127 H127      -49.8812  -21.7215   12.7354 H         1 UNK         0.0897 
    128 H128      -48.2954  -20.6187   11.0895 H         1 UNK         0.0792 
    129 H129      -48.2344  -19.9198   12.7012 H         1 UNK         0.0792 
    130 H130      -46.9599  -21.0035   12.1789 H         1 UNK         0.0792 
    131 H131      -48.1523  -23.0615   10.9547 H         1 UNK         0.3086 
    132 H132      -49.3444  -26.3730   11.5848 H         1 UNK         0.0583 
    133 H133      -49.8397  -24.6238    9.1358 H         1 UNK         0.1020 
    134 H134      -49.8126  -26.3623    9.1499 H         1 UNK         0.1020 
    135 H135      -51.4308  -26.6807   12.1929 H         1 UNK         0.0694 
    136 H136      -53.1042  -26.6794   11.7638 H         1 UNK         0.0694 
    137 H137      -47.4467  -25.3199    9.7133 H         1 UNK         0.2989 
    138 H138      -44.6666  -25.9535   11.9171 H         1 UNK         0.1055 
    139 H139      -45.1880  -28.0055   10.5872 H         1 UNK         0.0806 
    140 H140      -43.9346  -27.0488    9.8153 H         1 UNK         0.0806 
    141 H141      -45.5809  -27.0220    9.1864 H         1 UNK         0.0806 
    142 H142      -44.8610  -24.6273    9.3821 H         1 UNK         0.3061 
    143 H143      -45.4310  -21.3499   10.5558 H         1 UNK         0.0734 
    144 H144      -43.0207  -21.6013   11.1617 H         1 UNK         0.0832 
    145 H145      -42.7328  -22.5166    9.6891 H         1 UNK         0.0832 
    146 H146      -43.2092  -20.8193    9.6023 H         1 UNK         0.0832 
    147 H147      -44.5852  -22.2278    8.0269 H         1 UNK         0.3156 
    148 H148      -47.2337  -21.7209    6.5252 H         1 UNK         0.0589 
    149 H149      -44.8787  -23.6689    6.2629 H         1 UNK         0.0808 
    150 H150      -45.6389  -22.8156    4.9286 H         1 UNK         0.0808 
    151 H151      -44.7955  -21.9062    6.1557 H         1 UNK         0.0808 
    152 H152      -48.2273  -23.4560    5.5427 H         1 UNK         0.3098 
    153 H153      -49.2761  -25.3516    5.2792 H         1 UNK         0.0720 
    154 H154      -47.0268  -25.5811    4.1307 H         1 UNK         0.0791 
    155 H155      -48.0127  -27.0104    3.8921 H         1 UNK         0.0791 
    156 H156      -46.7019  -27.0315    5.0697 H         1 UNK         0.0791 
    157 H157      -48.6744  -27.2148    7.3817 H         1 UNK         0.3028 
@<TRIPOS>BOND
     1    1    2 1    
     2    1   82 1    
     3    1   83 1    
     4    1   84 1    
     5    2    3 2    
     6    2    4 am   BACKBONE|DICT|INTERRES
     7    4    5 1    
     8    4   85 1    
     9    5    6 1    
    10    5   80 1    
    11    5   86 1    
    12    6    7 1    
    13    6   87 1    
    14    6   88 1    
    15    7    8 1    
    16    8    9 1    
    17    8   89 1    
    18    8   90 1    
    19    9   10 ar   
    20    9   14 ar   
    21   10   11 ar   
    22   10   91 1    
    23   11   12 ar   
    24   11   58 1    
    25   12   13 ar   
    26   12   92 1    
    27   13   14 ar   
    28   13   15 1    
    29   14   93 1    
    30   15   16 1    
    31   15   94 1    
    32   15   95 1    
    33   16   17 1    
    34   17   18 1    
    35   17   96 1    
    36   17   97 1    
    37   18   19 1    
    38   18   22 1    
    39   18   98 1    
    40   19   20 am   BACKBONE|DICT|INTERRES
    41   19   21 2    
    42   20   99 1    
    43   20  100 1    
    44   22   23 am   BACKBONE|DICT|INTERRES
    45   22  101 1    
    46   23   24 2    
    47   23   25 1    
    48   25   26 1    
    49   25   27 1    
    50   25  102 1    
    51   26  103 1    
    52   26  104 1    
    53   26  105 1    
    54   27   28 am   BACKBONE|DICT|INTERRES
    55   27  106 1    
    56   28   29 2    
    57   28   30 1    
    58   30   31 1    
    59   30   32 1    
    60   30  107 1    
    61   31  108 1    
    62   31  109 1    
    63   31  110 1    
    64   32   33 am   BACKBONE|DICT|INTERRES
    65   32  111 1    
    66   33   34 2    
    67   33   35 1    
    68   35   36 1    
    69   35   37 1    
    70   35  112 1    
    71   36  113 1    
    72   36  114 1    
    73   36  115 1    
    74   37   38 am   BACKBONE|DICT|INTERRES
    75   37  116 1    
    76   38   39 2    
    77   38   40 1    
    78   40   41 1    
    79   40   42 1    
    80   40  117 1    
    81   41  118 1    
    82   41  119 1    
    83   41  120 1    
    84   42   43 am   BACKBONE|DICT|INTERRES
    85   42  121 1    
    86   43   44 2    
    87   43   45 1    
    88   45   46 1    
    89   45   47 1    
    90   45  122 1    
    91   46  123 1    
    92   46  124 1    
    93   46  125 1    
    94   47   48 am   BACKBONE|DICT|INTERRES
    95   47  126 1    
    96   48   49 2    
    97   48   50 1    
    98   50   51 1    
    99   50   52 1    
   100   50  127 1    
   101   51  128 1    
   102   51  129 1    
   103   51  130 1    
   104   52   53 am   BACKBONE|DICT|INTERRES
   105   52  131 1    
   106   53   54 2    
   107   53   55 1    
   108   55   56 1    
   109   55   59 1    
   110   55  132 1    
   111   56   57 1    
   112   56  133 1    
   113   56  134 1    
   114   57   58 1    
   115   58  135 1    
   116   58  136 1    
   117   59   60 am   BACKBONE|DICT|INTERRES
   118   59  137 1    
   119   60   61 2    
   120   60   62 1    
   121   62   63 1    
   122   62   64 1    
   123   62  138 1    
   124   63  139 1    
   125   63  140 1    
   126   63  141 1    
   127   64   65 am   BACKBONE|DICT|INTERRES
   128   64  142 1    
   129   65   66 2    
   130   65   67 1    
   131   67   68 1    
   132   67   69 1    
   133   67  143 1    
   134   68  144 1    
   135   68  145 1    
   136   68  146 1    
   137   69   70 am   BACKBONE|DICT|INTERRES
   138   69  147 1    
   139   70   71 2    
   140   70   72 1    
   141   72   73 1    
   142   72   74 1    
   143   72  148 1    
   144   73  149 1    
   145   73  150 1    
   146   73  151 1    
   147   74   75 am   BACKBONE|DICT|INTERRES
   148   74  152 1    
   149   75   76 2    
   150   75   77 1    
   151   77   78 1    
   152   77   79 1    
   153   77  153 1    
   154   78  154 1    
   155   78  155 1    
   156   78  156 1    
   157   79   80 am   BACKBONE|DICT|INTERRES
   158   79  157 1    
   159   80   81 2    
@<TRIPOS>SUBSTRUCTURE
     1 UNK         1 GROUP             0       ****    0 ROOT    
