@<TRIPOS>MOLECULE
3R207
157   159    1
SMALL
USER_CHARGES


@<TRIPOS>ATOM
      1 CA        -49.0772  -30.2568    3.3270 C.3       0 UNK        -0.1975 
      2 C         -48.6951  -29.9236    4.7616 C.2       0 UNK         0.4852 
      3 O         -47.9499  -30.6808    5.3838 O.2       0 UNK        -0.5216 
      4 N         -49.2007  -28.7956    5.2841 N.am      1 UNK        -0.4461 
      5 CA        -48.9615  -28.2819    6.6426 C.3       1 UNK         0.0864 
      6 C6        -49.5612  -29.2068    7.7500 C.3       14 UNK        -0.0898 
      7 S7        -50.7761  -28.3214    8.7768 S.3       14 UNK        -0.2598 
      8 C8        -52.3078  -28.7223    7.8807 C.3       14 UNK         0.0286 
      9 C9        -53.4163  -27.7320    8.1999 C.ar      14 UNK        -0.0844 
     10 C10       -53.6026  -26.6055    7.3932 C.ar      14 UNK        -0.0881 
     11 C11       -54.6265  -25.6938    7.6678 C.ar      14 UNK        -0.0643 
     12 C12       -55.4626  -25.9115    8.7683 C.ar      14 UNK        -0.0930 
     13 C13       -55.2917  -27.0401    9.5767 C.ar      14 UNK        -0.0827 
     14 C14       -54.2699  -27.9488    9.2848 C.ar      14 UNK        -0.1249 
     15 C15       -56.2306  -27.3065   10.7428 C.3       14 UNK         0.0141 
     16 S16       -55.4242  -26.9878   12.3422 S.3       14 UNK        -0.2313 
     17 C17       -56.6264  -27.7458   13.4902 C.3       14 UNK        -0.0915 
     18 CA        -56.2142  -29.1538   14.0013 C.3       13 UNK         0.0968 
     19 C         -56.2999  -30.2372   12.8836 C.2       13 UNK         0.5732 
     20 N         -55.2011  -30.8428   12.4446 N.am      13 UNK        -0.7310 
     21 O         -57.3933  -30.5383   12.4110 O.2       13 UNK        -0.5035 
     22 N         -54.9357  -29.1149   14.7230 N.am      13 UNK        -0.4233 
     23 C         -54.4881  -30.0770   15.5404 C.2       13 UNK         0.4989 
     24 O         -55.1760  -31.0316   15.9072 O.2       13 UNK        -0.4996 
     25 CA        -53.0267  -29.9592   16.0208 C.3       12 UNK         0.0216 
     26 CB        -52.3848  -31.3344   16.3031 C.3       12 UNK        -0.1964 
     27 N         -52.1700  -29.1637   15.1281 N.am      12 UNK        -0.4276 
     28 C         -51.8839  -29.4066   13.8390 C.2       12 UNK         0.5020 
     29 O         -52.3503  -30.3545   13.2050 O.2       12 UNK        -0.5489 
     30 CA        -50.9601  -28.4105   13.1156 C.3       11 UNK         0.0294 
     31 CB        -51.7677  -27.5390   12.1417 C.3       11 UNK        -0.2019 
     32 N         -50.2127  -27.5279   14.0128 N.am      11 UNK        -0.4493 
     33 C         -49.1451  -27.8826   14.7402 C.2       11 UNK         0.4932 
     34 O         -48.6875  -29.0245   14.7762 O.2       11 UNK        -0.5029 
     35 CA        -48.4777  -26.7738   15.5667 C.3       10 UNK         0.0280 
     36 CB        -47.5911  -25.8954   14.6676 C.3       10 UNK        -0.1976 
     37 N         -49.4802  -25.9330   16.2231 N.am      10 UNK        -0.4242 
     38 C         -49.8130  -26.0020   17.5199 C.2       10 UNK         0.5072 
     39 O         -49.2732  -26.7593   18.3276 O.2       10 UNK        -0.5224 
     40 CA        -50.9380  -25.0693   18.0146 C.3       9 UNK         0.0343 
     41 CB        -50.3433  -23.7808   18.6058 C.3       9 UNK        -0.2003 
     42 N         -51.9129  -24.7163   16.9792 N.am      9 UNK        -0.4272 
     43 C         -52.7443  -25.5859   16.3888 C.2       9 UNK         0.4988 
     44 O         -52.8337  -26.7687   16.7123 O.2       9 UNK        -0.5108 
     45 CA        -53.5827  -25.0766   15.2026 C.3       8 UNK         0.0248 
     46 CB        -54.9987  -24.6992   15.6636 C.3       8 UNK        -0.2001 
     47 N         -52.9944  -23.9598   14.4505 N.am      8 UNK        -0.4140 
     48 C         -51.7810  -23.9625   13.8822 C.2       8 UNK         0.5028 
     49 O         -50.9725  -24.8848   13.9975 O.2       8 UNK        -0.5428 
     50 CA        -51.3957  -22.7338   13.0542 C.3       7 UNK         0.0264 
     51 CB        -50.0020  -22.2131   13.4475 C.3       7 UNK        -0.1988 
     52 N         -51.4027  -23.0894   11.6365 N.am      7 UNK        -0.4454 
     53 C         -52.5103  -23.1163   10.8769 C.2       7 UNK         0.5027 
     54 O         -53.6234  -22.8291   11.3224 O.2       7 UNK        -0.5083 
     55 CA        -52.3602  -23.4719    9.3791 C.3       6 UNK         0.0844 
     56 C56       -53.4515  -22.7808    8.5139 C.3       14 UNK        -0.0967 
     57 S57       -53.4475  -23.3257    6.7739 S.3       14 UNK        -0.2604 
     58 C58       -54.8471  -24.4923    6.7563 C.3       14 UNK         0.0134 
     59 N         -51.0011  -23.1480    8.9394 N.am      6 UNK        -0.4116 
     60 C         -50.1919  -23.9412    8.2279 C.2       5 UNK         0.5034 
     61 O         -50.5353  -24.9941    7.6920 O.2       5 UNK        -0.5045 
     62 CA        -48.7144  -23.5134    8.1319 C.3       5 UNK         0.0224 
     63 CB        -48.4489  -22.0385    8.5127 C.3       5 UNK        -0.1978 
     64 N         -47.8576  -24.4041    8.9237 N.am      5 UNK        -0.4737 
     65 C         -47.9935  -24.7118   10.2254 C.2       4 UNK         0.5027 
     66 O         -48.8530  -24.2191   10.9561 O.2       4 UNK        -0.5211 
     67 CA        -47.0206  -25.7415   10.8264 C.3       4 UNK         0.0297 
     68 CB        -47.7517  -27.0611   11.1197 C.3       4 UNK        -0.1993 
     69 N         -45.8606  -26.0003    9.9691 N.am      4 UNK        -0.4486 
     70 C         -44.7866  -25.1975    9.9116 C.2       3 UNK         0.4961 
     71 O         -44.6357  -24.2116   10.6339 O.2       3 UNK        -0.5105 
     72 CA        -43.6932  -25.5251    8.8761 C.3       3 UNK         0.0299 
     73 CB        -42.5155  -26.2463    9.5517 C.3       3 UNK        -0.1972 
     74 N         -44.1509  -26.3219    7.7349 N.am      3 UNK        -0.4305 
     75 C         -45.0720  -25.9452    6.8374 C.2       2 UNK         0.5006 
     76 O         -45.6623  -24.8644    6.8732 O.2       2 UNK        -0.5106 
     77 CA        -45.4345  -26.9549    5.7314 C.3       2 UNK         0.0296 
     78 CB        -44.5256  -28.2054    5.6863 C.3       2 UNK        -0.2002 
     79 N         -46.8422  -27.3603    5.8080 N.am      2 UNK        -0.4032 
     80 C         -47.4824  -27.8787    6.8706 C.2       1 UNK         0.5000 
     81 O         -46.9477  -28.0376    7.9713 O.2       1 UNK        -0.5238 
     82 H82       -49.5814  -31.2220    3.2884 H         1 UNK         0.0889 
     83 H83       -48.1844  -30.3138    2.7049 H         1 UNK         0.0889 
     84 H84       -49.7434  -29.5094    2.8966 H         1 UNK         0.0889 
     85 H85       -49.8095  -28.2256    4.7125 H         1 UNK         0.3028 
     86 H86       -49.4938  -27.3294    6.6628 H         1 UNK         0.0864 
     87 H87       -48.8007  -29.6290    8.4083 H         1 UNK         0.0720 
     88 H88       -50.0555  -30.0773    7.3161 H         1 UNK         0.0720 
     89 H89       -52.6198  -29.7363    8.1351 H         1 UNK         0.0814 
     90 H90       -52.1147  -28.7202    6.8067 H         1 UNK         0.0814 
     91 H91       -52.9447  -26.4308    6.5525 H         1 UNK         0.1469 
     92 H92       -56.2577  -25.2118    8.9861 H         1 UNK         0.1381 
     93 H93       -54.1384  -28.8240    9.9068 H         1 UNK         0.1206 
     94 H94       -56.5646  -28.3432   10.6943 H         1 UNK         0.0813 
     95 H95       -57.1285  -26.6913   10.6670 H         1 UNK         0.0813 
     96 H96       -57.6125  -27.7776   13.0232 H         1 UNK         0.0638 
     97 H97       -56.7329  -27.0719   14.3414 H         1 UNK         0.0638 
     98 H98       -56.9692  -29.4458   14.7336 H         1 UNK         0.0568 
     99 H99       -55.2844  -31.5442   11.7272 H         1 UNK         0.3450 
    100 H100      -54.2842  -30.6091   12.8125 H         1 UNK         0.3450 
    101 H101      -54.3051  -28.3731   14.4617 H         1 UNK         0.2987 
    102 H102      -53.0671  -29.4180   16.9668 H         1 UNK         0.0766 
    103 H103      -52.9323  -31.8727   17.0776 H         1 UNK         0.0798 
    104 H104      -51.3571  -31.2279   16.6504 H         1 UNK         0.0798 
    105 H105      -52.3747  -31.9657   15.4139 H         1 UNK         0.0798 
    106 H106      -51.8020  -28.3151   15.5416 H         1 UNK         0.3198 
    107 H107      -50.2448  -28.9968   12.5348 H         1 UNK         0.0843 
    108 H108      -52.4694  -26.8905   12.6640 H         1 UNK         0.0831 
    109 H109      -52.3442  -28.1549   11.4514 H         1 UNK         0.0831 
    110 H110      -51.1171  -26.9034   11.5405 H         1 UNK         0.0831 
    111 H111      -50.4956  -26.5461   14.0105 H         1 UNK         0.3133 
    112 H112      -47.8346  -27.2495   16.3100 H         1 UNK         0.0566 
    113 H113      -47.0622  -25.1415   15.2505 H         1 UNK         0.0814 
    114 H114      -48.1731  -25.3773   13.9037 H         1 UNK         0.0814 
    115 H115      -46.8384  -26.4961   14.1551 H         1 UNK         0.0814 
    116 H116      -50.0121  -25.3184   15.6132 H         1 UNK         0.3091 
    117 H117      -51.4717  -25.5953   18.8091 H         1 UNK         0.0702 
    118 H118      -51.1181  -23.1473   19.0382 H         1 UNK         0.0785 
    119 H119      -49.8123  -23.1978   17.8521 H         1 UNK         0.0785 
    120 H120      -49.6326  -24.0087   19.4016 H         1 UNK         0.0785 
    121 H121      -51.9079  -23.7615   16.6519 H         1 UNK         0.2998 
    122 H122      -53.6700  -25.9117   14.5069 H         1 UNK         0.0697 
    123 H123      -54.9912  -23.8324   16.3254 H         1 UNK         0.0825 
    124 H124      -55.4648  -25.5221   16.2078 H         1 UNK         0.0825 
    125 H125      -55.6440  -24.4718   14.8146 H         1 UNK         0.0825 
    126 H126      -53.5986  -23.1679   14.2812 H         1 UNK         0.3029 
    127 H127      -52.1154  -21.9322   13.2350 H         1 UNK         0.0897 
    128 H128      -49.2278  -22.9675   13.3014 H         1 UNK         0.0792 
    129 H129      -49.9768  -21.9223   14.4983 H         1 UNK         0.0792 
    130 H130      -49.7266  -21.3369   12.8606 H         1 UNK         0.0792 
    131 H131      -50.5244  -23.4535   11.2669 H         1 UNK         0.3086 
    132 H132      -52.5070  -24.5528    9.3245 H         1 UNK         0.0583 
    133 H133      -54.4468  -22.9633    8.9234 H         1 UNK         0.1020 
    134 H134      -53.3179  -21.6978    8.5324 H         1 UNK         0.1020 
    135 H135      -55.7598  -23.9587    7.0264 H         1 UNK         0.0694 
    136 H136      -54.9932  -24.8468    5.7350 H         1 UNK         0.0694 
    137 H137      -50.6063  -22.3091    9.3389 H         1 UNK         0.2989 
    138 H138      -48.4245  -23.6456    7.0880 H         1 UNK         0.1055 
    139 H139      -48.6434  -21.8362    9.5666 H         1 UNK         0.0806 
    140 H140      -49.0643  -21.3600    7.9201 H         1 UNK         0.0806 
    141 H141      -47.4094  -21.7728    8.3194 H         1 UNK         0.0806 
    142 H142      -47.1038  -24.8431    8.4068 H         1 UNK         0.3061 
    143 H143      -46.6717  -25.3362   11.7784 H         1 UNK         0.0734 
    144 H144      -48.1584  -27.5110   10.2145 H         1 UNK         0.0832 
    145 H145      -47.0940  -27.7885   11.5950 H         1 UNK         0.0832 
    146 H146      -48.5910  -26.8925   11.7938 H         1 UNK         0.0832 
    147 H147      -45.9401  -26.7791    9.3218 H         1 UNK         0.3156 
    148 H148      -43.3287  -24.5739    8.4827 H         1 UNK         0.0589 
    149 H149      -42.8104  -27.2204    9.9444 H         1 UNK         0.0808 
    150 H150      -42.1278  -25.6625   10.3879 H         1 UNK         0.0808 
    151 H151      -41.6896  -26.3985    8.8566 H         1 UNK         0.0808 
    152 H152      -43.7482  -27.2428    7.6374 H         1 UNK         0.3098 
    153 H153      -45.3131  -26.4238    4.7861 H         1 UNK         0.0720 
    154 H154      -43.4766  -27.9316    5.5644 H         1 UNK         0.0791 
    155 H155      -44.7854  -28.8415    4.8399 H         1 UNK         0.0791 
    156 H156      -44.6141  -28.8150    6.5866 H         1 UNK         0.0791 
    157 H157      -47.3755  -27.2394    4.9588 H         1 UNK         0.3028 
@<TRIPOS>BOND
     1    1    2 1    
     2    1   82 1    
     3    1   83 1    
     4    1   84 1    
     5    2    3 2    
     6    2    4 am   BACKBONE|DICT|INTERRES
     7    4    5 1    
     8    4   85 1    
     9    5    6 1    
    10    5   80 1    
    11    5   86 1    
    12    6    7 1    
    13    6   87 1    
    14    6   88 1    
    15    7    8 1    
    16    8    9 1    
    17    8   89 1    
    18    8   90 1    
    19    9   10 ar   
    20    9   14 ar   
    21   10   11 ar   
    22   10   91 1    
    23   11   12 ar   
    24   11   58 1    
    25   12   13 ar   
    26   12   92 1    
    27   13   14 ar   
    28   13   15 1    
    29   14   93 1    
    30   15   16 1    
    31   15   94 1    
    32   15   95 1    
    33   16   17 1    
    34   17   18 1    
    35   17   96 1    
    36   17   97 1    
    37   18   19 1    
    38   18   22 1    
    39   18   98 1    
    40   19   20 am   BACKBONE|DICT|INTERRES
    41   19   21 2    
    42   20   99 1    
    43   20  100 1    
    44   22   23 am   BACKBONE|DICT|INTERRES
    45   22  101 1    
    46   23   24 2    
    47   23   25 1    
    48   25   26 1    
    49   25   27 1    
    50   25  102 1    
    51   26  103 1    
    52   26  104 1    
    53   26  105 1    
    54   27   28 am   BACKBONE|DICT|INTERRES
    55   27  106 1    
    56   28   29 2    
    57   28   30 1    
    58   30   31 1    
    59   30   32 1    
    60   30  107 1    
    61   31  108 1    
    62   31  109 1    
    63   31  110 1    
    64   32   33 am   BACKBONE|DICT|INTERRES
    65   32  111 1    
    66   33   34 2    
    67   33   35 1    
    68   35   36 1    
    69   35   37 1    
    70   35  112 1    
    71   36  113 1    
    72   36  114 1    
    73   36  115 1    
    74   37   38 am   BACKBONE|DICT|INTERRES
    75   37  116 1    
    76   38   39 2    
    77   38   40 1    
    78   40   41 1    
    79   40   42 1    
    80   40  117 1    
    81   41  118 1    
    82   41  119 1    
    83   41  120 1    
    84   42   43 am   BACKBONE|DICT|INTERRES
    85   42  121 1    
    86   43   44 2    
    87   43   45 1    
    88   45   46 1    
    89   45   47 1    
    90   45  122 1    
    91   46  123 1    
    92   46  124 1    
    93   46  125 1    
    94   47   48 am   BACKBONE|DICT|INTERRES
    95   47  126 1    
    96   48   49 2    
    97   48   50 1    
    98   50   51 1    
    99   50   52 1    
   100   50  127 1    
   101   51  128 1    
   102   51  129 1    
   103   51  130 1    
   104   52   53 am   BACKBONE|DICT|INTERRES
   105   52  131 1    
   106   53   54 2    
   107   53   55 1    
   108   55   56 1    
   109   55   59 1    
   110   55  132 1    
   111   56   57 1    
   112   56  133 1    
   113   56  134 1    
   114   57   58 1    
   115   58  135 1    
   116   58  136 1    
   117   59   60 am   BACKBONE|DICT|INTERRES
   118   59  137 1    
   119   60   61 2    
   120   60   62 1    
   121   62   63 1    
   122   62   64 1    
   123   62  138 1    
   124   63  139 1    
   125   63  140 1    
   126   63  141 1    
   127   64   65 am   BACKBONE|DICT|INTERRES
   128   64  142 1    
   129   65   66 2    
   130   65   67 1    
   131   67   68 1    
   132   67   69 1    
   133   67  143 1    
   134   68  144 1    
   135   68  145 1    
   136   68  146 1    
   137   69   70 am   BACKBONE|DICT|INTERRES
   138   69  147 1    
   139   70   71 2    
   140   70   72 1    
   141   72   73 1    
   142   72   74 1    
   143   72  148 1    
   144   73  149 1    
   145   73  150 1    
   146   73  151 1    
   147   74   75 am   BACKBONE|DICT|INTERRES
   148   74  152 1    
   149   75   76 2    
   150   75   77 1    
   151   77   78 1    
   152   77   79 1    
   153   77  153 1    
   154   78  154 1    
   155   78  155 1    
   156   78  156 1    
   157   79   80 am   BACKBONE|DICT|INTERRES
   158   79  157 1    
   159   80   81 2    
@<TRIPOS>SUBSTRUCTURE
     1 UNK         1 GROUP             0       ****    0 ROOT    
