@<TRIPOS>MOLECULE
3R207
157   159    1
SMALL
USER_CHARGES


@<TRIPOS>ATOM
      1 CA        -51.2325  -27.8409    3.6576 C.3       0 UNK        -0.1975 
      2 C         -50.6015  -29.2114    3.4185 C.2       0 UNK         0.4852 
      3 O         -51.0008  -29.9036    2.4832 O.2       0 UNK        -0.5216 
      4 N         -49.6328  -29.6535    4.2323 N.am      1 UNK        -0.4461 
      5 CA        -49.0081  -28.9156    5.3355 C.3       1 UNK         0.0864 
      6 C6        -48.4319  -29.8697    6.4111 C.3       14 UNK        -0.0898 
      7 S7        -49.7437  -30.7211    7.3518 S.3       14 UNK        -0.2598 
      8 C8        -49.9146  -29.6656    8.8313 C.3       14 UNK         0.0286 
      9 C9        -51.2081  -28.8651    8.8090 C.ar      14 UNK        -0.0844 
     10 C10       -51.2597  -27.6047    8.2038 C.ar      14 UNK        -0.0881 
     11 C11       -52.4487  -26.8675    8.2008 C.ar      14 UNK        -0.0643 
     12 C12       -53.5885  -27.3984    8.8098 C.ar      14 UNK        -0.0930 
     13 C13       -53.5459  -28.6510    9.4264 C.ar      14 UNK        -0.0827 
     14 C14       -52.3544  -29.3810    9.4213 C.ar      14 UNK        -0.1249 
     15 C15       -54.7906  -29.2137   10.0913 C.3       14 UNK         0.0141 
     16 S16       -55.0614  -28.4661   11.7272 S.3       14 UNK        -0.2313 
     17 C17       -56.5416  -29.3890   12.2669 C.3       14 UNK        -0.0915 
     18 CA        -56.2659  -30.4015   13.4086 C.3       13 UNK         0.0968 
     19 C         -55.3653  -31.5879   12.9503 C.2       13 UNK         0.5732 
     20 N         -54.1836  -31.7894   13.5215 N.am      13 UNK        -0.7310 
     21 O         -55.7546  -32.3448   12.0642 O.2       13 UNK        -0.5035 
     22 N         -55.8397  -29.7149   14.6375 N.am      13 UNK        -0.4233 
     23 C         -55.9070  -30.2397   15.8677 C.2       13 UNK         0.4989 
     24 O         -56.3297  -31.3713   16.1084 O.2       13 UNK        -0.4996 
     25 CA        -55.4278  -29.3600   17.0351 C.3       12 UNK         0.0216 
     26 CB        -53.9772  -29.7117   17.4038 C.3       12 UNK        -0.1964 
     27 N         -55.5508  -27.9168   16.7826 N.am      12 UNK        -0.4276 
     28 C         -56.7279  -27.2704   16.7276 C.2       12 UNK         0.5020 
     29 O         -57.8130  -27.8433   16.8411 O.2       12 UNK        -0.5489 
     30 CA        -56.7315  -25.7395   16.5495 C.3       11 UNK         0.0294 
     31 CB        -57.2817  -25.0540   17.8126 C.3       11 UNK        -0.2019 
     32 N         -55.4180  -25.1709   16.2485 N.am      11 UNK        -0.4493 
     33 C         -54.8791  -25.0814   15.0265 C.2       11 UNK         0.4932 
     34 O         -55.4357  -25.4792   14.0033 O.2       11 UNK        -0.5029 
     35 CA        -53.4740  -24.4515   14.9272 C.3       10 UNK         0.0280 
     36 CB        -53.0391  -23.6741   16.1904 C.3       10 UNK        -0.1976 
     37 N         -52.4499  -25.4369   14.5704 N.am      10 UNK        -0.4242 
     38 C         -52.2167  -26.6110   15.1759 C.2       10 UNK         0.5072 
     39 O         -52.8548  -27.0255   16.1446 O.2       10 UNK        -0.5224 
     40 CA        -51.0649  -27.4600   14.6174 C.3       9 UNK         0.0343 
     41 CB        -51.4361  -28.0624   13.2509 C.3       9 UNK        -0.2003 
     42 N         -49.8151  -26.7039   14.5110 N.am      9 UNK        -0.4272 
     43 C         -49.1092  -26.2426   15.5549 C.2       9 UNK         0.4988 
     44 O         -49.4094  -26.4465   16.7318 O.2       9 UNK        -0.5108 
     45 CA        -47.8490  -25.4169   15.2406 C.3       8 UNK         0.0248 
     46 CB        -46.6653  -26.3344   14.8938 C.3       8 UNK        -0.2001 
     47 N         -48.0601  -24.4451   14.1655 N.am      8 UNK        -0.4140 
     48 C         -48.8457  -23.3629   14.2692 C.2       8 UNK         0.5028 
     49 O         -49.4111  -23.0232   15.3090 O.2       8 UNK        -0.5428 
     50 CA        -49.0525  -22.5193   12.9986 C.3       7 UNK         0.0264 
     51 CB        -47.9196  -21.4939   12.8340 C.3       7 UNK        -0.1988 
     52 N         -49.1679  -23.3243   11.7801 N.am      7 UNK        -0.4454 
     53 C         -50.1470  -24.2117   11.5436 C.2       7 UNK         0.5027 
     54 O         -51.0810  -24.4247   12.3173 O.2       7 UNK        -0.5083 
     55 CA        -50.0287  -25.0433   10.2522 C.3       6 UNK         0.0844 
     56 C56       -50.4502  -24.2346    8.9985 C.3       14 UNK        -0.0967 
     57 S57       -52.2558  -24.1637    8.7656 S.3       14 UNK        -0.2604 
     58 C58       -52.5139  -25.4946    7.5487 C.3       14 UNK         0.0134 
     59 N         -48.6859  -25.6038   10.0972 N.am      6 UNK        -0.4116 
     60 C         -48.0865  -26.4549   10.9397 C.2       5 UNK         0.5034 
     61 O         -48.6286  -26.9402   11.9299 O.2       5 UNK        -0.5045 
     62 CA        -46.6086  -26.7719   10.6601 C.3       5 UNK         0.0224 
     63 CB        -46.4608  -27.9024    9.6307 C.3       5 UNK        -0.1978 
     64 N         -45.8711  -25.5916   10.2046 N.am      5 UNK        -0.4737 
     65 C         -45.5811  -24.5406   10.9832 C.2       4 UNK         0.5027 
     66 O         -45.8778  -24.4722   12.1752 O.2       4 UNK        -0.5211 
     67 CA        -44.8747  -23.3544   10.3069 C.3       4 UNK         0.0297 
     68 CB        -43.3586  -23.5955   10.2391 C.3       4 UNK        -0.1993 
     69 N         -45.3917  -23.0761    8.9636 N.am      4 UNK        -0.4486 
     70 C         -46.6301  -22.6299    8.7117 C.2       3 UNK         0.4961 
     71 O         -47.4687  -22.4016    9.5844 O.2       3 UNK        -0.5105 
     72 CA        -47.0143  -22.4575    7.2308 C.3       3 UNK         0.0299 
     73 CB        -46.4344  -21.1493    6.6695 C.3       3 UNK        -0.1972 
     74 N         -46.6339  -23.5831    6.3639 N.am      3 UNK        -0.4305 
     75 C         -46.9954  -24.8560    6.5701 C.2       2 UNK         0.5006 
     76 O         -47.5900  -25.2428    7.5796 O.2       2 UNK        -0.5106 
     77 CA        -46.6435  -25.8854    5.4906 C.3       2 UNK         0.0296 
     78 CB        -45.1939  -26.3788    5.6465 C.3       2 UNK        -0.2002 
     79 N         -47.5780  -26.9870    5.6842 N.am      2 UNK        -0.4032 
     80 C         -47.9223  -27.9461    4.8224 C.2       1 UNK         0.5000 
     81 O         -47.4314  -28.0780    3.6982 O.2       1 UNK        -0.5238 
     82 H82       -51.9712  -27.6221    2.8867 H         1 UNK         0.0889 
     83 H83       -50.4836  -27.0504    3.6282 H         1 UNK         0.0889 
     84 H84       -51.7426  -27.8122    4.6204 H         1 UNK         0.0889 
     85 H85       -49.2245  -30.5568    4.0409 H         1 UNK         0.3028 
     86 H86       -49.7731  -28.3059    5.8154 H         1 UNK         0.0864 
     87 H87       -47.7987  -30.6272    5.9452 H         1 UNK         0.0720 
     88 H88       -47.7827  -29.3469    7.1146 H         1 UNK         0.0720 
     89 H89       -49.0685  -28.9882    8.9321 H         1 UNK         0.0814 
     90 H90       -49.8895  -30.3021    9.7172 H         1 UNK         0.0814 
     91 H91       -50.3722  -27.1874    7.7519 H         1 UNK         0.1469 
     92 H92       -54.5079  -26.8287    8.8179 H         1 UNK         0.1381 
     93 H93       -52.3178  -30.3512    9.8981 H         1 UNK         0.1206 
     94 H94       -54.7082  -30.2967   10.1950 H         1 UNK         0.0813 
     95 H95       -55.6600  -29.0285    9.4586 H         1 UNK         0.0813 
     96 H96       -57.2817  -28.6593   12.5989 H         1 UNK         0.0638 
     97 H97       -56.9979  -29.8932   11.4131 H         1 UNK         0.0638 
     98 H98       -57.2281  -30.8621   13.6404 H         1 UNK         0.0568 
     99 H99       -53.8577  -31.1772   14.2502 H         1 UNK         0.3450 
    100 H100      -53.6158  -32.5643   13.2182 H         1 UNK         0.3450 
    101 H101      -55.4703  -28.7828   14.5202 H         1 UNK         0.2987 
    102 H102      -56.0552  -29.5974   17.8971 H         1 UNK         0.0766 
    103 H103      -53.6143  -29.0978   18.2284 H         1 UNK         0.0798 
    104 H104      -53.2995  -29.5763   16.5604 H         1 UNK         0.0798 
    105 H105      -53.8980  -30.7537   17.7165 H         1 UNK         0.0798 
    106 H106      -54.6831  -27.4007   16.6497 H         1 UNK         0.3198 
    107 H107      -57.4101  -25.5164   15.7231 H         1 UNK         0.0843 
    108 H108      -56.6547  -25.2477   18.6838 H         1 UNK         0.0831 
    109 H109      -58.2847  -25.4129   18.0480 H         1 UNK         0.0831 
    110 H110      -57.3512  -23.9741   17.6806 H         1 UNK         0.0831 
    111 H111      -54.8704  -24.8488   17.0337 H         1 UNK         0.3133 
    112 H112      -53.5149  -23.7406   14.1007 H         1 UNK         0.0566 
    113 H113      -52.8909  -24.3282   17.0505 H         1 UNK         0.0814 
    114 H114      -53.7743  -22.9161   16.4640 H         1 UNK         0.0814 
    115 H115      -52.0977  -23.1527   16.0162 H         1 UNK         0.0814 
    116 H116      -51.8834  -25.1905   13.7592 H         1 UNK         0.3091 
    117 H117      -50.8958  -28.2854   15.3121 H         1 UNK         0.0702 
    118 H118      -52.3579  -28.6419   13.3160 H         1 UNK         0.0785 
    119 H119      -51.5880  -27.2931   12.4923 H         1 UNK         0.0785 
    120 H120      -50.6573  -28.7336   12.8886 H         1 UNK         0.0785 
    121 H121      -49.4542  -26.5550   13.5716 H         1 UNK         0.2998 
    122 H122      -47.5857  -24.8599   16.1423 H         1 UNK         0.0697 
    123 H123      -46.8571  -26.9227   13.9968 H         1 UNK         0.0825 
    124 H124      -46.4650  -27.0348   15.7056 H         1 UNK         0.0825 
    125 H125      -45.7535  -25.7601   14.7282 H         1 UNK         0.0825 
    126 H126      -47.5556  -24.6008   13.2982 H         1 UNK         0.3029 
    127 H127      -49.9907  -21.9734   13.1195 H         1 UNK         0.0897 
    128 H128      -46.9545  -21.9786   12.6843 H         1 UNK         0.0792 
    129 H129      -47.8342  -20.8610   13.7183 H         1 UNK         0.0792 
    130 H130      -48.0991  -20.8383   11.9815 H         1 UNK         0.0792 
    131 H131      -48.4591  -23.1736   11.0661 H         1 UNK         0.3086 
    132 H132      -50.7006  -25.8968   10.3608 H         1 UNK         0.0583 
    133 H133      -50.0562  -23.2168    9.0272 H         1 UNK         0.1020 
    134 H134      -50.0213  -24.6756    8.0997 H         1 UNK         0.1020 
    135 H135      -53.4931  -25.3580    7.0871 H         1 UNK         0.0694 
    136 H136      -51.7876  -25.4136    6.7386 H         1 UNK         0.0694 
    137 H137      -48.1643  -25.2993    9.2779 H         1 UNK         0.2989 
    138 H138      -46.1613  -27.1082   11.5981 H         1 UNK         0.1055 
    139 H139      -46.9442  -28.8137    9.9843 H         1 UNK         0.0806 
    140 H140      -45.4122  -28.1447    9.4573 H         1 UNK         0.0806 
    141 H141      -46.9052  -27.6396    8.6713 H         1 UNK         0.0806 
    142 H142      -45.6385  -25.5438    9.2234 H         1 UNK         0.3061 
    143 H143      -45.0513  -22.4708   10.9243 H         1 UNK         0.0734 
    144 H144      -42.8357  -22.7263    9.8398 H         1 UNK         0.0832 
    145 H145      -42.9511  -23.7876   11.2328 H         1 UNK         0.0832 
    146 H146      -43.1104  -24.4544    9.6144 H         1 UNK         0.0832 
    147 H147      -44.7728  -23.2449    8.1839 H         1 UNK         0.3156 
    148 H148      -48.1031  -22.3824    7.1919 H         1 UNK         0.0589 
    149 H149      -45.3450  -21.1740    6.6235 H         1 UNK         0.0808 
    150 H150      -46.8084  -20.9475    5.6656 H         1 UNK         0.0808 
    151 H151      -46.7149  -20.2989    7.2929 H         1 UNK         0.0808 
    152 H152      -46.1340  -23.3526    5.5167 H         1 UNK         0.3098 
    153 H153      -46.7956  -25.4445    4.5034 H         1 UNK         0.0720 
    154 H154      -44.9483  -27.1306    4.8962 H         1 UNK         0.0791 
    155 H155      -45.0215  -26.8207    6.6289 H         1 UNK         0.0791 
    156 H156      -44.4842  -25.5596    5.5254 H         1 UNK         0.0791 
    157 H157      -48.0464  -26.9192    6.5798 H         1 UNK         0.3028 
@<TRIPOS>BOND
     1    1    2 1    
     2    1   82 1    
     3    1   83 1    
     4    1   84 1    
     5    2    3 2    
     6    2    4 am   BACKBONE|DICT|INTERRES
     7    4    5 1    
     8    4   85 1    
     9    5    6 1    
    10    5   80 1    
    11    5   86 1    
    12    6    7 1    
    13    6   87 1    
    14    6   88 1    
    15    7    8 1    
    16    8    9 1    
    17    8   89 1    
    18    8   90 1    
    19    9   10 ar   
    20    9   14 ar   
    21   10   11 ar   
    22   10   91 1    
    23   11   12 ar   
    24   11   58 1    
    25   12   13 ar   
    26   12   92 1    
    27   13   14 ar   
    28   13   15 1    
    29   14   93 1    
    30   15   16 1    
    31   15   94 1    
    32   15   95 1    
    33   16   17 1    
    34   17   18 1    
    35   17   96 1    
    36   17   97 1    
    37   18   19 1    
    38   18   22 1    
    39   18   98 1    
    40   19   20 am   BACKBONE|DICT|INTERRES
    41   19   21 2    
    42   20   99 1    
    43   20  100 1    
    44   22   23 am   BACKBONE|DICT|INTERRES
    45   22  101 1    
    46   23   24 2    
    47   23   25 1    
    48   25   26 1    
    49   25   27 1    
    50   25  102 1    
    51   26  103 1    
    52   26  104 1    
    53   26  105 1    
    54   27   28 am   BACKBONE|DICT|INTERRES
    55   27  106 1    
    56   28   29 2    
    57   28   30 1    
    58   30   31 1    
    59   30   32 1    
    60   30  107 1    
    61   31  108 1    
    62   31  109 1    
    63   31  110 1    
    64   32   33 am   BACKBONE|DICT|INTERRES
    65   32  111 1    
    66   33   34 2    
    67   33   35 1    
    68   35   36 1    
    69   35   37 1    
    70   35  112 1    
    71   36  113 1    
    72   36  114 1    
    73   36  115 1    
    74   37   38 am   BACKBONE|DICT|INTERRES
    75   37  116 1    
    76   38   39 2    
    77   38   40 1    
    78   40   41 1    
    79   40   42 1    
    80   40  117 1    
    81   41  118 1    
    82   41  119 1    
    83   41  120 1    
    84   42   43 am   BACKBONE|DICT|INTERRES
    85   42  121 1    
    86   43   44 2    
    87   43   45 1    
    88   45   46 1    
    89   45   47 1    
    90   45  122 1    
    91   46  123 1    
    92   46  124 1    
    93   46  125 1    
    94   47   48 am   BACKBONE|DICT|INTERRES
    95   47  126 1    
    96   48   49 2    
    97   48   50 1    
    98   50   51 1    
    99   50   52 1    
   100   50  127 1    
   101   51  128 1    
   102   51  129 1    
   103   51  130 1    
   104   52   53 am   BACKBONE|DICT|INTERRES
   105   52  131 1    
   106   53   54 2    
   107   53   55 1    
   108   55   56 1    
   109   55   59 1    
   110   55  132 1    
   111   56   57 1    
   112   56  133 1    
   113   56  134 1    
   114   57   58 1    
   115   58  135 1    
   116   58  136 1    
   117   59   60 am   BACKBONE|DICT|INTERRES
   118   59  137 1    
   119   60   61 2    
   120   60   62 1    
   121   62   63 1    
   122   62   64 1    
   123   62  138 1    
   124   63  139 1    
   125   63  140 1    
   126   63  141 1    
   127   64   65 am   BACKBONE|DICT|INTERRES
   128   64  142 1    
   129   65   66 2    
   130   65   67 1    
   131   67   68 1    
   132   67   69 1    
   133   67  143 1    
   134   68  144 1    
   135   68  145 1    
   136   68  146 1    
   137   69   70 am   BACKBONE|DICT|INTERRES
   138   69  147 1    
   139   70   71 2    
   140   70   72 1    
   141   72   73 1    
   142   72   74 1    
   143   72  148 1    
   144   73  149 1    
   145   73  150 1    
   146   73  151 1    
   147   74   75 am   BACKBONE|DICT|INTERRES
   148   74  152 1    
   149   75   76 2    
   150   75   77 1    
   151   77   78 1    
   152   77   79 1    
   153   77  153 1    
   154   78  154 1    
   155   78  155 1    
   156   78  156 1    
   157   79   80 am   BACKBONE|DICT|INTERRES
   158   79  157 1    
   159   80   81 2    
@<TRIPOS>SUBSTRUCTURE
     1 UNK         1 GROUP             0       ****    0 ROOT    
