@<TRIPOS>MOLECULE
3R207
157   159    1
SMALL
USER_CHARGES


@<TRIPOS>ATOM
      1 CA        -46.9837  -27.6443    4.1294 C.3       0 UNK        -0.1975 
      2 C         -47.6308  -26.3977    4.7127 C.2       0 UNK         0.4852 
      3 O         -47.0577  -25.3111    4.6206 O.2       0 UNK        -0.5216 
      4 N         -48.8125  -26.5471    5.3267 N.am      1 UNK        -0.4461 
      5 CA        -49.5908  -25.4770    5.9613 C.3       1 UNK         0.0864 
      6 C6        -50.9463  -25.9896    6.5005 C.3       14 UNK        -0.0898 
      7 S7        -52.0374  -26.6567    5.2010 S.3       14 UNK        -0.2598 
      8 C8        -52.0152  -28.4492    5.5419 C.3       14 UNK         0.0286 
      9 C9        -52.5711  -28.8127    6.9151 C.ar      14 UNK        -0.0844 
     10 C10       -51.7828  -29.5253    7.8233 C.ar      14 UNK        -0.0881 
     11 C11       -52.2900  -29.8993    9.0720 C.ar      14 UNK        -0.0643 
     12 C12       -53.6026  -29.5502    9.4114 C.ar      14 UNK        -0.0930 
     13 C13       -54.4067  -28.8415    8.5102 C.ar      14 UNK        -0.0827 
     14 C14       -53.8832  -28.4784    7.2643 C.ar      14 UNK        -0.1249 
     15 C15       -55.8554  -28.5054    8.8478 C.3       14 UNK         0.0141 
     16 S16       -56.0053  -27.1996   10.1119 S.3       14 UNK        -0.2313 
     17 C17       -56.3547  -28.1885   11.6034 C.3       14 UNK        -0.0915 
     18 CA        -55.8231  -27.5309   12.9181 C.3       13 UNK         0.0968 
     19 C         -56.9454  -26.8800   13.7838 C.2       13 UNK         0.5732 
     20 N         -56.8882  -26.9442   15.1087 N.am      13 UNK        -0.7310 
     21 O         -57.8710  -26.2744   13.2490 O.2       13 UNK        -0.5035 
     22 N         -54.8952  -28.4192   13.6385 N.am      13 UNK        -0.4233 
     23 C         -55.2093  -29.6143   14.1644 C.2       13 UNK         0.4989 
     24 O         -56.3448  -30.0894   14.1667 O.2       13 UNK        -0.4996 
     25 CA        -54.0643  -30.4302   14.7786 C.3       12 UNK         0.0216 
     26 CB        -53.3588  -31.2432   13.6846 C.3       12 UNK        -0.1964 
     27 N         -53.1003  -29.5485   15.4358 N.am      12 UNK        -0.4276 
     28 C         -52.8404  -29.5461   16.7483 C.2       12 UNK         0.5020 
     29 O         -53.2439  -30.3987   17.5406 O.2       12 UNK        -0.5489 
     30 CA        -52.0233  -28.3548   17.2719 C.3       11 UNK         0.0294 
     31 CB        -50.5157  -28.6120   17.1192 C.3       11 UNK        -0.2019 
     32 N         -52.3783  -27.0985   16.6057 N.am      11 UNK        -0.4493 
     33 C         -53.5656  -26.4804   16.7054 C.2       11 UNK         0.4932 
     34 O         -54.5059  -26.9182   17.3692 O.2       11 UNK        -0.5029 
     35 CA        -53.7466  -25.1740   15.9065 C.3       10 UNK         0.0280 
     36 CB        -54.7165  -24.1868   16.5885 C.3       10 UNK        -0.1976 
     37 N         -52.4833  -24.5152   15.5545 N.am      10 UNK        -0.4242 
     38 C         -51.5560  -24.0155   16.3892 C.2       10 UNK         0.5072 
     39 O         -51.6768  -23.9942   17.6145 O.2       10 UNK        -0.5224 
     40 CA        -50.2471  -23.4922   15.7678 C.3       9 UNK         0.0343 
     41 CB        -49.0632  -24.3790   16.1919 C.3       9 UNK        -0.2003 
     42 N         -50.2907  -23.4309   14.3050 N.am      9 UNK        -0.4272 
     43 C         -50.8670  -22.4449   13.6060 C.2       9 UNK         0.4988 
     44 O         -51.3701  -21.4448   14.1189 O.2       9 UNK        -0.5108 
     45 CA        -50.9140  -22.6099   12.0786 C.3       8 UNK         0.0248 
     46 CB        -49.6083  -22.1096   11.4393 C.3       8 UNK        -0.2001 
     47 N         -51.1867  -23.9767   11.6212 N.am      8 UNK        -0.4140 
     48 C         -52.2981  -24.6831   11.8790 C.2       8 UNK         0.5028 
     49 O         -53.1824  -24.3237   12.6542 O.2       8 UNK        -0.5428 
     50 CA        -52.4368  -26.0202   11.1384 C.3       7 UNK         0.0264 
     51 CB        -52.5106  -25.7918    9.6228 C.3       7 UNK        -0.1988 
     52 N         -51.3239  -26.9111   11.4402 N.am      7 UNK        -0.4454 
     53 C         -51.1817  -27.6121   12.5724 C.2       7 UNK         0.5027 
     54 O         -52.0427  -27.6904   13.4565 O.2       7 UNK        -0.5083 
     55 CA        -49.8280  -28.3328   12.7572 C.3       6 UNK         0.0844 
     56 C56       -49.8858  -29.7968   12.2539 C.3       14 UNK        -0.0967 
     57 S57       -49.8495  -29.9490   10.4278 S.3       14 UNK        -0.2604 
     58 C58       -51.4409  -30.7406   10.0184 C.3       14 UNK         0.0134 
     59 N         -48.6862  -27.6173   12.1728 N.am      6 UNK        -0.4116 
     60 C         -48.3159  -26.3519   12.3992 C.2       5 UNK         0.5034 
     61 O         -48.9016  -25.6007   13.1769 O.2       5 UNK        -0.5045 
     62 CA        -47.1317  -25.7944   11.5916 C.3       5 UNK         0.0224 
     63 CB        -45.8562  -25.7274   12.4525 C.3       5 UNK        -0.1978 
     64 N         -46.8794  -26.4562   10.3021 N.am      5 UNK        -0.4737 
     65 C         -46.4052  -27.6860   10.0507 C.2       4 UNK         0.5027 
     66 O         -46.1916  -28.5299   10.9197 O.2       4 UNK        -0.5211 
     67 CA        -46.1324  -28.0338    8.5775 C.3       4 UNK         0.0297 
     68 CB        -47.3569  -28.7093    7.9386 C.3       4 UNK        -0.1993 
     69 N         -45.7628  -26.8452    7.8041 N.am      4 UNK        -0.4486 
     70 C         -44.5305  -26.3150    7.7778 C.2       3 UNK         0.4961 
     71 O         -43.5527  -26.8328    8.3179 O.2       3 UNK        -0.5105 
     72 CA        -44.3478  -24.9813    7.0305 C.3       3 UNK         0.0299 
     73 CB        -43.7959  -25.2240    5.6164 C.3       3 UNK        -0.1972 
     74 N         -45.5878  -24.2033    6.9508 N.am      3 UNK        -0.4305 
     75 C         -46.0786  -23.4724    7.9649 C.2       2 UNK         0.5006 
     76 O         -45.5003  -23.3244    9.0413 O.2       2 UNK        -0.5106 
     77 CA        -47.4611  -22.8192    7.7716 C.3       2 UNK         0.0296 
     78 CB        -47.3111  -21.3743    7.2703 C.3       2 UNK        -0.2002 
     79 N         -48.3469  -23.5605    6.8686 N.am      2 UNK        -0.4032 
     80 C         -48.7805  -24.8087    7.0902 C.2       1 UNK         0.5000 
     81 O         -48.5118  -25.4506    8.1086 O.2       1 UNK        -0.5238 
     82 H82       -47.6358  -28.5145    4.2015 H         1 UNK         0.0889 
     83 H83       -46.0575  -27.8682    4.6578 H         1 UNK         0.0889 
     84 H84       -46.7468  -27.4855    3.0778 H         1 UNK         0.0889 
     85 H85       -49.2322  -27.4629    5.3700 H         1 UNK         0.3028 
     86 H86       -49.7965  -24.7276    5.1940 H         1 UNK         0.0864 
     87 H87       -50.7941  -26.7373    7.2809 H         1 UNK         0.0720 
     88 H88       -51.4927  -25.1667    6.9629 H         1 UNK         0.0720 
     89 H89       -50.9967  -28.8206    5.4230 H         1 UNK         0.0814 
     90 H90       -52.6115  -28.9545    4.7810 H         1 UNK         0.0814 
     91 H91       -50.7733  -29.8073    7.5568 H         1 UNK         0.1469 
     92 H92       -54.0051  -29.8483   10.3684 H         1 UNK         0.1381 
     93 H93       -54.4983  -27.9387    6.5571 H         1 UNK         0.1206 
     94 H94       -56.3787  -28.1653    7.9530 H         1 UNK         0.0813 
     95 H95       -56.3782  -29.4084    9.1659 H         1 UNK         0.0813 
     96 H96       -55.9095  -29.1725   11.4588 H         1 UNK         0.0638 
     97 H97       -57.4288  -28.3777   11.6473 H         1 UNK         0.0638 
     98 H98       -55.2068  -26.6741   12.6520 H         1 UNK         0.0568 
     99 H99       -56.1377  -27.4263   15.5776 H         1 UNK         0.3450 
    100 H100      -57.6198  -26.5110   15.6487 H         1 UNK         0.3450 
    101 H101      -53.9291  -28.1116   13.6468 H         1 UNK         0.2987 
    102 H102      -54.5014  -31.1265   15.4976 H         1 UNK         0.0766 
    103 H103      -52.5045  -31.7925   14.0806 H         1 UNK         0.0798 
    104 H104      -53.0092  -30.5950   12.8835 H         1 UNK         0.0798 
    105 H105      -54.0389  -31.9714   13.2405 H         1 UNK         0.0798 
    106 H106      -52.6925  -28.8100   14.8696 H         1 UNK         0.3198 
    107 H107      -52.2458  -28.2418   18.3353 H         1 UNK         0.0843 
    108 H108      -50.2279  -28.7350   16.0757 H         1 UNK         0.0831 
    109 H109      -50.2228  -29.5215   17.6457 H         1 UNK         0.0831 
    110 H110      -49.9282  -27.7942   17.5373 H         1 UNK         0.0831 
    111 H111      -51.6775  -26.6787   16.0134 H         1 UNK         0.3133 
    112 H112      -54.1974  -25.4695   14.9585 H         1 UNK         0.0566 
    113 H113      -54.8389  -23.2801   15.9960 H         1 UNK         0.0814 
    114 H114      -55.7064  -24.6287   16.7075 H         1 UNK         0.0814 
    115 H115      -54.3698  -23.8970   17.5807 H         1 UNK         0.0814 
    116 H116      -52.3169  -24.4386   14.5566 H         1 UNK         0.3091 
    117 H117      -50.0766  -22.4872   16.1594 H         1 UNK         0.0702 
    118 H118      -48.1256  -24.0187   15.7683 H         1 UNK         0.0785 
    119 H119      -49.1979  -25.4134   15.8732 H         1 UNK         0.0785 
    120 H120      -48.9470  -24.3854   17.2765 H         1 UNK         0.0785 
    121 H121      -49.8664  -24.2129   13.8066 H         1 UNK         0.2998 
    122 H122      -51.7297  -21.9825   11.7131 H         1 UNK         0.0697 
    123 H123      -48.7542  -22.7221   11.7296 H         1 UNK         0.0825 
    124 H124      -49.3919  -21.0851   11.7456 H         1 UNK         0.0825 
    125 H125      -49.6739  -22.1112   10.3514 H         1 UNK         0.0825 
    126 H126      -50.5046  -24.3808   10.9983 H         1 UNK         0.3029 
    127 H127      -53.3604  -26.5035   11.4521 H         1 UNK         0.0897 
    128 H128      -52.6023  -26.7350    9.0882 H         1 UNK         0.0792 
    129 H129      -53.3786  -25.1859    9.3599 H         1 UNK         0.0792 
    130 H130      -51.6244  -25.2821    9.2468 H         1 UNK         0.0792 
    131 H131      -50.5764  -26.9594   10.7635 H         1 UNK         0.3086 
    132 H132      -49.6455  -28.3603   13.8321 H         1 UNK         0.0583 
    133 H133      -49.0150  -30.3334   12.6340 H         1 UNK         0.1020 
    134 H134      -50.7400  -30.3232   12.6773 H         1 UNK         0.1020 
    135 H135      -51.2316  -31.6960    9.5355 H         1 UNK         0.0694 
    136 H136      -51.9962  -30.9833   10.9217 H         1 UNK         0.0694 
    137 H137      -48.1001  -28.1580   11.5467 H         1 UNK         0.2989 
    138 H138      -47.4012  -24.7686   11.3362 H         1 UNK         0.1055 
    139 H139      -46.0261  -25.1359   13.3533 H         1 UNK         0.0806 
    140 H140      -45.0368  -25.2589   11.9070 H         1 UNK         0.0806 
    141 H141      -45.5259  -26.7158   12.7730 H         1 UNK         0.0806 
    142 H142      -47.1521  -25.9095    9.4907 H         1 UNK         0.3061 
    143 H143      -45.3045  -28.7457    8.5508 H         1 UNK         0.0734 
    144 H144      -47.1753  -28.9569    6.8934 H         1 UNK         0.0832 
    145 H145      -47.5895  -29.6431    8.4513 H         1 UNK         0.0832 
    146 H146      -48.2474  -28.0823    7.9903 H         1 UNK         0.0832 
    147 H147      -46.5206  -26.3270    7.3824 H         1 UNK         0.3156 
    148 H148      -43.6063  -24.3963    7.5792 H         1 UNK         0.0589 
    149 H149      -44.4652  -25.8404    5.0166 H         1 UNK         0.0808 
    150 H150      -43.6376  -24.2855    5.0850 H         1 UNK         0.0808 
    151 H151      -42.8346  -25.7379    5.6583 H         1 UNK         0.0808 
    152 H152      -46.1297  -24.2998    6.0962 H         1 UNK         0.3098 
    153 H153      -47.9413  -22.7909    8.7516 H         1 UNK         0.0720 
    154 H154      -48.2756  -20.8684    7.2216 H         1 UNK         0.0791 
    155 H155      -46.8590  -21.3353    6.2783 H         1 UNK         0.0791 
    156 H156      -46.6765  -20.7928    7.9408 H         1 UNK         0.0791 
    157 H157      -48.5756  -23.1136    5.9919 H         1 UNK         0.3028 
@<TRIPOS>BOND
     1    1    2 1    
     2    1   82 1    
     3    1   83 1    
     4    1   84 1    
     5    2    3 2    
     6    2    4 am   BACKBONE|DICT|INTERRES
     7    4    5 1    
     8    4   85 1    
     9    5    6 1    
    10    5   80 1    
    11    5   86 1    
    12    6    7 1    
    13    6   87 1    
    14    6   88 1    
    15    7    8 1    
    16    8    9 1    
    17    8   89 1    
    18    8   90 1    
    19    9   10 ar   
    20    9   14 ar   
    21   10   11 ar   
    22   10   91 1    
    23   11   12 ar   
    24   11   58 1    
    25   12   13 ar   
    26   12   92 1    
    27   13   14 ar   
    28   13   15 1    
    29   14   93 1    
    30   15   16 1    
    31   15   94 1    
    32   15   95 1    
    33   16   17 1    
    34   17   18 1    
    35   17   96 1    
    36   17   97 1    
    37   18   19 1    
    38   18   22 1    
    39   18   98 1    
    40   19   20 am   BACKBONE|DICT|INTERRES
    41   19   21 2    
    42   20   99 1    
    43   20  100 1    
    44   22   23 am   BACKBONE|DICT|INTERRES
    45   22  101 1    
    46   23   24 2    
    47   23   25 1    
    48   25   26 1    
    49   25   27 1    
    50   25  102 1    
    51   26  103 1    
    52   26  104 1    
    53   26  105 1    
    54   27   28 am   BACKBONE|DICT|INTERRES
    55   27  106 1    
    56   28   29 2    
    57   28   30 1    
    58   30   31 1    
    59   30   32 1    
    60   30  107 1    
    61   31  108 1    
    62   31  109 1    
    63   31  110 1    
    64   32   33 am   BACKBONE|DICT|INTERRES
    65   32  111 1    
    66   33   34 2    
    67   33   35 1    
    68   35   36 1    
    69   35   37 1    
    70   35  112 1    
    71   36  113 1    
    72   36  114 1    
    73   36  115 1    
    74   37   38 am   BACKBONE|DICT|INTERRES
    75   37  116 1    
    76   38   39 2    
    77   38   40 1    
    78   40   41 1    
    79   40   42 1    
    80   40  117 1    
    81   41  118 1    
    82   41  119 1    
    83   41  120 1    
    84   42   43 am   BACKBONE|DICT|INTERRES
    85   42  121 1    
    86   43   44 2    
    87   43   45 1    
    88   45   46 1    
    89   45   47 1    
    90   45  122 1    
    91   46  123 1    
    92   46  124 1    
    93   46  125 1    
    94   47   48 am   BACKBONE|DICT|INTERRES
    95   47  126 1    
    96   48   49 2    
    97   48   50 1    
    98   50   51 1    
    99   50   52 1    
   100   50  127 1    
   101   51  128 1    
   102   51  129 1    
   103   51  130 1    
   104   52   53 am   BACKBONE|DICT|INTERRES
   105   52  131 1    
   106   53   54 2    
   107   53   55 1    
   108   55   56 1    
   109   55   59 1    
   110   55  132 1    
   111   56   57 1    
   112   56  133 1    
   113   56  134 1    
   114   57   58 1    
   115   58  135 1    
   116   58  136 1    
   117   59   60 am   BACKBONE|DICT|INTERRES
   118   59  137 1    
   119   60   61 2    
   120   60   62 1    
   121   62   63 1    
   122   62   64 1    
   123   62  138 1    
   124   63  139 1    
   125   63  140 1    
   126   63  141 1    
   127   64   65 am   BACKBONE|DICT|INTERRES
   128   64  142 1    
   129   65   66 2    
   130   65   67 1    
   131   67   68 1    
   132   67   69 1    
   133   67  143 1    
   134   68  144 1    
   135   68  145 1    
   136   68  146 1    
   137   69   70 am   BACKBONE|DICT|INTERRES
   138   69  147 1    
   139   70   71 2    
   140   70   72 1    
   141   72   73 1    
   142   72   74 1    
   143   72  148 1    
   144   73  149 1    
   145   73  150 1    
   146   73  151 1    
   147   74   75 am   BACKBONE|DICT|INTERRES
   148   74  152 1    
   149   75   76 2    
   150   75   77 1    
   151   77   78 1    
   152   77   79 1    
   153   77  153 1    
   154   78  154 1    
   155   78  155 1    
   156   78  156 1    
   157   79   80 am   BACKBONE|DICT|INTERRES
   158   79  157 1    
   159   80   81 2    
@<TRIPOS>SUBSTRUCTURE
     1 UNK         1 GROUP             0       ****    0 ROOT    
