@<TRIPOS>MOLECULE
3R207
157   159    1
SMALL
USER_CHARGES


@<TRIPOS>ATOM
      1 CA        -49.2088  -31.6728    8.4671 C.3       0 UNK        -0.1975 
      2 C         -49.5880  -31.1210    7.1008 C.2       0 UNK         0.4852 
      3 O         -48.9443  -31.4538    6.1052 O.2       0 UNK        -0.5216 
      4 N         -50.6296  -30.2814    7.0515 N.am      1 UNK        -0.4461 
      5 CA        -51.1243  -29.5822    5.8611 C.3       1 UNK         0.0864 
      6 C6        -52.4722  -28.8964    6.1879 C.3       14 UNK        -0.0898 
      7 S7        -53.3500  -28.1559    4.7684 S.3       14 UNK        -0.2598 
      8 C8        -55.0745  -28.0960    5.3785 C.3       14 UNK         0.0286 
      9 C9        -55.1827  -27.6699    6.8401 C.ar      14 UNK        -0.0844 
     10 C10       -54.6292  -26.4607    7.2718 C.ar      14 UNK        -0.0881 
     11 C11       -54.6378  -26.1171    8.6272 C.ar      14 UNK        -0.0643 
     12 C12       -55.2599  -26.9670    9.5478 C.ar      14 UNK        -0.0930 
     13 C13       -55.8501  -28.1616    9.1241 C.ar      14 UNK        -0.0827 
     14 C14       -55.8032  -28.5092    7.7708 C.ar      14 UNK        -0.1249 
     15 C15       -56.5530  -29.0754   10.1182 C.3       14 UNK         0.0141 
     16 S16       -55.5313  -30.5093   10.5856 S.3       14 UNK        -0.2313 
     17 C17       -54.4122  -29.7915   11.8340 C.3       14 UNK        -0.0915 
     18 CA        -52.9160  -30.0692   11.5342 C.3       13 UNK         0.0968 
     19 C         -52.3584  -29.1403   10.4254 C.2       13 UNK         0.5732 
     20 N         -52.1179  -27.8699   10.7219 N.am      13 UNK        -0.7310 
     21 O         -52.1126  -29.5810    9.3074 O.2       13 UNK        -0.5035 
     22 N         -52.1052  -30.0213   12.7594 N.am      13 UNK        -0.4233 
     23 C         -50.8848  -30.5682   12.8738 C.2       13 UNK         0.4989 
     24 O         -50.3587  -31.2321   11.9801 O.2       13 UNK        -0.4996 
     25 CA        -50.1049  -30.3579   14.1878 C.3       12 UNK         0.0216 
     26 CB        -48.6790  -29.8422   13.9281 C.3       12 UNK        -0.1964 
     27 N         -50.7690  -29.4310   15.1023 N.am      12 UNK        -0.4276 
     28 C         -51.6327  -29.7794   16.0629 C.2       12 UNK         0.5020 
     29 O         -51.9329  -30.9428   16.3325 O.2       12 UNK        -0.5489 
     30 CA        -52.2946  -28.6271   16.8350 C.3       11 UNK         0.0294 
     31 CB        -51.5444  -28.3552   18.1484 C.3       11 UNK        -0.2019 
     32 N         -52.3811  -27.3871   16.0549 N.am      11 UNK        -0.4493 
     33 C         -53.1849  -27.2151   14.9934 C.2       11 UNK         0.4932 
     34 O         -53.8634  -28.1273   14.5222 O.2       11 UNK        -0.5029 
     35 CA        -53.2178  -25.8329   14.3058 C.3       10 UNK         0.0280 
     36 CB        -54.6328  -25.4461   13.8308 C.3       10 UNK        -0.1976 
     37 N         -52.6092  -24.7432   15.0765 N.am      10 UNK        -0.4242 
     38 C         -52.9331  -24.3142   16.3059 C.2       10 UNK         0.5072 
     39 O         -53.9216  -24.7051   16.9294 O.2       10 UNK        -0.5224 
     40 CA        -51.9542  -23.3189   16.9694 C.3       9 UNK         0.0343 
     41 CB        -51.9894  -23.4082   18.5095 C.3       9 UNK        -0.2003 
     42 N         -50.5643  -23.4293   16.4970 N.am      9 UNK        -0.4272 
     43 C         -49.7823  -24.5205   16.4585 C.2       9 UNK         0.4988 
     44 O         -50.1577  -25.6347   16.8266 O.2       9 UNK        -0.5108 
     45 CA        -48.3625  -24.3411   15.8740 C.3       8 UNK         0.0248 
     46 CB        -47.6336  -25.6844   15.6781 C.3       8 UNK        -0.2001 
     47 N         -48.3700  -23.6198   14.5968 N.am      8 UNK        -0.4140 
     48 C         -48.5533  -22.3004   14.4458 C.2       8 UNK         0.5028 
     49 O         -48.6682  -21.5199   15.3918 O.2       8 UNK        -0.5428 
     50 CA        -48.7075  -21.7651   13.0123 C.3       7 UNK         0.0264 
     51 CB        -47.3474  -21.3071   12.4630 C.3       7 UNK        -0.1988 
     52 N         -49.3203  -22.7208   12.0827 N.am      7 UNK        -0.4454 
     53 C         -50.5446  -23.2561   12.2132 C.2       7 UNK         0.5027 
     54 O         -51.3096  -22.9908   13.1409 O.2       7 UNK        -0.5083 
     55 CA        -50.9693  -24.3034   11.1654 C.3       6 UNK         0.0844 
     56 C56       -51.5285  -23.6348    9.8887 C.3       14 UNK        -0.0967 
     57 S57       -52.1706  -24.8788    8.7219 S.3       14 UNK        -0.2604 
     58 C58       -53.9523  -24.8424    9.0978 C.3       14 UNK         0.0134 
     59 N         -49.8860  -25.2492   10.8848 N.am      6 UNK        -0.4116 
     60 C         -49.4051  -26.1448   11.7587 C.2       5 UNK         0.5034 
     61 O         -49.8765  -26.3360   12.8806 O.2       5 UNK        -0.5045 
     62 CA        -48.1712  -26.9421   11.3106 C.3       5 UNK         0.0224 
     63 CB        -48.5782  -28.1987   10.5221 C.3       5 UNK        -0.1978 
     64 N         -47.2626  -26.1234   10.5062 N.am      5 UNK        -0.4737 
     65 C         -46.4605  -25.1773   11.0151 C.2       4 UNK         0.5027 
     66 O         -46.3662  -24.9392   12.2191 O.2       4 UNK        -0.5211 
     67 CA        -45.6480  -24.3377   10.0128 C.3       4 UNK         0.0297 
     68 CB        -44.3035  -25.0172    9.7096 C.3       4 UNK        -0.1993 
     69 N         -46.3617  -24.0846    8.7575 N.am      4 UNK        -0.4486 
     70 C         -47.4784  -23.3502    8.6558 C.2       3 UNK         0.4961 
     71 O         -48.0097  -22.7796    9.6059 O.2       3 UNK        -0.5105 
     72 CA        -48.1498  -23.2788    7.2742 C.3       3 UNK         0.0299 
     73 CB        -47.5666  -22.1178    6.4536 C.3       3 UNK        -0.1972 
     74 N         -48.0692  -24.5213    6.4982 N.am      3 UNK        -0.4305 
     75 C         -48.5185  -25.7153    6.9077 C.2       2 UNK         0.5006 
     76 O         -48.9770  -25.9343    8.0320 O.2       2 UNK        -0.5106 
     77 CA        -48.3850  -26.8682    5.9117 C.3       2 UNK         0.0296 
     78 CB        -46.9981  -27.5253    6.0210 C.3       2 UNK        -0.2002 
     79 N         -49.4141  -27.8568    6.2103 N.am      2 UNK        -0.4032 
     80 C         -50.0789  -28.5881    5.3076 C.2       1 UNK         0.5000 
     81 O         -49.8749  -28.5287    4.0927 O.2       1 UNK        -0.5238 
     82 H82       -48.1878  -31.3865    8.7178 H         1 UNK         0.0889 
     83 H83       -49.2690  -32.7606    8.4646 H         1 UNK         0.0889 
     84 H84       -49.8657  -31.2993    9.2528 H         1 UNK         0.0889 
     85 H85       -51.1346  -30.0663    7.9125 H         1 UNK         0.3028 
     86 H86       -51.3011  -30.3360    5.0911 H         1 UNK         0.0864 
     87 H87       -52.3265  -28.1209    6.9428 H         1 UNK         0.0720 
     88 H88       -53.1413  -29.6302    6.6411 H         1 UNK         0.0720 
     89 H89       -55.5230  -29.0800    5.2334 H         1 UNK         0.0814 
     90 H90       -55.6473  -27.4041    4.7599 H         1 UNK         0.0814 
     91 H91       -54.1384  -25.8117    6.5593 H         1 UNK         0.1469 
     92 H92       -55.2764  -26.7038   10.5961 H         1 UNK         0.1381 
     93 H93       -56.2393  -29.4446    7.4476 H         1 UNK         0.1206 
     94 H94       -57.4788  -29.4412    9.6718 H         1 UNK         0.0813 
     95 H95       -56.8498  -28.5253   11.0126 H         1 UNK         0.0813 
     96 H96       -54.6005  -28.7231   11.9502 H         1 UNK         0.0638 
     97 H97       -54.6893  -30.2435   12.7876 H         1 UNK         0.0638 
     98 H98       -52.8462  -31.0918   11.1573 H         1 UNK         0.0568 
     99 H99       -51.7922  -27.2535    9.9943 H         1 UNK         0.3450 
    100 H100      -52.2870  -27.5186   11.6479 H         1 UNK         0.3450 
    101 H101      -52.4954  -29.4973   13.5321 H         1 UNK         0.2987 
    102 H102      -50.0214  -31.3397   14.6586 H         1 UNK         0.0766 
    103 H103      -48.6901  -28.8280   13.5339 H         1 UNK         0.0798 
    104 H104      -48.1464  -30.4711   13.2134 H         1 UNK         0.0798 
    105 H105      -48.0920  -29.8327   14.8466 H         1 UNK         0.0798 
    106 H106      -50.5950  -28.4453   14.9576 H         1 UNK         0.3198 
    107 H107      -53.3120  -28.9387   17.0816 H         1 UNK         0.0843 
    108 H108      -52.0202  -27.5585   18.7206 H         1 UNK         0.0831 
    109 H109      -50.5080  -28.0661   17.9694 H         1 UNK         0.0831 
    110 H110      -51.5294  -29.2448   18.7796 H         1 UNK         0.0831 
    111 H111      -51.7857  -26.6192   16.3561 H         1 UNK         0.3133 
    112 H112      -52.5958  -25.9460   13.4198 H         1 UNK         0.0566 
    113 H113      -54.6233  -24.4984   13.2922 H         1 UNK         0.0814 
    114 H114      -55.0415  -26.1969   13.1535 H         1 UNK         0.0814 
    115 H115      -55.3264  -25.3513   14.6667 H         1 UNK         0.0814 
    116 H116      -51.8228  -24.2875   14.6242 H         1 UNK         0.3091 
    117 H117      -52.2960  -22.3233   16.6829 H         1 UNK         0.0702 
    118 H118      -51.3120  -22.6857   18.9646 H         1 UNK         0.0785 
    119 H119      -51.7057  -24.4013   18.8603 H         1 UNK         0.0785 
    120 H120      -52.9882  -23.1988   18.8947 H         1 UNK         0.0785 
    121 H121      -50.1449  -22.5677   16.1577 H         1 UNK         0.2998 
    122 H122      -47.7921  -23.7558   16.5980 H         1 UNK         0.0697 
    123 H123      -46.6277  -25.5375   15.2841 H         1 UNK         0.0825 
    124 H124      -47.5362  -26.2193   16.6237 H         1 UNK         0.0825 
    125 H125      -48.1698  -26.3373   14.9886 H         1 UNK         0.0825 
    126 H126      -48.2874  -24.1849   13.7622 H         1 UNK         0.3029 
    127 H127      -49.3655  -20.8950   13.0621 H         1 UNK         0.0897 
    128 H128      -47.4527  -20.8304   11.4883 H         1 UNK         0.0792 
    129 H129      -46.8807  -20.5801   13.1291 H         1 UNK         0.0792 
    130 H130      -46.6554  -22.1428   12.3549 H         1 UNK         0.0792 
    131 H131      -48.7832  -22.9351   11.2432 H         1 UNK         0.3086 
    132 H132      -51.7860  -24.8754   11.6066 H         1 UNK         0.0583 
    133 H133      -52.3225  -22.9265   10.1340 H         1 UNK         0.1020 
    134 H134      -50.7533  -23.0565    9.3838 H         1 UNK         0.1020 
    135 H135      -54.0909  -24.7122   10.1723 H         1 UNK         0.0694 
    136 H136      -54.4090  -23.9783    8.6136 H         1 UNK         0.0694 
    137 H137      -49.4796  -25.2136    9.9564 H         1 UNK         0.2989 
    138 H138      -47.6365  -27.2571   12.2089 H         1 UNK         0.1055 
    139 H139      -49.2180  -28.8440   11.1222 H         1 UNK         0.0806 
    140 H140      -49.1365  -27.9566    9.6187 H         1 UNK         0.0806 
    141 H141      -47.7078  -28.7872   10.2325 H         1 UNK         0.0806 
    142 H142      -47.3475  -26.2046    9.5012 H         1 UNK         0.3061 
    143 H143      -45.4442  -23.3725   10.4814 H         1 UNK         0.0734 
    144 H144      -43.6791  -24.3952    9.0680 H         1 UNK         0.0832 
    145 H145      -43.7427  -25.1963   10.6282 H         1 UNK         0.0832 
    146 H146      -44.4380  -25.9814    9.2176 H         1 UNK         0.0832 
    147 H147      -45.9965  -24.5194    7.9229 H         1 UNK         0.3156 
    148 H148      -49.2096  -23.0756    7.4403 H         1 UNK         0.0589 
    149 H149      -46.5149  -22.2790    6.2136 H         1 UNK         0.0808 
    150 H150      -48.1086  -21.9804    5.5178 H         1 UNK         0.0808 
    151 H151      -47.6347  -21.1785    7.0046 H         1 UNK         0.0808 
    152 H152      -47.6890  -24.4436    5.5655 H         1 UNK         0.3098 
    153 H153      -48.5288  -26.4736    4.9035 H         1 UNK         0.0720 
    154 H154      -46.2040  -26.8122    5.7968 H         1 UNK         0.0791 
    155 H155      -46.8159  -27.9170    7.0229 H         1 UNK         0.0791 
    156 H156      -46.8978  -28.3525    5.3179 H         1 UNK         0.0791 
    157 H157      -49.6792  -27.9085    7.1852 H         1 UNK         0.3028 
@<TRIPOS>BOND
     1    1    2 1    
     2    1   82 1    
     3    1   83 1    
     4    1   84 1    
     5    2    3 2    
     6    2    4 am   BACKBONE|DICT|INTERRES
     7    4    5 1    
     8    4   85 1    
     9    5    6 1    
    10    5   80 1    
    11    5   86 1    
    12    6    7 1    
    13    6   87 1    
    14    6   88 1    
    15    7    8 1    
    16    8    9 1    
    17    8   89 1    
    18    8   90 1    
    19    9   10 ar   
    20    9   14 ar   
    21   10   11 ar   
    22   10   91 1    
    23   11   12 ar   
    24   11   58 1    
    25   12   13 ar   
    26   12   92 1    
    27   13   14 ar   
    28   13   15 1    
    29   14   93 1    
    30   15   16 1    
    31   15   94 1    
    32   15   95 1    
    33   16   17 1    
    34   17   18 1    
    35   17   96 1    
    36   17   97 1    
    37   18   19 1    
    38   18   22 1    
    39   18   98 1    
    40   19   20 am   BACKBONE|DICT|INTERRES
    41   19   21 2    
    42   20   99 1    
    43   20  100 1    
    44   22   23 am   BACKBONE|DICT|INTERRES
    45   22  101 1    
    46   23   24 2    
    47   23   25 1    
    48   25   26 1    
    49   25   27 1    
    50   25  102 1    
    51   26  103 1    
    52   26  104 1    
    53   26  105 1    
    54   27   28 am   BACKBONE|DICT|INTERRES
    55   27  106 1    
    56   28   29 2    
    57   28   30 1    
    58   30   31 1    
    59   30   32 1    
    60   30  107 1    
    61   31  108 1    
    62   31  109 1    
    63   31  110 1    
    64   32   33 am   BACKBONE|DICT|INTERRES
    65   32  111 1    
    66   33   34 2    
    67   33   35 1    
    68   35   36 1    
    69   35   37 1    
    70   35  112 1    
    71   36  113 1    
    72   36  114 1    
    73   36  115 1    
    74   37   38 am   BACKBONE|DICT|INTERRES
    75   37  116 1    
    76   38   39 2    
    77   38   40 1    
    78   40   41 1    
    79   40   42 1    
    80   40  117 1    
    81   41  118 1    
    82   41  119 1    
    83   41  120 1    
    84   42   43 am   BACKBONE|DICT|INTERRES
    85   42  121 1    
    86   43   44 2    
    87   43   45 1    
    88   45   46 1    
    89   45   47 1    
    90   45  122 1    
    91   46  123 1    
    92   46  124 1    
    93   46  125 1    
    94   47   48 am   BACKBONE|DICT|INTERRES
    95   47  126 1    
    96   48   49 2    
    97   48   50 1    
    98   50   51 1    
    99   50   52 1    
   100   50  127 1    
   101   51  128 1    
   102   51  129 1    
   103   51  130 1    
   104   52   53 am   BACKBONE|DICT|INTERRES
   105   52  131 1    
   106   53   54 2    
   107   53   55 1    
   108   55   56 1    
   109   55   59 1    
   110   55  132 1    
   111   56   57 1    
   112   56  133 1    
   113   56  134 1    
   114   57   58 1    
   115   58  135 1    
   116   58  136 1    
   117   59   60 am   BACKBONE|DICT|INTERRES
   118   59  137 1    
   119   60   61 2    
   120   60   62 1    
   121   62   63 1    
   122   62   64 1    
   123   62  138 1    
   124   63  139 1    
   125   63  140 1    
   126   63  141 1    
   127   64   65 am   BACKBONE|DICT|INTERRES
   128   64  142 1    
   129   65   66 2    
   130   65   67 1    
   131   67   68 1    
   132   67   69 1    
   133   67  143 1    
   134   68  144 1    
   135   68  145 1    
   136   68  146 1    
   137   69   70 am   BACKBONE|DICT|INTERRES
   138   69  147 1    
   139   70   71 2    
   140   70   72 1    
   141   72   73 1    
   142   72   74 1    
   143   72  148 1    
   144   73  149 1    
   145   73  150 1    
   146   73  151 1    
   147   74   75 am   BACKBONE|DICT|INTERRES
   148   74  152 1    
   149   75   76 2    
   150   75   77 1    
   151   77   78 1    
   152   77   79 1    
   153   77  153 1    
   154   78  154 1    
   155   78  155 1    
   156   78  156 1    
   157   79   80 am   BACKBONE|DICT|INTERRES
   158   79  157 1    
   159   80   81 2    
@<TRIPOS>SUBSTRUCTURE
     1 UNK         1 GROUP             0       ****    0 ROOT    
