@<TRIPOS>MOLECULE
3R207
157   159    1
SMALL
USER_CHARGES


@<TRIPOS>ATOM
      1 CA        -44.9170  -30.5851    5.9120 C.3       0 UNK        -0.1975 
      2 C         -46.0636  -29.9131    5.1714 C.2       0 UNK         0.4852 
      3 O         -45.9931  -29.7481    3.9531 O.2       0 UNK        -0.5216 
      4 N         -47.1179  -29.5219    5.9000 N.am      1 UNK        -0.4461 
      5 CA        -48.3257  -28.8760    5.3633 C.3       1 UNK         0.0864 
      6 C6        -49.4691  -28.8207    6.4078 C.3       14 UNK        -0.0898 
      7 S7        -49.8274  -30.4157    7.2207 S.3       14 UNK        -0.2598 
      8 C8        -49.7491  -29.9494    8.9834 C.3       14 UNK         0.0286 
      9 C9        -51.0726  -29.4043    9.5086 C.ar      14 UNK        -0.0844 
     10 C10       -51.5985  -28.1994    9.0276 C.ar      14 UNK        -0.0881 
     11 C11       -52.7997  -27.6913    9.5294 C.ar      14 UNK        -0.0643 
     12 C12       -53.4716  -28.3912   10.5343 C.ar      14 UNK        -0.0930 
     13 C13       -52.9584  -29.5954   11.0251 C.ar      14 UNK        -0.0827 
     14 C14       -51.7628  -30.0990   10.5065 C.ar      14 UNK        -0.1249 
     15 C15       -53.6916  -30.3410   12.1261 C.3       14 UNK         0.0141 
     16 S16       -55.0415  -31.3516   11.4481 S.3       14 UNK        -0.2313 
     17 C17       -56.0787  -31.5678   12.9327 C.3       14 UNK        -0.0915 
     18 CA        -57.3946  -30.7471   12.8648 C.3       13 UNK         0.0968 
     19 C         -58.3136  -31.0687   14.0803 C.2       13 UNK         0.5732 
     20 N         -58.6572  -30.1102   14.9326 N.am      13 UNK        -0.7310 
     21 O         -58.7301  -32.2126   14.2482 O.2       13 UNK        -0.5035 
     22 N         -57.1391  -29.3119   12.6485 N.am      13 UNK        -0.4233 
     23 C         -58.0211  -28.4399   12.1480 C.2       13 UNK         0.4989 
     24 O         -59.1631  -28.7466   11.8010 O.2       13 UNK        -0.4996 
     25 CA        -57.5475  -26.9762   12.0449 C.3       12 UNK         0.0216 
     26 CB        -58.6126  -26.0472   11.4315 C.3       12 UNK        -0.1964 
     27 N         -57.1492  -26.4460   13.3528 N.am      12 UNK        -0.4276 
     28 C         -55.9639  -26.6590   13.9348 C.2       12 UNK         0.5020 
     29 O         -55.0681  -27.3409   13.4325 O.2       12 UNK        -0.5489 
     30 CA        -55.7593  -26.0633   15.3277 C.3       11 UNK         0.0294 
     31 CB        -56.2202  -27.0535   16.4139 C.3       11 UNK        -0.2019 
     32 N         -54.3399  -25.7650   15.4830 N.am      11 UNK        -0.4493 
     33 C         -53.8163  -24.9092   16.3663 C.2       11 UNK         0.4932 
     34 O         -54.4954  -24.2907   17.1881 O.2       11 UNK        -0.5029 
     35 CA        -52.2951  -24.6646   16.3101 C.3       10 UNK         0.0280 
     36 CB        -51.6905  -24.3955   17.7048 C.3       10 UNK        -0.1976 
     37 N         -51.5274  -25.6937   15.5989 N.am      10 UNK        -0.4242 
     38 C         -51.3326  -26.9738   15.9494 C.2       10 UNK         0.5072 
     39 O         -51.8795  -27.5253   16.9052 O.2       10 UNK        -0.5224 
     40 CA        -50.3174  -27.7637   15.1019 C.3       9 UNK         0.0343 
     41 CB        -50.9763  -28.3133   13.8255 C.3       9 UNK        -0.2003 
     42 N         -49.1351  -26.9660   14.7533 N.am      9 UNK        -0.4272 
     43 C         -48.2360  -26.5108   15.6413 C.2       9 UNK         0.4988 
     44 O         -48.2488  -26.8009   16.8383 O.2       9 UNK        -0.5108 
     45 CA        -47.1448  -25.5582   15.1192 C.3       8 UNK         0.0248 
     46 CB        -45.9731  -26.3444   14.5098 C.3       8 UNK        -0.2001 
     47 N         -47.6562  -24.5854   14.1500 N.am      8 UNK        -0.4140 
     48 C         -48.5086  -23.5934   14.4499 C.2       8 UNK         0.5028 
     49 O         -48.8788  -23.3309   15.5940 O.2       8 UNK        -0.5428 
     50 CA        -49.0721  -22.7693   13.2779 C.3       7 UNK         0.0264 
     51 CB        -48.1343  -21.6035   12.9282 C.3       7 UNK        -0.1988 
     52 N         -49.3374  -23.5729   12.0804 N.am      7 UNK        -0.4454 
     53 C         -50.2272  -24.5754   12.0237 C.2       7 UNK         0.5027 
     54 O         -50.9503  -24.8872   12.9697 O.2       7 UNK        -0.5083 
     55 CA        -50.2747  -25.4102   10.7251 C.3       6 UNK         0.0844 
     56 C56       -51.1570  -24.7586    9.6331 C.3       14 UNK        -0.0967 
     57 S57       -52.9392  -24.9484    9.9847 S.3       14 UNK        -0.2604 
     58 C58       -53.3800  -26.3976    8.9737 C.3       14 UNK         0.0134 
     59 N         -48.9318  -25.7268   10.2316 N.am      6 UNK        -0.4116 
     60 C         -48.0489  -26.4912   10.8905 C.2       5 UNK         0.5034 
     61 O         -48.3040  -27.0871   11.9361 O.2       5 UNK        -0.5045 
     62 CA        -46.6208  -26.5448   10.3255 C.3       5 UNK         0.0224 
     63 CB        -46.4838  -27.6240    9.2394 C.3       5 UNK        -0.1978 
     64 N         -46.2008  -25.2433    9.7995 N.am      5 UNK        -0.4737 
     65 C         -45.9022  -24.1896   10.5732 C.2       4 UNK         0.5027 
     66 O         -45.9036  -24.2298   11.8024 O.2       4 UNK        -0.5211 
     67 CA        -45.5851  -22.8619    9.8626 C.3       4 UNK         0.0297 
     68 CB        -44.0917  -22.7875    9.5086 C.3       4 UNK        -0.1993 
     69 N         -46.3857  -22.6501    8.6539 N.am      4 UNK        -0.4486 
     70 C         -47.7176  -22.4940    8.6361 C.2       3 UNK         0.4961 
     71 O         -48.4166  -22.4616    9.6474 O.2       3 UNK        -0.5105 
     72 CA        -48.3913  -22.4319    7.2529 C.3       3 UNK         0.0299 
     73 CB        -48.4268  -20.9861    6.7341 C.3       3 UNK        -0.1972 
     74 N         -47.7522  -23.3019    6.2573 N.am      3 UNK        -0.4305 
     75 C         -47.6289  -24.6299    6.3850 C.2       2 UNK         0.5006 
     76 O         -48.0683  -25.2636    7.3502 O.2       2 UNK        -0.5106 
     77 CA        -46.8104  -25.3494    5.2992 C.3       2 UNK         0.0296 
     78 CB        -45.3088  -25.0722    5.4902 C.3       2 UNK        -0.2002 
     79 N         -47.0286  -26.7913    5.3818 N.am      2 UNK        -0.4032 
     80 C         -48.0722  -27.4408    4.8502 C.2       1 UNK         0.5000 
     81 O         -48.8492  -26.9401    4.0344 O.2       1 UNK        -0.5238 
     82 H82       -44.7634  -31.5935    5.5288 H         1 UNK         0.0889 
     83 H83       -45.1073  -30.6549    6.9830 H         1 UNK         0.0889 
     84 H84       -43.9956  -30.0215    5.7676 H         1 UNK         0.0889 
     85 H85       -47.1411  -29.7303    6.8877 H         1 UNK         0.3028 
     86 H86       -48.6674  -29.4696    4.5125 H         1 UNK         0.0864 
     87 H87       -49.2239  -28.0795    7.1698 H         1 UNK         0.0720 
     88 H88       -50.3930  -28.4765    5.9384 H         1 UNK         0.0720 
     89 H89       -48.9623  -29.2156    9.1529 H         1 UNK         0.0814 
     90 H90       -49.4550  -30.8338    9.5507 H         1 UNK         0.0814 
     91 H91       -51.0785  -27.6459    8.2624 H         1 UNK         0.1469 
     92 H92       -54.3957  -27.9989   10.9355 H         1 UNK         0.1381 
     93 H93       -51.3660  -31.0292   10.8894 H         1 UNK         0.1206 
     94 H94       -53.0057  -30.9833   12.6805 H         1 UNK         0.0813 
     95 H95       -54.0840  -29.6244   12.8463 H         1 UNK         0.0813 
     96 H96       -56.2997  -32.6335   13.0165 H         1 UNK         0.0638 
     97 H97       -55.5089  -31.3081   13.8268 H         1 UNK         0.0638 
     98 H98       -57.9439  -31.1038   11.9914 H         1 UNK         0.0568 
     99 H99       -59.2565  -30.3352   15.7109 H         1 UNK         0.3450 
    100 H100      -58.3364  -29.1669   14.7960 H         1 UNK         0.3450 
    101 H101      -56.2311  -28.9590   12.9292 H         1 UNK         0.2987 
    102 H102      -56.6818  -26.9655   11.3788 H         1 UNK         0.0766 
    103 H103      -58.2348  -25.0307   11.3196 H         1 UNK         0.0798 
    104 H104      -59.5152  -26.0050   12.0425 H         1 UNK         0.0798 
    105 H105      -58.9062  -26.3913   10.4388 H         1 UNK         0.0798 
    106 H106      -57.8460  -25.9086   13.8496 H         1 UNK         0.3198 
    107 H107      -56.3307  -25.1356   15.4038 H         1 UNK         0.0843 
    108 H108      -55.6620  -27.9896   16.3657 H         1 UNK         0.0831 
    109 H109      -57.2777  -27.2954   16.3034 H         1 UNK         0.0831 
    110 H110      -56.0888  -26.6391   17.4135 H         1 UNK         0.0831 
    111 H111      -53.7405  -26.2248   14.8075 H         1 UNK         0.3133 
    112 H112      -52.1654  -23.7555   15.7214 H         1 UNK         0.0566 
    113 H113      -50.6183  -24.2086   17.6415 H         1 UNK         0.0814 
    114 H114      -52.1431  -23.5178   18.1675 H         1 UNK         0.0814 
    115 H115      -51.8452  -25.2360   18.3818 H         1 UNK         0.0814 
    116 H116      -51.1034  -25.3816   14.7259 H         1 UNK         0.3091 
    117 H117      -49.9781  -28.6133   15.6979 H         1 UNK         0.0702 
    118 H118      -51.8240  -28.9527   14.0733 H         1 UNK         0.0785 
    119 H119      -51.3507  -27.5184   13.1802 H         1 UNK         0.0785 
    120 H120      -50.2772  -28.9120   13.2412 H         1 UNK         0.0785 
    121 H121      -49.0031  -26.7477   13.7704 H         1 UNK         0.2998 
    122 H122      -46.7606  -24.9981   15.9744 H         1 UNK         0.0697 
    123 H123      -46.2853  -26.9424   13.6542 H         1 UNK         0.0825 
    124 H124      -45.5413  -27.0274   15.2424 H         1 UNK         0.0825 
    125 H125      -45.1767  -25.6774   14.1791 H         1 UNK         0.0825 
    126 H126      -47.3233  -24.6683   13.1948 H         1 UNK         0.3029 
    127 H127      -50.0259  -22.3492   13.6047 H         1 UNK         0.0897 
    128 H128      -48.5483  -20.9850   12.1315 H         1 UNK         0.0792 
    129 H129      -47.1552  -21.9557   12.6049 H         1 UNK         0.0792 
    130 H130      -47.9780  -20.9576   13.7932 H         1 UNK         0.0792 
    131 H131      -48.8334  -23.3150   11.2339 H         1 UNK         0.3086 
    132 H132      -50.7251  -26.3681   10.9926 H         1 UNK         0.0583 
    133 H133      -50.9275  -23.6969    9.5232 H         1 UNK         0.1020 
    134 H134      -50.9457  -25.2018    8.6589 H         1 UNK         0.1020 
    135 H135      -54.4676  -26.4764    8.9367 H         1 UNK         0.0694 
    136 H136      -53.0553  -26.2402    7.9439 H         1 UNK         0.0694 
    137 H137      -48.6432  -25.3003    9.3581 H         1 UNK         0.2989 
    138 H138      -45.9511  -26.8103   11.1468 H         1 UNK         0.1055 
    139 H139      -46.6783  -28.6131    9.6554 H         1 UNK         0.0806 
    140 H140      -45.4760  -27.6438    8.8245 H         1 UNK         0.0806 
    141 H141      -47.1836  -27.4695    8.4195 H         1 UNK         0.0806 
    142 H142      -46.2477  -25.1164    8.7986 H         1 UNK         0.3061 
    143 H143      -45.8111  -22.0515   10.5585 H         1 UNK         0.0734 
    144 H144      -43.8321  -21.8190    9.0809 H         1 UNK         0.0832 
    145 H145      -43.4745  -22.9219   10.3982 H         1 UNK         0.0832 
    146 H146      -43.8043  -23.5599    8.7939 H         1 UNK         0.0832 
    147 H147      -45.8941  -22.6546    7.7724 H         1 UNK         0.3156 
    148 H148      -49.4209  -22.7748    7.3757 H         1 UNK         0.0589 
    149 H149      -48.9158  -20.3267    7.4528 H         1 UNK         0.0808 
    150 H150      -47.4248  -20.5919    6.5601 H         1 UNK         0.0808 
    151 H151      -48.9844  -20.9127    5.8002 H         1 UNK         0.0808 
    152 H152      -47.3644  -22.8512    5.4403 H         1 UNK         0.3098 
    153 H153      -47.1227  -24.9853    4.3182 H         1 UNK         0.0720 
    154 H154      -45.0844  -24.0100    5.3864 H         1 UNK         0.0791 
    155 H155      -44.7138  -25.5974    4.7425 H         1 UNK         0.0791 
    156 H156      -44.9581  -25.3863    6.4744 H         1 UNK         0.0791 
    157 H157      -46.4678  -27.2902    6.0551 H         1 UNK         0.3028 
@<TRIPOS>BOND
     1    1    2 1    
     2    1   82 1    
     3    1   83 1    
     4    1   84 1    
     5    2    3 2    
     6    2    4 am   BACKBONE|DICT|INTERRES
     7    4    5 1    
     8    4   85 1    
     9    5    6 1    
    10    5   80 1    
    11    5   86 1    
    12    6    7 1    
    13    6   87 1    
    14    6   88 1    
    15    7    8 1    
    16    8    9 1    
    17    8   89 1    
    18    8   90 1    
    19    9   10 ar   
    20    9   14 ar   
    21   10   11 ar   
    22   10   91 1    
    23   11   12 ar   
    24   11   58 1    
    25   12   13 ar   
    26   12   92 1    
    27   13   14 ar   
    28   13   15 1    
    29   14   93 1    
    30   15   16 1    
    31   15   94 1    
    32   15   95 1    
    33   16   17 1    
    34   17   18 1    
    35   17   96 1    
    36   17   97 1    
    37   18   19 1    
    38   18   22 1    
    39   18   98 1    
    40   19   20 am   BACKBONE|DICT|INTERRES
    41   19   21 2    
    42   20   99 1    
    43   20  100 1    
    44   22   23 am   BACKBONE|DICT|INTERRES
    45   22  101 1    
    46   23   24 2    
    47   23   25 1    
    48   25   26 1    
    49   25   27 1    
    50   25  102 1    
    51   26  103 1    
    52   26  104 1    
    53   26  105 1    
    54   27   28 am   BACKBONE|DICT|INTERRES
    55   27  106 1    
    56   28   29 2    
    57   28   30 1    
    58   30   31 1    
    59   30   32 1    
    60   30  107 1    
    61   31  108 1    
    62   31  109 1    
    63   31  110 1    
    64   32   33 am   BACKBONE|DICT|INTERRES
    65   32  111 1    
    66   33   34 2    
    67   33   35 1    
    68   35   36 1    
    69   35   37 1    
    70   35  112 1    
    71   36  113 1    
    72   36  114 1    
    73   36  115 1    
    74   37   38 am   BACKBONE|DICT|INTERRES
    75   37  116 1    
    76   38   39 2    
    77   38   40 1    
    78   40   41 1    
    79   40   42 1    
    80   40  117 1    
    81   41  118 1    
    82   41  119 1    
    83   41  120 1    
    84   42   43 am   BACKBONE|DICT|INTERRES
    85   42  121 1    
    86   43   44 2    
    87   43   45 1    
    88   45   46 1    
    89   45   47 1    
    90   45  122 1    
    91   46  123 1    
    92   46  124 1    
    93   46  125 1    
    94   47   48 am   BACKBONE|DICT|INTERRES
    95   47  126 1    
    96   48   49 2    
    97   48   50 1    
    98   50   51 1    
    99   50   52 1    
   100   50  127 1    
   101   51  128 1    
   102   51  129 1    
   103   51  130 1    
   104   52   53 am   BACKBONE|DICT|INTERRES
   105   52  131 1    
   106   53   54 2    
   107   53   55 1    
   108   55   56 1    
   109   55   59 1    
   110   55  132 1    
   111   56   57 1    
   112   56  133 1    
   113   56  134 1    
   114   57   58 1    
   115   58  135 1    
   116   58  136 1    
   117   59   60 am   BACKBONE|DICT|INTERRES
   118   59  137 1    
   119   60   61 2    
   120   60   62 1    
   121   62   63 1    
   122   62   64 1    
   123   62  138 1    
   124   63  139 1    
   125   63  140 1    
   126   63  141 1    
   127   64   65 am   BACKBONE|DICT|INTERRES
   128   64  142 1    
   129   65   66 2    
   130   65   67 1    
   131   67   68 1    
   132   67   69 1    
   133   67  143 1    
   134   68  144 1    
   135   68  145 1    
   136   68  146 1    
   137   69   70 am   BACKBONE|DICT|INTERRES
   138   69  147 1    
   139   70   71 2    
   140   70   72 1    
   141   72   73 1    
   142   72   74 1    
   143   72  148 1    
   144   73  149 1    
   145   73  150 1    
   146   73  151 1    
   147   74   75 am   BACKBONE|DICT|INTERRES
   148   74  152 1    
   149   75   76 2    
   150   75   77 1    
   151   77   78 1    
   152   77   79 1    
   153   77  153 1    
   154   78  154 1    
   155   78  155 1    
   156   78  156 1    
   157   79   80 am   BACKBONE|DICT|INTERRES
   158   79  157 1    
   159   80   81 2    
@<TRIPOS>SUBSTRUCTURE
     1 UNK         1 GROUP             0       ****    0 ROOT    
