@<TRIPOS>MOLECULE
3R207
157   159    1
SMALL
USER_CHARGES


@<TRIPOS>ATOM
      1 CA        -54.6485  -25.8477    2.1910 C.3       0 UNK        -0.1975 
      2 C         -54.4150  -26.0074    3.6865 C.2       0 UNK         0.4852 
      3 O         -55.2559  -25.5886    4.4837 O.2       0 UNK        -0.5216 
      4 N         -53.2853  -26.6168    4.0696 N.am      1 UNK        -0.4461 
      5 CA        -52.8610  -26.7928    5.4626 C.3       1 UNK         0.0864 
      6 C6        -51.8665  -27.9754    5.5958 C.3       14 UNK        -0.0898 
      7 S7        -51.9013  -28.6994    7.2673 S.3       14 UNK        -0.2598 
      8 C8        -51.2905  -30.3804    6.9466 C.3       14 UNK         0.0286 
      9 C9        -51.1531  -31.1237    8.2626 C.ar      14 UNK        -0.0844 
     10 C10       -50.0347  -30.9025    9.0699 C.ar      14 UNK        -0.0881 
     11 C11       -49.9395  -31.4887   10.3390 C.ar      14 UNK        -0.0643 
     12 C12       -50.9656  -32.3340   10.7691 C.ar      14 UNK        -0.0930 
     13 C13       -52.0820  -32.5745    9.9635 C.ar      14 UNK        -0.0827 
     14 C14       -52.1670  -31.9765    8.7042 C.ar      14 UNK        -0.1249 
     15 C15       -53.2130  -33.4454   10.4823 C.3       14 UNK         0.0141 
     16 S16       -54.1874  -32.5582   11.7369 S.3       14 UNK        -0.2313 
     17 C17       -55.1965  -31.4256   10.7175 C.3       14 UNK        -0.0915 
     18 CA        -54.5929  -30.0042   10.4793 C.3       13 UNK         0.0968 
     19 C         -55.5621  -29.1065    9.6545 C.2       13 UNK         0.5732 
     20 N         -55.8332  -27.8643   10.0372 N.am      13 UNK        -0.7310 
     21 O         -56.0606  -29.5370    8.6172 O.2       13 UNK        -0.5035 
     22 N         -54.0170  -29.3579   11.6710 N.am      13 UNK        -0.4233 
     23 C         -54.6149  -29.1604   12.8511 C.2       13 UNK         0.4989 
     24 O         -55.7506  -29.5409   13.1380 O.2       13 UNK        -0.4996 
     25 CA        -53.7990  -28.3659   13.8854 C.3       12 UNK         0.0216 
     26 CB        -52.5997  -29.1908   14.3866 C.3       12 UNK        -0.1964 
     27 N         -53.3294  -27.0510   13.4273 N.am      12 UNK        -0.4276 
     28 C         -54.0585  -26.1043   12.8175 C.2       12 UNK         0.5020 
     29 O         -55.2042  -26.2709   12.3952 O.2       12 UNK        -0.5489 
     30 CA        -53.3894  -24.7216   12.6980 C.3       11 UNK         0.0294 
     31 CB        -54.2625  -23.6864   11.9590 C.3       11 UNK        -0.2019 
     32 N         -52.9604  -24.1967   14.0043 N.am      11 UNK        -0.4493 
     33 C         -53.7192  -24.0328   15.1013 C.2       11 UNK         0.4932 
     34 O         -54.9318  -24.2490   15.1424 O.2       11 UNK        -0.5029 
     35 CA        -52.9943  -23.5357   16.3687 C.3       10 UNK         0.0280 
     36 CB        -53.8614  -23.6455   17.6412 C.3       10 UNK        -0.1976 
     37 N         -51.6894  -24.1707   16.5855 N.am      10 UNK        -0.4242 
     38 C         -51.4080  -25.4754   16.7228 C.2       10 UNK         0.5072 
     39 O         -52.2632  -26.3609   16.6848 O.2       10 UNK        -0.5224 
     40 CA        -49.9236  -25.8584   16.9473 C.3       9 UNK         0.0343 
     41 CB        -49.6456  -27.3343   16.6050 C.3       9 UNK        -0.2003 
     42 N         -48.9790  -25.0242   16.1967 N.am      9 UNK        -0.4272 
     43 C         -48.6492  -23.7543   16.4687 C.2       9 UNK         0.4988 
     44 O         -49.0443  -23.1465   17.4634 O.2       9 UNK        -0.5108 
     45 CA        -47.8239  -23.0053   15.4084 C.3       8 UNK         0.0248 
     46 CB        -46.3180  -23.1868   15.6554 C.3       8 UNK        -0.2001 
     47 N         -48.1590  -23.3940   14.0332 N.am      8 UNK        -0.4140 
     48 C         -49.3732  -23.2762   13.4709 C.2       8 UNK         0.5028 
     49 O         -50.3679  -22.8294   14.0425 O.2       8 UNK        -0.5428 
     50 CA        -49.5053  -23.7804   12.0292 C.3       7 UNK         0.0264 
     51 CB        -48.8430  -22.7805   11.0675 C.3       7 UNK        -0.1988 
     52 N         -48.9310  -25.1208   11.8751 N.am      7 UNK        -0.4454 
     53 C         -49.4192  -26.2361   12.4493 C.2       7 UNK         0.5027 
     54 O         -50.4883  -26.2808   13.0600 O.2       7 UNK        -0.5083 
     55 CA        -48.5428  -27.5055   12.3779 C.3       6 UNK         0.0844 
     56 C56       -48.9163  -28.3878   11.1603 C.3       14 UNK        -0.0967 
     57 S57       -47.7448  -29.7704   10.8961 S.3       14 UNK        -0.2604 
     58 C58       -48.7652  -31.2325   11.2851 C.3       14 UNK         0.0134 
     59 N         -47.1188  -27.1680   12.4136 N.am      6 UNK        -0.4116 
     60 C         -46.4736  -26.6695   13.4755 C.2       5 UNK         0.5034 
     61 O         -47.0116  -26.4581   14.5614 O.2       5 UNK        -0.5045 
     62 CA        -44.9876  -26.3145   13.2884 C.3       5 UNK         0.0224 
     63 CB        -44.0959  -27.4424   13.8302 C.3       5 UNK        -0.1978 
     64 N         -44.6241  -26.0347   11.8946 N.am      5 UNK        -0.4737 
     65 C         -45.0969  -25.0085   11.1740 C.2       4 UNK         0.5027 
     66 O         -45.8566  -24.1575   11.6401 O.2       4 UNK        -0.5211 
     67 CA        -44.6679  -24.9260    9.6925 C.3       4 UNK         0.0297 
     68 CB        -44.0364  -26.2312    9.1541 C.3       4 UNK        -0.1993 
     69 N         -45.7522  -24.4971    8.7976 N.am      4 UNK        -0.4486 
     70 C         -46.9602  -25.0619    8.6588 C.2       3 UNK         0.4961 
     71 O         -47.3679  -26.0097    9.3340 O.2       3 UNK        -0.5105 
     72 CA        -47.8514  -24.4808    7.5531 C.3       3 UNK         0.0299 
     73 CB        -47.4990  -25.1034    6.1915 C.3       3 UNK        -0.1972 
     74 N         -49.2565  -24.7576    7.8513 N.am      3 UNK        -0.4305 
     75 C         -50.2469  -23.8592    7.7831 C.2       2 UNK         0.5006 
     76 O         -50.0913  -22.6946    7.4095 O.2       2 UNK        -0.5106 
     77 CA        -51.6420  -24.3528    8.2162 C.3       2 UNK         0.0296 
     78 CB        -52.6851  -23.2176    8.2851 C.3       2 UNK        -0.2002 
     79 N         -52.1431  -25.4530    7.3829 N.am      2 UNK        -0.4032 
     80 C         -52.2858  -25.4807    6.0477 C.2       1 UNK         0.5000 
     81 O         -51.9768  -24.5513    5.2958 O.2       1 UNK        -0.5238 
     82 H82       -53.8379  -26.2779    1.6030 H         1 UNK         0.0889 
     83 H83       -54.7291  -24.7916    1.9353 H         1 UNK         0.0889 
     84 H84       -55.5760  -26.3408    1.9011 H         1 UNK         0.0889 
     85 H85       -52.6171  -26.9034    3.3687 H         1 UNK         0.3028 
     86 H86       -53.7588  -27.0354    6.0369 H         1 UNK         0.0864 
     87 H87       -52.1357  -28.7668    4.8939 H         1 UNK         0.0720 
     88 H88       -50.8460  -27.6802    5.3425 H         1 UNK         0.0720 
     89 H89       -50.3260  -30.3337    6.4382 H         1 UNK         0.0814 
     90 H90       -51.9765  -30.9020    6.2772 H         1 UNK         0.0814 
     91 H91       -49.2612  -30.2388    8.7112 H         1 UNK         0.1469 
     92 H92       -50.9108  -32.7884   11.7493 H         1 UNK         0.1381 
     93 H93       -53.0416  -32.1375    8.0886 H         1 UNK         0.1206 
     94 H94       -53.8611  -33.7799    9.6709 H         1 UNK         0.0813 
     95 H95       -52.7961  -34.3477   10.9319 H         1 UNK         0.0813 
     96 H96       -55.3962  -31.9117    9.7611 H         1 UNK         0.0638 
     97 H97       -56.1680  -31.3386   11.2064 H         1 UNK         0.0638 
     98 H98       -53.7368  -30.1278    9.8195 H         1 UNK         0.0568 
     99 H99       -55.4856  -27.4836   10.9124 H         1 UNK         0.3450 
    100 H100      -56.4568  -27.3109    9.4729 H         1 UNK         0.3450 
    101 H101      -53.0909  -28.9793   11.5444 H         1 UNK         0.2987 
    102 H102      -54.4558  -28.1798   14.7374 H         1 UNK         0.0766 
    103 H103      -52.9130  -30.1871   14.7022 H         1 UNK         0.0798 
    104 H104      -52.1273  -28.7161   15.2464 H         1 UNK         0.0798 
    105 H105      -51.8388  -29.3161   13.6152 H         1 UNK         0.0798 
    106 H106      -52.3791  -26.7999   13.6831 H         1 UNK         0.3198 
    107 H107      -52.4952  -24.8765   12.0977 H         1 UNK         0.0843 
    108 H108      -54.5391  -24.0466   10.9676 H         1 UNK         0.0831 
    109 H109      -53.7322  -22.7436   11.8256 H         1 UNK         0.0831 
    110 H110      -55.1878  -23.4789   12.4974 H         1 UNK         0.0831 
    111 H111      -51.9789  -23.9391   14.0798 H         1 UNK         0.3133 
    112 H112      -52.7888  -22.4776   16.2010 H         1 UNK         0.0566 
    113 H113      -53.3368  -23.2574   18.5141 H         1 UNK         0.0814 
    114 H114      -54.1418  -24.6786   17.8498 H         1 UNK         0.0814 
    115 H115      -54.7836  -23.0723   17.5383 H         1 UNK         0.0814 
    116 H116      -50.9028  -23.5335   16.6441 H         1 UNK         0.3091 
    117 H117      -49.7237  -25.7206   18.0116 H         1 UNK         0.0702 
    118 H118      -48.6046  -27.5967   16.7948 H         1 UNK         0.0785 
    119 H119      -49.8572  -27.5468   15.5565 H         1 UNK         0.0785 
    120 H120      -50.2613  -28.0037   17.2070 H         1 UNK         0.0785 
    121 H121      -48.5503  -25.4572   15.3850 H         1 UNK         0.2998 
    122 H122      -48.0563  -21.9427   15.5043 H         1 UNK         0.0697 
    123 H123      -46.0257  -24.2361   15.6327 H         1 UNK         0.0825 
    124 H124      -46.0382  -22.7969   16.6349 H         1 UNK         0.0825 
    125 H125      -45.7233  -22.6538   14.9132 H         1 UNK         0.0825 
    126 H126      -47.4080  -23.7674   13.4670 H         1 UNK         0.3029 
    127 H127      -50.5632  -23.8329   11.7749 H         1 UNK         0.0897 
    128 H128      -47.8196  -22.5405   11.3546 H         1 UNK         0.0792 
    129 H129      -49.3967  -21.8409   11.0496 H         1 UNK         0.0792 
    130 H130      -48.8136  -23.1550   10.0501 H         1 UNK         0.0792 
    131 H131      -48.0496  -25.1856   11.3784 H         1 UNK         0.3086 
    132 H132      -48.7539  -28.0887   13.2770 H         1 UNK         0.0583 
    133 H133      -49.9278  -28.7794   11.2822 H         1 UNK         0.1020 
    134 H134      -48.9391  -27.8001   10.2419 H         1 UNK         0.1020 
    135 H135      -48.1197  -32.1116   11.2762 H         1 UNK         0.0694 
    136 H136      -49.1327  -31.1280   12.3074 H         1 UNK         0.0694 
    137 H137      -46.6112  -27.3010   11.5504 H         1 UNK         0.2989 
    138 H138      -44.7936  -25.4120   13.8715 H         1 UNK         0.1055 
    139 H139      -44.2334  -28.3703   13.2733 H         1 UNK         0.0806 
    140 H140      -43.0405  -27.1733   13.7823 H         1 UNK         0.0806 
    141 H141      -44.3267  -27.6532   14.8757 H         1 UNK         0.0806 
    142 H142      -44.0015  -26.6909   11.4449 H         1 UNK         0.3061 
    143 H143      -43.9072  -24.1453    9.6460 H         1 UNK         0.0734 
    144 H144      -44.7197  -27.0781    9.2345 H         1 UNK         0.0832 
    145 H145      -43.7657  -26.1294    8.1030 H         1 UNK         0.0832 
    146 H146      -43.1195  -26.4853    9.6873 H         1 UNK         0.0832 
    147 H147      -45.5388  -23.6950    8.2208 H         1 UNK         0.3156 
    148 H148      -47.6750  -23.4039    7.5108 H         1 UNK         0.0589 
    149 H149      -48.1193  -24.6890    5.3963 H         1 UNK         0.0808 
    150 H150      -46.4590  -24.9098    5.9258 H         1 UNK         0.0808 
    151 H151      -47.6399  -26.1852    6.1953 H         1 UNK         0.0808 
    152 H152      -49.4375  -25.6793    8.2259 H         1 UNK         0.3098 
    153 H153      -51.5289  -24.7522    9.2256 H         1 UNK         0.0720 
    154 H154      -52.3627  -22.4320    8.9698 H         1 UNK         0.0791 
    155 H155      -53.6474  -23.5840    8.6418 H         1 UNK         0.0791 
    156 H156      -52.8452  -22.7556    7.3101 H         1 UNK         0.0791 
    157 H157      -52.3787  -26.3016    7.8810 H         1 UNK         0.3028 
@<TRIPOS>BOND
     1    1    2 1    
     2    1   82 1    
     3    1   83 1    
     4    1   84 1    
     5    2    3 2    
     6    2    4 am   BACKBONE|DICT|INTERRES
     7    4    5 1    
     8    4   85 1    
     9    5    6 1    
    10    5   80 1    
    11    5   86 1    
    12    6    7 1    
    13    6   87 1    
    14    6   88 1    
    15    7    8 1    
    16    8    9 1    
    17    8   89 1    
    18    8   90 1    
    19    9   10 ar   
    20    9   14 ar   
    21   10   11 ar   
    22   10   91 1    
    23   11   12 ar   
    24   11   58 1    
    25   12   13 ar   
    26   12   92 1    
    27   13   14 ar   
    28   13   15 1    
    29   14   93 1    
    30   15   16 1    
    31   15   94 1    
    32   15   95 1    
    33   16   17 1    
    34   17   18 1    
    35   17   96 1    
    36   17   97 1    
    37   18   19 1    
    38   18   22 1    
    39   18   98 1    
    40   19   20 am   BACKBONE|DICT|INTERRES
    41   19   21 2    
    42   20   99 1    
    43   20  100 1    
    44   22   23 am   BACKBONE|DICT|INTERRES
    45   22  101 1    
    46   23   24 2    
    47   23   25 1    
    48   25   26 1    
    49   25   27 1    
    50   25  102 1    
    51   26  103 1    
    52   26  104 1    
    53   26  105 1    
    54   27   28 am   BACKBONE|DICT|INTERRES
    55   27  106 1    
    56   28   29 2    
    57   28   30 1    
    58   30   31 1    
    59   30   32 1    
    60   30  107 1    
    61   31  108 1    
    62   31  109 1    
    63   31  110 1    
    64   32   33 am   BACKBONE|DICT|INTERRES
    65   32  111 1    
    66   33   34 2    
    67   33   35 1    
    68   35   36 1    
    69   35   37 1    
    70   35  112 1    
    71   36  113 1    
    72   36  114 1    
    73   36  115 1    
    74   37   38 am   BACKBONE|DICT|INTERRES
    75   37  116 1    
    76   38   39 2    
    77   38   40 1    
    78   40   41 1    
    79   40   42 1    
    80   40  117 1    
    81   41  118 1    
    82   41  119 1    
    83   41  120 1    
    84   42   43 am   BACKBONE|DICT|INTERRES
    85   42  121 1    
    86   43   44 2    
    87   43   45 1    
    88   45   46 1    
    89   45   47 1    
    90   45  122 1    
    91   46  123 1    
    92   46  124 1    
    93   46  125 1    
    94   47   48 am   BACKBONE|DICT|INTERRES
    95   47  126 1    
    96   48   49 2    
    97   48   50 1    
    98   50   51 1    
    99   50   52 1    
   100   50  127 1    
   101   51  128 1    
   102   51  129 1    
   103   51  130 1    
   104   52   53 am   BACKBONE|DICT|INTERRES
   105   52  131 1    
   106   53   54 2    
   107   53   55 1    
   108   55   56 1    
   109   55   59 1    
   110   55  132 1    
   111   56   57 1    
   112   56  133 1    
   113   56  134 1    
   114   57   58 1    
   115   58  135 1    
   116   58  136 1    
   117   59   60 am   BACKBONE|DICT|INTERRES
   118   59  137 1    
   119   60   61 2    
   120   60   62 1    
   121   62   63 1    
   122   62   64 1    
   123   62  138 1    
   124   63  139 1    
   125   63  140 1    
   126   63  141 1    
   127   64   65 am   BACKBONE|DICT|INTERRES
   128   64  142 1    
   129   65   66 2    
   130   65   67 1    
   131   67   68 1    
   132   67   69 1    
   133   67  143 1    
   134   68  144 1    
   135   68  145 1    
   136   68  146 1    
   137   69   70 am   BACKBONE|DICT|INTERRES
   138   69  147 1    
   139   70   71 2    
   140   70   72 1    
   141   72   73 1    
   142   72   74 1    
   143   72  148 1    
   144   73  149 1    
   145   73  150 1    
   146   73  151 1    
   147   74   75 am   BACKBONE|DICT|INTERRES
   148   74  152 1    
   149   75   76 2    
   150   75   77 1    
   151   77   78 1    
   152   77   79 1    
   153   77  153 1    
   154   78  154 1    
   155   78  155 1    
   156   78  156 1    
   157   79   80 am   BACKBONE|DICT|INTERRES
   158   79  157 1    
   159   80   81 2    
@<TRIPOS>SUBSTRUCTURE
     1 UNK         1 GROUP             0       ****    0 ROOT    
