@<TRIPOS>MOLECULE
3R207
157   159    1
SMALL
USER_CHARGES


@<TRIPOS>ATOM
      1 CA        -46.8931  -28.8434   10.2181 C.3       0 UNK        -0.1975 
      2 C         -47.6897  -28.3925    9.0040 C.2       0 UNK         0.4852 
      3 O         -47.5950  -27.2281    8.6157 O.2       0 UNK        -0.5216 
      4 N         -48.4628  -29.3099    8.4041 N.am      1 UNK        -0.4461 
      5 CA        -49.3592  -29.0961    7.2562 C.3       1 UNK         0.0864 
      6 C6        -50.5806  -28.1963    7.5876 C.3       14 UNK        -0.0898 
      7 S7        -51.5901  -28.8850    8.9439 S.3       14 UNK        -0.2598 
      8 C8        -51.3607  -27.6329   10.2429 C.3       14 UNK         0.0286 
      9 C9        -52.4013  -26.5269   10.1443 C.ar      14 UNK        -0.0844 
     10 C10       -52.1950  -25.4264    9.3067 C.ar      14 UNK        -0.0881 
     11 C11       -53.1365  -24.3931    9.2443 C.ar      14 UNK        -0.0643 
     12 C12       -54.2928  -24.4706   10.0256 C.ar      14 UNK        -0.0930 
     13 C13       -54.5173  -25.5715   10.8558 C.ar      14 UNK        -0.0827 
     14 C14       -53.5687  -26.5964   10.9103 C.ar      14 UNK        -0.1249 
     15 C15       -55.7794  -25.6428   11.7034 C.3       14 UNK         0.0141 
     16 S16       -57.2540  -26.0528   10.7139 S.3       14 UNK        -0.2313 
     17 C17       -56.9511  -27.8062   10.3140 C.3       14 UNK        -0.0915 
     18 CA        -57.5017  -28.7735   11.4028 C.3       13 UNK         0.0968 
     19 C         -58.9623  -29.2466   11.1455 C.2       13 UNK         0.5732 
     20 N         -59.3164  -30.4904   11.4499 N.am      13 UNK        -0.7310 
     21 O         -59.7978  -28.4778   10.6760 O.2       13 UNK        -0.5035 
     22 N         -56.5669  -29.8826   11.6468 N.am      13 UNK        -0.4233 
     23 C         -55.6191  -29.8916   12.5886 C.2       13 UNK         0.4989 
     24 O         -55.4064  -28.9621   13.3713 O.2       13 UNK        -0.4996 
     25 CA        -54.7261  -31.1416   12.6376 C.3       12 UNK         0.0216 
     26 CB        -53.4485  -30.9137   11.8124 C.3       12 UNK        -0.1964 
     27 N         -54.3525  -31.4675   14.0130 N.am      12 UNK        -0.4276 
     28 C         -55.1800  -31.9259   14.9584 C.2       12 UNK         0.5020 
     29 O         -56.3471  -32.2555   14.7410 O.2       12 UNK        -0.5489 
     30 CA        -54.6255  -32.0208   16.3942 C.3       11 UNK         0.0294 
     31 CB        -53.7588  -33.2830   16.5755 C.3       11 UNK        -0.2019 
     32 N         -53.9291  -30.8093   16.8630 N.am      11 UNK        -0.4493 
     33 C         -52.7861  -30.2749   16.4123 C.2       11 UNK         0.4932 
     34 O         -52.1022  -30.7613   15.5062 O.2       11 UNK        -0.5029 
     35 CA        -52.3340  -28.9677   17.0711 C.3       10 UNK         0.0280 
     36 CB        -51.5275  -29.2367   18.3538 C.3       10 UNK        -0.1976 
     37 N         -51.5125  -28.2582   16.0987 N.am      10 UNK        -0.4242 
     38 C         -51.3195  -26.9394   16.0308 C.2       10 UNK         0.5072 
     39 O         -51.7668  -26.1276   16.8452 O.2       10 UNK        -0.5224 
     40 CA        -50.5355  -26.4536   14.8010 C.3       9 UNK         0.0343 
     41 CB        -51.4957  -26.1457   13.6431 C.3       9 UNK        -0.2003 
     42 N         -49.7294  -25.2661   15.0718 N.am      9 UNK        -0.4272 
     43 C         -48.6463  -25.2330   15.8598 C.2       9 UNK         0.4988 
     44 O         -48.2315  -26.2100   16.4861 O.2       9 UNK        -0.5108 
     45 CA        -47.8669  -23.9076   15.9472 C.3       8 UNK         0.0248 
     46 CB        -46.3915  -24.1191   15.5619 C.3       8 UNK        -0.2001 
     47 N         -48.4265  -22.8723   15.0730 N.am      8 UNK        -0.4140 
     48 C         -49.0564  -21.7656   15.4903 C.2       8 UNK         0.5028 
     49 O         -49.2509  -21.4956   16.6763 O.2       8 UNK        -0.5428 
     50 CA        -49.5433  -20.7725   14.4165 C.3       7 UNK         0.0264 
     51 CB        -48.5941  -19.5654   14.3361 C.3       7 UNK        -0.1988 
     52 N         -49.6816  -21.3567   13.0794 N.am      7 UNK        -0.4454 
     53 C         -50.6505  -22.2092   12.7160 C.2       7 UNK         0.5027 
     54 O         -51.5420  -22.5883   13.4752 O.2       7 UNK        -0.5083 
     55 CA        -50.5948  -22.7539   11.2737 C.3       6 UNK         0.0844 
     56 C56       -51.4156  -21.8477   10.3190 C.3       14 UNK        -0.0967 
     57 S57       -51.3202  -22.3766    8.5712 S.3       14 UNK        -0.2604 
     58 C58       -52.9247  -23.1999    8.3208 C.3       14 UNK         0.0134 
     59 N         -49.2307  -22.9810   10.7791 N.am      6 UNK        -0.4116 
     60 C         -48.2910  -23.7558   11.3351 C.2       5 UNK         0.5034 
     61 O         -48.4037  -24.2696   12.4482 O.2       5 UNK        -0.5045 
     62 CA        -47.0184  -23.9967   10.5005 C.3       5 UNK         0.0224 
     63 CB        -46.0913  -25.0541   11.1274 C.3       5 UNK        -0.1978 
     64 N         -47.3327  -24.4039    9.1278 N.am      5 UNK        -0.4737 
     65 C         -47.6515  -23.5749    8.1249 C.2       4 UNK         0.5027 
     66 O         -47.7608  -22.3561    8.2695 O.2       4 UNK        -0.5211 
     67 CA        -47.8837  -24.2259    6.7475 C.3       4 UNK         0.0297 
     68 CB        -47.9828  -23.2022    5.5977 C.3       4 UNK        -0.1993 
     69 N         -46.8828  -25.2590    6.4589 N.am      4 UNK        -0.4486 
     70 C         -45.5502  -25.1074    6.3839 C.2       3 UNK         0.4961 
     71 O         -44.9759  -24.0182    6.4038 O.2       3 UNK        -0.5105 
     72 CA        -44.6977  -26.3881    6.3135 C.3       3 UNK         0.0299 
     73 CB        -44.0413  -26.6597    7.6779 C.3       3 UNK        -0.1972 
     74 N         -45.4648  -27.5699    5.9163 N.am      3 UNK        -0.4305 
     75 C         -45.8117  -27.8672    4.6566 C.2       2 UNK         0.5006 
     76 O         -45.4648  -27.2090    3.6753 O.2       2 UNK        -0.5106 
     77 CA        -46.7063  -29.1045    4.4560 C.3       2 UNK         0.0296 
     78 CB        -45.8493  -30.3415    4.1407 C.3       2 UNK        -0.2002 
     79 N         -47.5784  -29.3961    5.6005 N.am      2 UNK        -0.4032 
     80 C         -48.5835  -28.6091    6.0136 C.2       1 UNK         0.5000 
     81 O         -48.8669  -27.5336    5.4815 O.2       1 UNK        -0.5238 
     82 H82       -45.8561  -28.5209   10.1299 H         1 UNK         0.0889 
     83 H83       -46.9016  -29.9272   10.3312 H         1 UNK         0.0889 
     84 H84       -47.3121  -28.4033   11.1223 H         1 UNK         0.0889 
     85 H85       -48.4845  -30.2453    8.7862 H         1 UNK         0.3028 
     86 H86       -49.7503  -30.0794    6.9891 H         1 UNK         0.0864 
     87 H87       -51.2308  -28.0990    6.7164 H         1 UNK         0.0720 
     88 H88       -50.2521  -27.1861    7.8324 H         1 UNK         0.0720 
     89 H89       -50.3535  -27.2150   10.1992 H         1 UNK         0.0814 
     90 H90       -51.4355  -28.1272   11.2122 H         1 UNK         0.0814 
     91 H91       -51.2964  -25.3618    8.7102 H         1 UNK         0.1469 
     92 H92       -55.0289  -23.6794    9.9822 H         1 UNK         0.1381 
     93 H93       -53.7385  -27.4482   11.5550 H         1 UNK         0.1206 
     94 H94       -55.6665  -26.3717   12.5072 H         1 UNK         0.0813 
     95 H95       -55.9393  -24.6794   12.1896 H         1 UNK         0.0813 
     96 H96       -57.3851  -28.0216    9.3360 H         1 UNK         0.0638 
     97 H97       -55.8782  -27.9422   10.1779 H         1 UNK         0.0638 
     98 H98       -57.5878  -28.2188   12.3389 H         1 UNK         0.0568 
     99 H99       -60.2665  -30.7817   11.2813 H         1 UNK         0.3450 
    100 H100      -58.6698  -31.1228   11.8934 H         1 UNK         0.3450 
    101 H101      -56.6678  -30.6788   11.0333 H         1 UNK         0.2987 
    102 H102      -55.2715  -31.9909   12.2207 H         1 UNK         0.0766 
    103 H103      -53.6871  -30.6778   10.7742 H         1 UNK         0.0798 
    104 H104      -52.8158  -31.8014   11.8051 H         1 UNK         0.0798 
    105 H105      -52.8578  -30.0850   12.2054 H         1 UNK         0.0798 
    106 H106      -53.4206  -31.1959   14.3188 H         1 UNK         0.3198 
    107 H107      -55.4911  -32.1296   17.0502 H         1 UNK         0.0843 
    108 H108      -52.8724  -33.2693   15.9407 H         1 UNK         0.0831 
    109 H109      -54.3237  -34.1803   16.3194 H         1 UNK         0.0831 
    110 H110      -53.4292  -33.3922   17.6086 H         1 UNK         0.0831 
    111 H111      -54.4159  -30.3042   17.5917 H         1 UNK         0.3133 
    112 H112      -53.2161  -28.3679   17.3054 H         1 UNK         0.0566 
    113 H113      -50.6395  -29.8372   18.1516 H         1 UNK         0.0814 
    114 H114      -52.1267  -29.7754   19.0888 H         1 UNK         0.0814 
    115 H115      -51.2023  -28.3067   18.8205 H         1 UNK         0.0814 
    116 H116      -51.1538  -28.8594   15.3658 H         1 UNK         0.3091 
    117 H117      -49.8558  -27.2473   14.4833 H         1 UNK         0.0702 
    118 H118      -50.9515  -25.8618   12.7420 H         1 UNK         0.0785 
    119 H119      -52.1802  -25.3329   13.8898 H         1 UNK         0.0785 
    120 H120      -52.1028  -27.0178   13.3990 H         1 UNK         0.0785 
    121 H121      -50.0142  -24.4151   14.6097 H         1 UNK         0.2998 
    122 H122      -47.9025  -23.5885   16.9906 H         1 UNK         0.0697 
    123 H123      -46.2936  -24.4907   14.5413 H         1 UNK         0.0825 
    124 H124      -45.9119  -24.8441   16.2208 H         1 UNK         0.0825 
    125 H125      -45.8245  -23.1912   15.6377 H         1 UNK         0.0825 
    126 H126      -48.3498  -23.0539   14.0772 H         1 UNK         0.3029 
    127 H127      -50.5252  -20.4130   14.7331 H         1 UNK         0.0897 
    128 H128      -47.5939  -19.8580   14.0139 H         1 UNK         0.0792 
    129 H129      -48.4937  -19.0819   15.3091 H         1 UNK         0.0792 
    130 H130      -48.9659  -18.8124   13.6408 H         1 UNK         0.0792 
    131 H131      -48.9851  -21.1006   12.3940 H         1 UNK         0.3086 
    132 H132      -51.0740  -23.7340   11.2983 H         1 UNK         0.0583 
    133 H133      -52.4617  -21.8152   10.6307 H         1 UNK         0.1020 
    134 H134      -51.0563  -20.8178   10.3672 H         1 UNK         0.1020 
    135 H135      -53.7190  -22.4622    8.4458 H         1 UNK         0.0694 
    136 H136      -52.9840  -23.5433    7.2873 H         1 UNK         0.0694 
    137 H137      -49.0287  -22.6005    9.8601 H         1 UNK         0.2989 
    138 H138      -46.4722  -23.0512   10.4718 H         1 UNK         0.1055 
    139 H139      -45.1952  -25.2045   10.5253 H         1 UNK         0.0806 
    140 H140      -46.5931  -26.0164   11.2295 H         1 UNK         0.0806 
    141 H141      -45.7639  -24.7488   12.1217 H         1 UNK         0.0806 
    142 H142      -47.3312  -25.4054    8.9379 H         1 UNK         0.3061 
    143 H143      -48.8426  -24.7427    6.8134 H         1 UNK         0.0734 
    144 H144      -47.0765  -22.6029    5.5071 H         1 UNK         0.0832 
    145 H145      -48.1577  -23.6959    4.6419 H         1 UNK         0.0832 
    146 H146      -48.8118  -22.5129    5.7636 H         1 UNK         0.0832 
    147 H147      -47.2469  -26.2044    6.4519 H         1 UNK         0.3156 
    148 H148      -43.9052  -26.2196    5.5810 H         1 UNK         0.0589 
    149 H149      -43.3946  -27.5366    7.6420 H         1 UNK         0.0808 
    150 H150      -43.4235  -25.8159    7.9882 H         1 UNK         0.0808 
    151 H151      -44.7852  -26.8199    8.4591 H         1 UNK         0.0808 
    152 H152      -45.7990  -28.1648    6.6600 H         1 UNK         0.3098 
    153 H153      -47.3462  -28.9049    3.5937 H         1 UNK         0.0720 
    154 H154      -45.2089  -30.1621    3.2758 H         1 UNK         0.0791 
    155 H155      -46.4705  -31.2063    3.9063 H         1 UNK         0.0791 
    156 H156      -45.2007  -30.6087    4.9760 H         1 UNK         0.0791 
    157 H157      -47.4012  -30.2556    6.1009 H         1 UNK         0.3028 
@<TRIPOS>BOND
     1    1    2 1    
     2    1   82 1    
     3    1   83 1    
     4    1   84 1    
     5    2    3 2    
     6    2    4 am   BACKBONE|DICT|INTERRES
     7    4    5 1    
     8    4   85 1    
     9    5    6 1    
    10    5   80 1    
    11    5   86 1    
    12    6    7 1    
    13    6   87 1    
    14    6   88 1    
    15    7    8 1    
    16    8    9 1    
    17    8   89 1    
    18    8   90 1    
    19    9   10 ar   
    20    9   14 ar   
    21   10   11 ar   
    22   10   91 1    
    23   11   12 ar   
    24   11   58 1    
    25   12   13 ar   
    26   12   92 1    
    27   13   14 ar   
    28   13   15 1    
    29   14   93 1    
    30   15   16 1    
    31   15   94 1    
    32   15   95 1    
    33   16   17 1    
    34   17   18 1    
    35   17   96 1    
    36   17   97 1    
    37   18   19 1    
    38   18   22 1    
    39   18   98 1    
    40   19   20 am   BACKBONE|DICT|INTERRES
    41   19   21 2    
    42   20   99 1    
    43   20  100 1    
    44   22   23 am   BACKBONE|DICT|INTERRES
    45   22  101 1    
    46   23   24 2    
    47   23   25 1    
    48   25   26 1    
    49   25   27 1    
    50   25  102 1    
    51   26  103 1    
    52   26  104 1    
    53   26  105 1    
    54   27   28 am   BACKBONE|DICT|INTERRES
    55   27  106 1    
    56   28   29 2    
    57   28   30 1    
    58   30   31 1    
    59   30   32 1    
    60   30  107 1    
    61   31  108 1    
    62   31  109 1    
    63   31  110 1    
    64   32   33 am   BACKBONE|DICT|INTERRES
    65   32  111 1    
    66   33   34 2    
    67   33   35 1    
    68   35   36 1    
    69   35   37 1    
    70   35  112 1    
    71   36  113 1    
    72   36  114 1    
    73   36  115 1    
    74   37   38 am   BACKBONE|DICT|INTERRES
    75   37  116 1    
    76   38   39 2    
    77   38   40 1    
    78   40   41 1    
    79   40   42 1    
    80   40  117 1    
    81   41  118 1    
    82   41  119 1    
    83   41  120 1    
    84   42   43 am   BACKBONE|DICT|INTERRES
    85   42  121 1    
    86   43   44 2    
    87   43   45 1    
    88   45   46 1    
    89   45   47 1    
    90   45  122 1    
    91   46  123 1    
    92   46  124 1    
    93   46  125 1    
    94   47   48 am   BACKBONE|DICT|INTERRES
    95   47  126 1    
    96   48   49 2    
    97   48   50 1    
    98   50   51 1    
    99   50   52 1    
   100   50  127 1    
   101   51  128 1    
   102   51  129 1    
   103   51  130 1    
   104   52   53 am   BACKBONE|DICT|INTERRES
   105   52  131 1    
   106   53   54 2    
   107   53   55 1    
   108   55   56 1    
   109   55   59 1    
   110   55  132 1    
   111   56   57 1    
   112   56  133 1    
   113   56  134 1    
   114   57   58 1    
   115   58  135 1    
   116   58  136 1    
   117   59   60 am   BACKBONE|DICT|INTERRES
   118   59  137 1    
   119   60   61 2    
   120   60   62 1    
   121   62   63 1    
   122   62   64 1    
   123   62  138 1    
   124   63  139 1    
   125   63  140 1    
   126   63  141 1    
   127   64   65 am   BACKBONE|DICT|INTERRES
   128   64  142 1    
   129   65   66 2    
   130   65   67 1    
   131   67   68 1    
   132   67   69 1    
   133   67  143 1    
   134   68  144 1    
   135   68  145 1    
   136   68  146 1    
   137   69   70 am   BACKBONE|DICT|INTERRES
   138   69  147 1    
   139   70   71 2    
   140   70   72 1    
   141   72   73 1    
   142   72   74 1    
   143   72  148 1    
   144   73  149 1    
   145   73  150 1    
   146   73  151 1    
   147   74   75 am   BACKBONE|DICT|INTERRES
   148   74  152 1    
   149   75   76 2    
   150   75   77 1    
   151   77   78 1    
   152   77   79 1    
   153   77  153 1    
   154   78  154 1    
   155   78  155 1    
   156   78  156 1    
   157   79   80 am   BACKBONE|DICT|INTERRES
   158   79  157 1    
   159   80   81 2    
@<TRIPOS>SUBSTRUCTURE
     1 UNK         1 GROUP             0       ****    0 ROOT    
