@<TRIPOS>MOLECULE
3R207
157   159    1
SMALL
USER_CHARGES


@<TRIPOS>ATOM
      1 CA        -52.8232  -29.1613    9.7030 C.3       0 UNK        -0.1975 
      2 C         -51.6982  -29.8751    8.9779 C.2       0 UNK         0.4852 
      3 O         -51.1664  -30.8666    9.4775 O.2       0 UNK        -0.5216 
      4 N         -51.3325  -29.3695    7.7949 N.am      1 UNK        -0.4461 
      5 CA        -50.3413  -29.9656    6.8889 C.3       1 UNK         0.0864 
      6 C6        -50.5911  -29.5720    5.4085 C.3       14 UNK        -0.0898 
      7 S7        -52.3040  -29.8987    4.8562 S.3       14 UNK        -0.2598 
      8 C8        -52.9342  -28.2245    4.5011 C.3       14 UNK         0.0286 
      9 C9        -53.1575  -27.4081    5.7670 C.ar      14 UNK        -0.0844 
     10 C10       -52.1448  -26.5768    6.2515 C.ar      14 UNK        -0.0881 
     11 C11       -52.3328  -25.8380    7.4203 C.ar      14 UNK        -0.0643 
     12 C12       -53.5618  -25.8896    8.0809 C.ar      14 UNK        -0.0930 
     13 C13       -54.5893  -26.7110    7.6048 C.ar      14 UNK        -0.0827 
     14 C14       -54.3774  -27.4734    6.4497 C.ar      14 UNK        -0.1249 
     15 C15       -55.9306  -26.7636    8.3277 C.3       14 UNK         0.0141 
     16 S16       -55.7481  -27.1742   10.0936 S.3       14 UNK        -0.2313 
     17 C17       -57.4882  -27.2450   10.6369 C.3       14 UNK        -0.0915 
     18 CA        -58.0017  -28.6477   11.0821 C.3       13 UNK         0.0968 
     19 C         -58.1189  -29.6894    9.9255 C.2       13 UNK         0.5732 
     20 N         -57.9270  -30.9795   10.1682 N.am      13 UNK        -0.7310 
     21 O         -58.4492  -29.3309    8.7974 O.2       13 UNK        -0.5035 
     22 N         -57.4210  -29.1012   12.3632 N.am      13 UNK        -0.4233 
     23 C         -56.2338  -29.6836   12.5810 C.2       13 UNK         0.4989 
     24 O         -55.4468  -30.0336   11.7009 O.2       13 UNK        -0.4996 
     25 CA        -55.8974  -29.9882   14.0498 C.3       12 UNK         0.0216 
     26 CB        -56.3810  -31.3977   14.4307 C.3       12 UNK        -0.1964 
     27 N         -54.4569  -29.8927   14.2972 N.am      12 UNK        -0.4276 
     28 C         -53.7839  -28.7410   14.4062 C.2       12 UNK         0.5020 
     29 O         -54.3138  -27.6274   14.3563 O.2       12 UNK        -0.5489 
     30 CA        -52.2605  -28.8586   14.5886 C.3       11 UNK         0.0294 
     31 CB        -51.5403  -28.8603   13.2308 C.3       11 UNK        -0.2019 
     32 N         -51.7378  -27.7591   15.3978 N.am      11 UNK        -0.4493 
     33 C         -51.8644  -27.6656   16.7277 C.2       11 UNK         0.4932 
     34 O         -52.4166  -28.5185   17.4261 O.2       11 UNK        -0.5029 
     35 CA        -51.2397  -26.4145   17.3741 C.3       10 UNK         0.0280 
     36 CB        -51.2271  -26.4604   18.9168 C.3       10 UNK        -0.1976 
     37 N         -49.9021  -26.1364   16.8405 N.am      10 UNK        -0.4242 
     38 C         -48.8079  -26.9120   16.9076 C.2       10 UNK         0.5072 
     39 O         -48.7491  -27.9779   17.5220 O.2       10 UNK        -0.5224 
     40 CA        -47.5617  -26.4278   16.1405 C.3       9 UNK         0.0343 
     41 CB        -47.4228  -27.1959   14.8149 C.3       9 UNK        -0.2003 
     42 N         -47.5746  -24.9922   15.8518 N.am      9 UNK        -0.4272 
     43 C         -47.4541  -24.0159   16.7622 C.2       9 UNK         0.4988 
     44 O         -47.2291  -24.2106   17.9569 O.2       9 UNK        -0.5108 
     45 CA        -47.6586  -22.5809   16.2523 C.3       8 UNK         0.0248 
     46 CB        -46.3563  -22.0194   15.6577 C.3       8 UNK        -0.2001 
     47 N         -48.7319  -22.5088   15.2561 N.am      8 UNK        -0.4140 
     48 C         -50.0399  -22.5654   15.5457 C.2       8 UNK         0.5028 
     49 O         -50.4844  -22.6379   16.6912 O.2       8 UNK        -0.5428 
     50 CA        -51.0221  -22.5594   14.3615 C.3       7 UNK         0.0264 
     51 CB        -51.3573  -21.1180   13.9459 C.3       7 UNK        -0.1988 
     52 N         -50.5283  -23.3000   13.1979 N.am      7 UNK        -0.4454 
     53 C         -50.4244  -24.6357   13.1387 C.2       7 UNK         0.5027 
     54 O         -50.7451  -25.3906   14.0575 O.2       7 UNK        -0.5083 
     55 CA        -49.8342  -25.2308   11.8450 C.3       6 UNK         0.0844 
     56 C56       -50.9441  -25.4457   10.7847 C.3       14 UNK        -0.0967 
     57 S57       -50.2615  -26.0242    9.1901 S.3       14 UNK        -0.2604 
     58 C58       -51.1857  -25.0235    7.9854 C.3       14 UNK         0.0134 
     59 N         -48.7015  -24.4778   11.2948 N.am      6 UNK        -0.4116 
     60 C         -47.5887  -24.0833   11.9246 C.2       5 UNK         0.5034 
     61 O         -47.4219  -24.1805   13.1397 O.2       5 UNK        -0.5045 
     62 CA        -46.4642  -23.4919   11.0563 C.3       5 UNK         0.0224 
     63 CB        -45.1267  -24.1927   11.3527 C.3       5 UNK        -0.1978 
     64 N         -46.7445  -23.6028    9.6189 N.am      5 UNK        -0.4737 
     65 C         -47.2913  -22.6373    8.8642 C.2       4 UNK         0.5027 
     66 O         -47.6422  -21.5491    9.3201 O.2       4 UNK        -0.5211 
     67 CA        -47.4831  -22.9199    7.3608 C.3       4 UNK         0.0297 
     68 CB        -47.0826  -21.7126    6.4931 C.3       4 UNK        -0.1993 
     69 N         -46.7158  -24.0911    6.9362 N.am      4 UNK        -0.4486 
     70 C         -47.1912  -25.1232    6.2304 C.2       3 UNK         0.4961 
     71 O         -48.3208  -25.1687    5.7427 O.2       3 UNK        -0.5105 
     72 CA        -46.2586  -26.3386    6.0650 C.3       3 UNK         0.0299 
     73 CB        -44.7566  -26.0115    6.2329 C.3       3 UNK        -0.1972 
     74 N         -46.6578  -27.4276    6.9629 N.am      3 UNK        -0.4305 
     75 C         -46.7763  -27.3771    8.2984 C.2       2 UNK         0.5006 
     76 O         -46.4801  -26.3900    8.9755 O.2       2 UNK        -0.5106 
     77 CA        -47.3461  -28.6351    8.9808 C.3       2 UNK         0.0296 
     78 CB        -47.4721  -28.4721   10.5081 C.3       2 UNK        -0.2002 
     79 N         -48.6576  -28.9949    8.4342 N.am      2 UNK        -0.4032 
     80 C         -48.8772  -29.6810    7.3034 C.2       1 UNK         0.5000 
     81 O         -47.9600  -30.0705    6.5769 O.2       1 UNK        -0.5238 
     82 H82       -53.0264  -29.6290   10.6645 H         1 UNK         0.0889 
     83 H83       -53.7382  -29.2068    9.1131 H         1 UNK         0.0889 
     84 H84       -52.5752  -28.1151    9.8758 H         1 UNK         0.0889 
     85 H85       -51.8197  -28.5588    7.4328 H         1 UNK         0.3028 
     86 H86       -50.4563  -31.0501    6.9507 H         1 UNK         0.0864 
     87 H87       -50.3329  -28.5279    5.2335 H         1 UNK         0.0720 
     88 H88       -49.9328  -30.1469    4.7543 H         1 UNK         0.0720 
     89 H89       -53.8747  -28.3147    3.9554 H         1 UNK         0.0814 
     90 H90       -52.2464  -27.7093    3.8286 H         1 UNK         0.0814 
     91 H91       -51.1971  -26.5143    5.7340 H         1 UNK         0.1469 
     92 H92       -53.7103  -25.3106    8.9821 H         1 UNK         0.1381 
     93 H93       -55.1640  -28.1145    6.0754 H         1 UNK         0.1206 
     94 H94       -56.5884  -27.4983    7.8612 H         1 UNK         0.0813 
     95 H95       -56.4236  -25.7954    8.2317 H         1 UNK         0.0813 
     96 H96       -58.1279  -26.8463    9.8477 H         1 UNK         0.0638 
     97 H97       -57.5943  -26.5449   11.4667 H         1 UNK         0.0638 
     98 H98       -59.0483  -28.4879   11.3433 H         1 UNK         0.0568 
     99 H99       -58.0254  -31.6428    9.4164 H         1 UNK         0.3450 
    100 H100      -57.6248  -31.2851   11.0787 H         1 UNK         0.3450 
    101 H101      -58.0007  -28.9143   13.1684 H         1 UNK         0.2987 
    102 H102      -56.4056  -29.2617   14.6881 H         1 UNK         0.0766 
    103 H103      -56.1715  -31.6201   15.4773 H         1 UNK         0.0798 
    104 H104      -55.9045  -32.1673   13.8217 H         1 UNK         0.0798 
    105 H105      -57.4587  -31.4936   14.2914 H         1 UNK         0.0798 
    106 H106      -53.9422  -30.7614   14.2965 H         1 UNK         0.3198 
    107 H107      -52.0346  -29.7960   15.1020 H         1 UNK         0.0843 
    108 H108      -51.8038  -29.7472   12.6545 H         1 UNK         0.0831 
    109 H109      -50.4567  -28.8663   13.3515 H         1 UNK         0.0831 
    110 H110      -51.8073  -27.9878   12.6350 H         1 UNK         0.0831 
    111 H111      -51.3367  -26.9692   14.8967 H         1 UNK         0.3133 
    112 H112      -51.8648  -25.5717   17.0751 H         1 UNK         0.0566 
    113 H113      -50.7903  -25.5538   19.3356 H         1 UNK         0.0814 
    114 H114      -52.2401  -26.5448   19.3118 H         1 UNK         0.0814 
    115 H115      -50.6603  -27.3119   19.2945 H         1 UNK         0.0814 
    116 H116      -49.8392  -25.3118   16.2589 H         1 UNK         0.3091 
    117 H117      -46.6877  -26.6417   16.7590 H         1 UNK         0.0702 
    118 H118      -46.5242  -26.8980   14.2741 H         1 UNK         0.0785 
    119 H119      -48.2783  -27.0253   14.1606 H         1 UNK         0.0785 
    120 H120      -47.3559  -28.2704   14.9902 H         1 UNK         0.0785 
    121 H121      -47.6744  -24.7255   14.8742 H         1 UNK         0.2998 
    122 H122      -47.9364  -21.9584   17.1058 H         1 UNK         0.0697 
    123 H123      -46.0145  -22.5995   14.7999 H         1 UNK         0.0825 
    124 H124      -45.5550  -22.0326   16.3978 H         1 UNK         0.0825 
    125 H125      -46.4811  -20.9856   15.3353 H         1 UNK         0.0825 
    126 H126      -48.4486  -22.5256   14.2858 H         1 UNK         0.3029 
    127 H127      -51.9444  -23.0378   14.6997 H         1 UNK         0.0897 
    128 H128      -52.1176  -21.0968   13.1649 H         1 UNK         0.0792 
    129 H129      -51.7488  -20.5501   14.7913 H         1 UNK         0.0792 
    130 H130      -50.4794  -20.5869   13.5757 H         1 UNK         0.0792 
    131 H131      -50.2360  -22.7578   12.3975 H         1 UNK         0.3086 
    132 H132      -49.4391  -26.2120   12.1122 H         1 UNK         0.0583 
    133 H133      -51.6751  -26.1760   11.1337 H         1 UNK         0.1020 
    134 H134      -51.5011  -24.5204   10.6288 H         1 UNK         0.1020 
    135 H135      -51.5497  -24.0954    8.4270 H         1 UNK         0.0694 
    136 H136      -50.5095  -24.7271    7.1833 H         1 UNK         0.0694 
    137 H137      -48.7144  -24.3739   10.2908 H         1 UNK         0.2989 
    138 H138      -46.3647  -22.4410   11.3369 H         1 UNK         0.1055 
    139 H139      -44.8467  -24.0806   12.4011 H         1 UNK         0.0806 
    140 H140      -44.3174  -23.7708   10.7568 H         1 UNK         0.0806 
    141 H141      -45.1768  -25.2618   11.1416 H         1 UNK         0.0806 
    142 H142      -46.5721  -24.5213    9.2113 H         1 UNK         0.3061 
    143 H143      -48.5503  -23.1038    7.2223 H         1 UNK         0.0734 
    144 H144      -47.6725  -20.8309    6.7471 H         1 UNK         0.0832 
    145 H145      -46.0317  -21.4530    6.6257 H         1 UNK         0.0832 
    146 H146      -47.2474  -21.9147    5.4347 H         1 UNK         0.0832 
    147 H147      -45.7759  -24.1615    7.3011 H         1 UNK         0.3156 
    148 H148      -46.4046  -26.7034    5.0472 H         1 UNK         0.0589 
    149 H149      -44.4992  -25.7210    7.2518 H         1 UNK         0.0808 
    150 H150      -44.1428  -26.8757    5.9787 H         1 UNK         0.0808 
    151 H151      -44.4540  -25.2009    5.5684 H         1 UNK         0.0808 
    152 H152      -46.9612  -28.2858    6.5132 H         1 UNK         0.3098 
    153 H153      -46.6459  -29.4512    8.7911 H         1 UNK         0.0720 
    154 H154      -46.5043  -28.2500   10.9596 H         1 UNK         0.0791 
    155 H155      -47.8470  -29.3823   10.9764 H         1 UNK         0.0791 
    156 H156      -48.1464  -27.6576   10.7704 H         1 UNK         0.0791 
    157 H157      -49.4634  -28.6561    8.9402 H         1 UNK         0.3028 
@<TRIPOS>BOND
     1    1    2 1    
     2    1   82 1    
     3    1   83 1    
     4    1   84 1    
     5    2    3 2    
     6    2    4 am   BACKBONE|DICT|INTERRES
     7    4    5 1    
     8    4   85 1    
     9    5    6 1    
    10    5   80 1    
    11    5   86 1    
    12    6    7 1    
    13    6   87 1    
    14    6   88 1    
    15    7    8 1    
    16    8    9 1    
    17    8   89 1    
    18    8   90 1    
    19    9   10 ar   
    20    9   14 ar   
    21   10   11 ar   
    22   10   91 1    
    23   11   12 ar   
    24   11   58 1    
    25   12   13 ar   
    26   12   92 1    
    27   13   14 ar   
    28   13   15 1    
    29   14   93 1    
    30   15   16 1    
    31   15   94 1    
    32   15   95 1    
    33   16   17 1    
    34   17   18 1    
    35   17   96 1    
    36   17   97 1    
    37   18   19 1    
    38   18   22 1    
    39   18   98 1    
    40   19   20 am   BACKBONE|DICT|INTERRES
    41   19   21 2    
    42   20   99 1    
    43   20  100 1    
    44   22   23 am   BACKBONE|DICT|INTERRES
    45   22  101 1    
    46   23   24 2    
    47   23   25 1    
    48   25   26 1    
    49   25   27 1    
    50   25  102 1    
    51   26  103 1    
    52   26  104 1    
    53   26  105 1    
    54   27   28 am   BACKBONE|DICT|INTERRES
    55   27  106 1    
    56   28   29 2    
    57   28   30 1    
    58   30   31 1    
    59   30   32 1    
    60   30  107 1    
    61   31  108 1    
    62   31  109 1    
    63   31  110 1    
    64   32   33 am   BACKBONE|DICT|INTERRES
    65   32  111 1    
    66   33   34 2    
    67   33   35 1    
    68   35   36 1    
    69   35   37 1    
    70   35  112 1    
    71   36  113 1    
    72   36  114 1    
    73   36  115 1    
    74   37   38 am   BACKBONE|DICT|INTERRES
    75   37  116 1    
    76   38   39 2    
    77   38   40 1    
    78   40   41 1    
    79   40   42 1    
    80   40  117 1    
    81   41  118 1    
    82   41  119 1    
    83   41  120 1    
    84   42   43 am   BACKBONE|DICT|INTERRES
    85   42  121 1    
    86   43   44 2    
    87   43   45 1    
    88   45   46 1    
    89   45   47 1    
    90   45  122 1    
    91   46  123 1    
    92   46  124 1    
    93   46  125 1    
    94   47   48 am   BACKBONE|DICT|INTERRES
    95   47  126 1    
    96   48   49 2    
    97   48   50 1    
    98   50   51 1    
    99   50   52 1    
   100   50  127 1    
   101   51  128 1    
   102   51  129 1    
   103   51  130 1    
   104   52   53 am   BACKBONE|DICT|INTERRES
   105   52  131 1    
   106   53   54 2    
   107   53   55 1    
   108   55   56 1    
   109   55   59 1    
   110   55  132 1    
   111   56   57 1    
   112   56  133 1    
   113   56  134 1    
   114   57   58 1    
   115   58  135 1    
   116   58  136 1    
   117   59   60 am   BACKBONE|DICT|INTERRES
   118   59  137 1    
   119   60   61 2    
   120   60   62 1    
   121   62   63 1    
   122   62   64 1    
   123   62  138 1    
   124   63  139 1    
   125   63  140 1    
   126   63  141 1    
   127   64   65 am   BACKBONE|DICT|INTERRES
   128   64  142 1    
   129   65   66 2    
   130   65   67 1    
   131   67   68 1    
   132   67   69 1    
   133   67  143 1    
   134   68  144 1    
   135   68  145 1    
   136   68  146 1    
   137   69   70 am   BACKBONE|DICT|INTERRES
   138   69  147 1    
   139   70   71 2    
   140   70   72 1    
   141   72   73 1    
   142   72   74 1    
   143   72  148 1    
   144   73  149 1    
   145   73  150 1    
   146   73  151 1    
   147   74   75 am   BACKBONE|DICT|INTERRES
   148   74  152 1    
   149   75   76 2    
   150   75   77 1    
   151   77   78 1    
   152   77   79 1    
   153   77  153 1    
   154   78  154 1    
   155   78  155 1    
   156   78  156 1    
   157   79   80 am   BACKBONE|DICT|INTERRES
   158   79  157 1    
   159   80   81 2    
@<TRIPOS>SUBSTRUCTURE
     1 UNK         1 GROUP             0       ****    0 ROOT    
