@<TRIPOS>MOLECULE
3R207
157   159    1
SMALL
USER_CHARGES


@<TRIPOS>ATOM
      1 CA        -51.4607  -27.8841    2.4281 C.3       0 UNK        -0.1975 
      2 C         -50.3411  -28.5818    3.1944 C.2       0 UNK         0.4852 
      3 O         -49.9150  -29.6609    2.7871 O.2       0 UNK        -0.5216 
      4 N         -49.8248  -28.0190    4.2958 N.am      1 UNK        -0.4461 
      5 CA        -50.1989  -26.7351    4.9101 C.3       1 UNK         0.0864 
      6 C6        -50.8762  -26.9252    6.2927 C.3       14 UNK        -0.0898 
      7 S7        -52.4911  -27.7617    6.1507 S.3       14 UNK        -0.2598 
      8 C8        -52.0923  -29.4530    6.6959 C.3       14 UNK         0.0286 
      9 C9        -51.8264  -29.5176    8.1924 C.ar      14 UNK        -0.0844 
     10 C10       -50.5458  -29.7998    8.6765 C.ar      14 UNK        -0.0881 
     11 C11       -50.3033  -29.8565   10.0521 C.ar      14 UNK        -0.0643 
     12 C12       -51.3556  -29.6253   10.9469 C.ar      14 UNK        -0.0930 
     13 C13       -52.6418  -29.3420   10.4724 C.ar      14 UNK        -0.0827 
     14 C14       -52.8701  -29.2998    9.0950 C.ar      14 UNK        -0.1249 
     15 C15       -53.7843  -29.0438   11.4327 C.3       14 UNK         0.0141 
     16 S16       -54.4574  -30.5541   12.1942 S.3       14 UNK        -0.2313 
     17 C17       -56.2581  -30.2863   12.0196 C.3       14 UNK        -0.0915 
     18 CA        -56.9178  -29.5191   13.2039 C.3       13 UNK         0.0968 
     19 C         -57.0518  -30.3832   14.4885 C.2       13 UNK         0.5732 
     20 N         -56.5706  -29.9680   15.6509 N.am      13 UNK        -0.7310 
     21 O         -57.6487  -31.4565   14.4383 O.2       13 UNK        -0.5035 
     22 N         -56.3598  -28.1632   13.3767 N.am      13 UNK        -0.4233 
     23 C         -56.6817  -27.1378   12.5718 C.2       13 UNK         0.4989 
     24 O         -57.5644  -27.2102   11.7141 O.2       13 UNK        -0.4996 
     25 CA        -55.8557  -25.8370   12.6653 C.3       12 UNK         0.0216 
     26 CB        -56.6349  -24.5937   12.1832 C.3       12 UNK        -0.1964 
     27 N         -55.2313  -25.5876   13.9653 N.am      12 UNK        -0.4276 
     28 C         -55.8372  -25.3636   15.1387 C.2       12 UNK         0.5020 
     29 O         -57.0604  -25.3483   15.2908 O.2       12 UNK        -0.5489 
     30 CA        -54.9016  -25.1339   16.3454 C.3       11 UNK         0.0294 
     31 CB        -55.6336  -25.2562   17.6984 C.3       11 UNK        -0.2019 
     32 N         -53.7084  -25.9928   16.3346 N.am      11 UNK        -0.4493 
     33 C         -53.6869  -27.3334   16.2652 C.2       11 UNK         0.4932 
     34 O         -54.7068  -28.0120   16.1525 O.2       11 UNK        -0.5029 
     35 CA        -52.3270  -28.0581   16.2900 C.3       10 UNK         0.0280 
     36 CB        -52.2122  -29.0435   15.1144 C.3       10 UNK        -0.1976 
     37 N         -51.1739  -27.1561   16.2682 N.am      10 UNK        -0.4242 
     38 C         -50.6763  -26.5114   17.3317 C.2       10 UNK         0.5072 
     39 O         -51.1102  -26.6396   18.4770 O.2       10 UNK        -0.5224 
     40 CA        -49.5244  -25.5258   17.0668 C.3       9 UNK         0.0343 
     41 CB        -48.1791  -26.2672   17.0186 C.3       9 UNK        -0.2003 
     42 N         -49.7006  -24.7398   15.8401 N.am      9 UNK        -0.4272 
     43 C         -50.7132  -23.8871   15.6168 C.2       9 UNK         0.4988 
     44 O         -51.6104  -23.6612   16.4295 O.2       9 UNK        -0.5108 
     45 CA        -50.7652  -23.2098   14.2360 C.3       8 UNK         0.0248 
     46 CB        -49.7028  -22.1054   14.1162 C.3       8 UNK        -0.2001 
     47 N         -50.6142  -24.1687   13.1407 N.am      8 UNK        -0.4140 
     48 C         -51.4641  -25.1762   12.8953 C.2       8 UNK         0.5028 
     49 O         -52.5155  -25.3590   13.5082 O.2       8 UNK        -0.5428 
     50 CA        -51.0442  -26.1921   11.8288 C.3       7 UNK         0.0264 
     51 CB        -51.4173  -25.7260   10.4131 C.3       7 UNK        -0.1988 
     52 N         -49.6200  -26.5091   11.9022 N.am      7 UNK        -0.4454 
     53 C         -49.0482  -27.1975   12.9022 C.2       7 UNK         0.5027 
     54 O         -49.6673  -27.6446   13.8660 O.2       7 UNK        -0.5083 
     55 CA        -47.5173  -27.3739   12.8422 C.3       6 UNK         0.0844 
     56 C56       -47.0761  -28.6463   12.0739 C.3       14 UNK        -0.0967 
     57 S57       -47.7393  -28.8131   10.3743 S.3       14 UNK        -0.2604 
     58 C58       -48.9112  -30.2024   10.5620 C.3       14 UNK         0.0134 
     59 N         -46.8496  -26.1597   12.3680 N.am      6 UNK        -0.4116 
     60 C         -46.8287  -25.0075   13.0549 C.2       5 UNK         0.5034 
     61 O         -47.3446  -24.8582   14.1624 O.2       5 UNK        -0.5045 
     62 CA        -46.1581  -23.8048   12.3791 C.3       5 UNK         0.0224 
     63 CB        -44.6423  -23.8176   12.6299 C.3       5 UNK        -0.1978 
     64 N         -46.4144  -23.7267   10.9403 N.am      5 UNK        -0.4737 
     65 C         -47.6123  -23.5852   10.3633 C.2       4 UNK         0.5027 
     66 O         -48.6697  -23.5723   10.9941 O.2       4 UNK        -0.5211 
     67 CA        -47.6399  -23.4283    8.8313 C.3       4 UNK         0.0297 
     68 CB        -47.1886  -22.0149    8.4186 C.3       4 UNK        -0.1993 
     69 N         -46.9112  -24.4552    8.0701 N.am      4 UNK        -0.4486 
     70 C         -45.6042  -24.7695    8.0848 C.2       3 UNK         0.4961 
     71 O         -44.7667  -24.2281    8.8073 O.2       3 UNK        -0.5105 
     72 CA        -45.1417  -25.8803    7.1234 C.3       3 UNK         0.0299 
     73 CB        -45.2288  -27.2516    7.8119 C.3       3 UNK        -0.1972 
     74 N         -45.9014  -25.9169    5.8718 N.am      3 UNK        -0.4305 
     75 C         -45.9020  -24.9438    4.9490 C.2       2 UNK         0.5006 
     76 O         -45.1740  -23.9516    5.0016 O.2       2 UNK        -0.5106 
     77 CA        -46.8843  -25.0830    3.7703 C.3       2 UNK         0.0296 
     78 CB        -46.1451  -25.5756    2.5150 C.3       2 UNK        -0.2002 
     79 N         -48.0503  -25.9459    4.0064 N.am      2 UNK        -0.4032 
     80 C         -48.9731  -25.7979    4.9719 C.2       1 UNK         0.5000 
     81 O         -48.8760  -24.9697    5.8795 O.2       1 UNK        -0.5238 
     82 H82       -51.8004  -28.5039    1.5986 H         1 UNK         0.0889 
     83 H83       -51.1159  -26.9364    2.0156 H         1 UNK         0.0889 
     84 H84       -52.3184  -27.6992    3.0741 H         1 UNK         0.0889 
     85 H85       -49.0882  -28.5175    4.7754 H         1 UNK         0.3028 
     86 H86       -50.9065  -26.1968    4.2792 H         1 UNK         0.0864 
     87 H87       -51.0705  -25.9615    6.7673 H         1 UNK         0.0720 
     88 H88       -50.2226  -27.4696    6.9756 H         1 UNK         0.0720 
     89 H89       -51.2410  -29.8292    6.1269 H         1 UNK         0.0814 
     90 H90       -52.9319  -30.1068    6.4558 H         1 UNK         0.0814 
     91 H91       -49.7330  -29.9764    7.9854 H         1 UNK         0.1469 
     92 H92       -51.1749  -29.6620   12.0127 H         1 UNK         0.1381 
     93 H93       -53.8598  -29.0787    8.7188 H         1 UNK         0.1206 
     94 H94       -53.4532  -28.3724   12.2226 H         1 UNK         0.0813 
     95 H95       -54.5697  -28.5042   10.9031 H         1 UNK         0.0813 
     96 H96       -56.4538  -29.7657   11.0815 H         1 UNK         0.0638 
     97 H97       -56.7274  -31.2636   11.8946 H         1 UNK         0.0638 
     98 H98       -57.9644  -29.3817   12.9252 H         1 UNK         0.0568 
     99 H99       -56.0092  -29.1252   15.7484 H         1 UNK         0.3450 
    100 H100      -56.7022  -30.5575   16.4563 H         1 UNK         0.3450 
    101 H101      -55.6622  -28.0451   14.0996 H         1 UNK         0.2987 
    102 H102      -55.0234  -25.9776   11.9741 H         1 UNK         0.0766 
    103 H103      -57.5287  -24.4192   12.7829 H         1 UNK         0.0798 
    104 H104      -56.0179  -23.6964   12.2305 H         1 UNK         0.0798 
    105 H105      -56.9563  -24.7070   11.1471 H         1 UNK         0.0798 
    106 H106      -54.2086  -25.5585   13.9475 H         1 UNK         0.3198 
    107 H107      -54.5386  -24.1088   16.2552 H         1 UNK         0.0843 
    108 H108      -56.0625  -26.2494   17.8361 H         1 UNK         0.0831 
    109 H109      -56.4499  -24.5363   17.7691 H         1 UNK         0.0831 
    110 H110      -54.9595  -25.0627   18.5328 H         1 UNK         0.0831 
    111 H111      -52.8230  -25.5009   16.3687 H         1 UNK         0.3133 
    112 H112      -52.2969  -28.6390   17.2138 H         1 UNK         0.0566 
    113 H113      -51.2841  -29.6131   15.1640 H         1 UNK         0.0814 
    114 H114      -53.0317  -29.7636   15.1113 H         1 UNK         0.0814 
    115 H115      -52.2301  -28.5212   14.1590 H         1 UNK         0.0814 
    116 H116      -50.7103  -27.0462   15.3695 H         1 UNK         0.3091 
    117 H117      -49.4945  -24.8235   17.9024 H         1 UNK         0.0702 
    118 H118      -47.3463  -25.5706   16.9194 H         1 UNK         0.0785 
    119 H119      -48.1329  -26.9643   16.1814 H         1 UNK         0.0785 
    120 H120      -48.0153  -26.8407   17.9319 H         1 UNK         0.0785 
    121 H121      -48.9782  -24.8407   15.1309 H         1 UNK         0.2998 
    122 H122      -51.7482  -22.7458   14.1311 H         1 UNK         0.0697 
    123 H123      -48.6914  -22.5010   14.2078 H         1 UNK         0.0825 
    124 H124      -49.8313  -21.3556   14.8979 H         1 UNK         0.0825 
    125 H125      -49.7731  -21.5908   13.1576 H         1 UNK         0.0825 
    126 H126      -49.8021  -24.0639   12.5384 H         1 UNK         0.3029 
    127 H127      -51.5927  -27.1081   12.0369 H         1 UNK         0.0897 
    128 H128      -51.1901  -26.4946    9.6731 H         1 UNK         0.0792 
    129 H129      -50.8880  -24.8166   10.1283 H         1 UNK         0.0792 
    130 H130      -52.4858  -25.5185   10.3425 H         1 UNK         0.0792 
    131 H131      -49.0338  -26.1553   11.1607 H         1 UNK         0.3086 
    132 H132      -47.1883  -27.5145   13.8745 H         1 UNK         0.0583 
    133 H133      -45.9871  -28.6713   12.0093 H         1 UNK         0.1020 
    134 H134      -47.3330  -29.5277   12.6628 H         1 UNK         0.1020 
    135 H135      -48.5263  -31.0592   10.0070 H         1 UNK         0.0694 
    136 H136      -48.9746  -30.5268   11.6008 H         1 UNK         0.0694 
    137 H137      -46.4175  -26.1956   11.4567 H         1 UNK         0.2989 
    138 H138      -46.5734  -22.9036   12.8351 H         1 UNK         0.1055 
    139 H139      -44.4226  -23.8635   13.6976 H         1 UNK         0.0806 
    140 H140      -44.1695  -22.9151   12.2419 H         1 UNK         0.0806 
    141 H141      -44.1609  -24.6758   12.1591 H         1 UNK         0.0806 
    142 H142      -45.6102  -23.7742   10.3154 H         1 UNK         0.3061 
    143 H143      -48.6839  -23.5349    8.5311 H         1 UNK         0.0734 
    144 H144      -46.1418  -21.8319    8.6629 H         1 UNK         0.0832 
    145 H145      -47.3134  -21.8593    7.3468 H         1 UNK         0.0832 
    146 H146      -47.7794  -21.2525    8.9281 H         1 UNK         0.0832 
    147 H147      -47.4913  -24.9402    7.3921 H         1 UNK         0.3156 
    148 H148      -44.0957  -25.6881    6.8755 H         1 UNK         0.0589 
    149 H149      -46.2594  -27.5221    8.0438 H         1 UNK         0.0808 
    150 H150      -44.8082  -28.0385    7.1855 H         1 UNK         0.0808 
    151 H151      -44.6722  -27.2555    8.7503 H         1 UNK         0.0808 
    152 H152      -46.5134  -26.7065    5.7310 H         1 UNK         0.3098 
    153 H153      -47.2685  -24.0815    3.5657 H         1 UNK         0.0720 
    154 H154      -46.7939  -25.5612    1.6389 H         1 UNK         0.0791 
    155 H155      -45.7703  -26.5922    2.6406 H         1 UNK         0.0791 
    156 H156      -45.2886  -24.9385    2.2890 H         1 UNK         0.0791 
    157 H157      -48.2098  -26.6703    3.3210 H         1 UNK         0.3028 
@<TRIPOS>BOND
     1    1    2 1    
     2    1   82 1    
     3    1   83 1    
     4    1   84 1    
     5    2    3 2    
     6    2    4 am   BACKBONE|DICT|INTERRES
     7    4    5 1    
     8    4   85 1    
     9    5    6 1    
    10    5   80 1    
    11    5   86 1    
    12    6    7 1    
    13    6   87 1    
    14    6   88 1    
    15    7    8 1    
    16    8    9 1    
    17    8   89 1    
    18    8   90 1    
    19    9   10 ar   
    20    9   14 ar   
    21   10   11 ar   
    22   10   91 1    
    23   11   12 ar   
    24   11   58 1    
    25   12   13 ar   
    26   12   92 1    
    27   13   14 ar   
    28   13   15 1    
    29   14   93 1    
    30   15   16 1    
    31   15   94 1    
    32   15   95 1    
    33   16   17 1    
    34   17   18 1    
    35   17   96 1    
    36   17   97 1    
    37   18   19 1    
    38   18   22 1    
    39   18   98 1    
    40   19   20 am   BACKBONE|DICT|INTERRES
    41   19   21 2    
    42   20   99 1    
    43   20  100 1    
    44   22   23 am   BACKBONE|DICT|INTERRES
    45   22  101 1    
    46   23   24 2    
    47   23   25 1    
    48   25   26 1    
    49   25   27 1    
    50   25  102 1    
    51   26  103 1    
    52   26  104 1    
    53   26  105 1    
    54   27   28 am   BACKBONE|DICT|INTERRES
    55   27  106 1    
    56   28   29 2    
    57   28   30 1    
    58   30   31 1    
    59   30   32 1    
    60   30  107 1    
    61   31  108 1    
    62   31  109 1    
    63   31  110 1    
    64   32   33 am   BACKBONE|DICT|INTERRES
    65   32  111 1    
    66   33   34 2    
    67   33   35 1    
    68   35   36 1    
    69   35   37 1    
    70   35  112 1    
    71   36  113 1    
    72   36  114 1    
    73   36  115 1    
    74   37   38 am   BACKBONE|DICT|INTERRES
    75   37  116 1    
    76   38   39 2    
    77   38   40 1    
    78   40   41 1    
    79   40   42 1    
    80   40  117 1    
    81   41  118 1    
    82   41  119 1    
    83   41  120 1    
    84   42   43 am   BACKBONE|DICT|INTERRES
    85   42  121 1    
    86   43   44 2    
    87   43   45 1    
    88   45   46 1    
    89   45   47 1    
    90   45  122 1    
    91   46  123 1    
    92   46  124 1    
    93   46  125 1    
    94   47   48 am   BACKBONE|DICT|INTERRES
    95   47  126 1    
    96   48   49 2    
    97   48   50 1    
    98   50   51 1    
    99   50   52 1    
   100   50  127 1    
   101   51  128 1    
   102   51  129 1    
   103   51  130 1    
   104   52   53 am   BACKBONE|DICT|INTERRES
   105   52  131 1    
   106   53   54 2    
   107   53   55 1    
   108   55   56 1    
   109   55   59 1    
   110   55  132 1    
   111   56   57 1    
   112   56  133 1    
   113   56  134 1    
   114   57   58 1    
   115   58  135 1    
   116   58  136 1    
   117   59   60 am   BACKBONE|DICT|INTERRES
   118   59  137 1    
   119   60   61 2    
   120   60   62 1    
   121   62   63 1    
   122   62   64 1    
   123   62  138 1    
   124   63  139 1    
   125   63  140 1    
   126   63  141 1    
   127   64   65 am   BACKBONE|DICT|INTERRES
   128   64  142 1    
   129   65   66 2    
   130   65   67 1    
   131   67   68 1    
   132   67   69 1    
   133   67  143 1    
   134   68  144 1    
   135   68  145 1    
   136   68  146 1    
   137   69   70 am   BACKBONE|DICT|INTERRES
   138   69  147 1    
   139   70   71 2    
   140   70   72 1    
   141   72   73 1    
   142   72   74 1    
   143   72  148 1    
   144   73  149 1    
   145   73  150 1    
   146   73  151 1    
   147   74   75 am   BACKBONE|DICT|INTERRES
   148   74  152 1    
   149   75   76 2    
   150   75   77 1    
   151   77   78 1    
   152   77   79 1    
   153   77  153 1    
   154   78  154 1    
   155   78  155 1    
   156   78  156 1    
   157   79   80 am   BACKBONE|DICT|INTERRES
   158   79  157 1    
   159   80   81 2    
@<TRIPOS>SUBSTRUCTURE
     1 UNK         1 GROUP             0       ****    0 ROOT    
