@<TRIPOS>MOLECULE
3R207
157   159    1
SMALL
USER_CHARGES


@<TRIPOS>ATOM
      1 CA        -48.3183  -28.7146    2.5921 C.3       0 UNK        -0.1975 
      2 C         -48.3482  -29.5779    3.8506 C.2       0 UNK         0.4852 
      3 O         -47.9553  -30.7414    3.7938 O.2       0 UNK        -0.5216 
      4 N         -48.8023  -29.0679    5.0051 N.am      1 UNK        -0.4461 
      5 CA        -49.2681  -27.6947    5.2451 C.3       1 UNK         0.0864 
      6 C6        -50.2199  -27.6142    6.4645 C.3       14 UNK        -0.0898 
      7 S7        -51.8546  -28.3587    6.1272 S.3       14 UNK        -0.2598 
      8 C8        -51.6643  -30.1022    6.6260 C.3       14 UNK         0.0286 
      9 C9        -51.4138  -30.2567    8.1178 C.ar      14 UNK        -0.0844 
     10 C10       -50.1129  -30.4237    8.5959 C.ar      14 UNK        -0.0881 
     11 C11       -49.8665  -30.5462    9.9642 C.ar      14 UNK        -0.0643 
     12 C12       -50.9398  -30.5228   10.8620 C.ar      14 UNK        -0.0930 
     13 C13       -52.2531  -30.3902   10.3935 C.ar      14 UNK        -0.0827 
     14 C14       -52.4813  -30.2547    9.0198 C.ar      14 UNK        -0.1249 
     15 C15       -53.4291  -30.4290   11.3621 C.3       14 UNK         0.0141 
     16 S16       -54.3808  -28.8785   11.3495 S.3       14 UNK        -0.2313 
     17 C17       -55.6229  -29.2366   12.6308 C.3       14 UNK        -0.0915 
     18 CA        -56.5759  -28.0370   12.8798 C.3       13 UNK         0.0968 
     19 C         -57.7785  -28.4439   13.7836 C.2       13 UNK         0.5732 
     20 N         -58.0429  -27.7882   14.9080 N.am      13 UNK        -0.7310 
     21 O         -58.5086  -29.3726   13.4441 O.2       13 UNK        -0.5035 
     22 N         -55.8442  -26.8474   13.3408 N.am      13 UNK        -0.4233 
     23 C         -56.2724  -25.5859   13.2141 C.2       13 UNK         0.4989 
     24 O         -57.2931  -25.2699   12.5993 O.2       13 UNK        -0.4996 
     25 CA        -55.4238  -24.5006   13.9113 C.3       12 UNK         0.0216 
     26 CB        -56.1573  -23.1485   14.0378 C.3       12 UNK        -0.1964 
     27 N         -54.9005  -24.9276   15.2186 N.am      12 UNK        -0.4276 
     28 C         -55.6177  -25.3653   16.2648 C.2       12 UNK         0.5020 
     29 O         -56.8487  -25.4322   16.2701 O.2       12 UNK        -0.5489 
     30 CA        -54.8204  -25.8427   17.4949 C.3       11 UNK         0.0294 
     31 CB        -55.6981  -26.5941   18.5182 C.3       11 UNK        -0.2019 
     32 N         -53.6439  -26.6505   17.1508 N.am      11 UNK        -0.4493 
     33 C         -53.5953  -27.7678   16.4096 C.2       11 UNK         0.4932 
     34 O         -54.5866  -28.2777   15.8870 O.2       11 UNK        -0.5029 
     35 CA        -52.2091  -28.4259   16.2211 C.3       10 UNK         0.0280 
     36 CB        -52.1993  -29.4308   15.0535 C.3       10 UNK        -0.1976 
     37 N         -51.1318  -27.4520   16.0138 N.am      10 UNK        -0.4242 
     38 C         -50.5596  -26.6950   16.9604 C.2       10 UNK         0.5072 
     39 O         -50.8426  -26.7750   18.1562 O.2       10 UNK        -0.5224 
     40 CA        -49.5694  -25.6123   16.4955 C.3       9 UNK         0.0343 
     41 CB        -48.1600  -26.2002   16.3314 C.3       9 UNK        -0.2003 
     42 N         -49.9817  -24.9420   15.2573 N.am      9 UNK        -0.4272 
     43 C         -51.1258  -24.2546   15.1031 C.2       9 UNK         0.4988 
     44 O         -51.9582  -24.0814   15.9947 O.2       9 UNK        -0.5108 
     45 CA        -51.4230  -23.7130   13.6969 C.3       8 UNK         0.0248 
     46 CB        -50.5938  -22.4523   13.4061 C.3       8 UNK        -0.2001 
     47 N         -51.1991  -24.7156   12.6534 N.am      8 UNK        -0.4140 
     48 C         -51.8356  -25.8947   12.5738 C.2       8 UNK         0.5028 
     49 O         -52.7413  -26.2378   13.3329 O.2       8 UNK        -0.5428 
     50 CA        -51.3322  -26.8815   11.5108 C.3       7 UNK         0.0264 
     51 CB        -51.8154  -26.4994   10.1023 C.3       7 UNK        -0.1988 
     52 N         -49.8764  -27.0077   11.5269 N.am      7 UNK        -0.4454 
     53 C         -49.1736  -27.5450   12.5357 C.2       7 UNK         0.5027 
     54 O         -49.6855  -28.0389   13.5392 O.2       7 UNK        -0.5083 
     55 CA        -47.6360  -27.4747   12.4372 C.3       6 UNK         0.0844 
     56 C56       -47.0027  -28.7923   11.9348 C.3       14 UNK        -0.0967 
     57 S57       -47.4298  -29.2385   10.2146 S.3       14 UNK        -0.2604 
     58 C58       -48.4383  -30.7423   10.4485 C.3       14 UNK         0.0134 
     59 N         -47.1838  -26.3024   11.6853 N.am      6 UNK        -0.4116 
     60 C         -47.2920  -25.0477   12.1420 C.2       5 UNK         0.5034 
     61 O         -47.7610  -24.7537   13.2429 O.2       5 UNK        -0.5045 
     62 CA        -46.8418  -23.9366   11.1884 C.3       5 UNK         0.0224 
     63 CB        -45.3130  -23.9232   11.0258 C.3       5 UNK        -0.1978 
     64 N         -47.4785  -24.0246    9.8721 N.am      5 UNK        -0.4737 
     65 C         -48.7804  -23.7929    9.6432 C.2       4 UNK         0.5027 
     66 O         -49.6046  -23.6750   10.5485 O.2       4 UNK        -0.5211 
     67 CA        -49.2570  -23.6718    8.1772 C.3       4 UNK         0.0297 
     68 CB        -50.3643  -22.6111    8.0140 C.3       4 UNK        -0.1993 
     69 N         -48.1774  -23.4480    7.2073 N.am      4 UNK        -0.4486 
     70 C         -47.2663  -22.4609    7.1936 C.2       3 UNK         0.4961 
     71 O         -47.3328  -21.4587    7.9066 O.2       3 UNK        -0.5105 
     72 CA        -46.0430  -22.6497    6.2663 C.3       3 UNK         0.0299 
     73 CB        -44.7486  -22.1064    6.9079 C.3       3 UNK        -0.1972 
     74 N         -45.8349  -24.0329    5.8062 N.am      3 UNK        -0.4305 
     75 C         -45.6742  -25.1370    6.5548 C.2       2 UNK         0.5006 
     76 O         -45.6487  -25.1433    7.7877 O.2       2 UNK        -0.5106 
     77 CA        -45.6107  -26.4682    5.7824 C.3       2 UNK         0.0296 
     78 CB        -44.5479  -27.4047    6.3838 C.3       2 UNK        -0.2002 
     79 N         -46.8925  -27.1868    5.7208 N.am      2 UNK        -0.4032 
     80 C         -48.0994  -26.6950    5.3889 C.2       1 UNK         0.5000 
     81 O         -48.3195  -25.5054    5.1610 O.2       1 UNK        -0.5238 
     82 H82       -47.9300  -29.2853    1.7488 H         1 UNK         0.0889 
     83 H83       -47.6755  -27.8455    2.7244 H         1 UNK         0.0889 
     84 H84       -49.3201  -28.3782    2.3272 H         1 UNK         0.0889 
     85 H85       -48.8204  -29.6748    5.8100 H         1 UNK         0.3028 
     86 H86       -49.8370  -27.3647    4.3739 H         1 UNK         0.0864 
     87 H87       -50.4213  -26.5722    6.7185 H         1 UNK         0.0720 
     88 H88       -49.7672  -28.0483    7.3555 H         1 UNK         0.0720 
     89 H89       -50.8672  -30.5701    6.0481 H         1 UNK         0.0814 
     90 H90       -52.5756  -30.6387    6.3577 H         1 UNK         0.0814 
     91 H91       -49.2816  -30.4498    7.9060 H         1 UNK         0.1469 
     92 H92       -50.7535  -30.6232   11.9227 H         1 UNK         0.1381 
     93 H93       -53.4928  -30.1431    8.6535 H         1 UNK         0.1206 
     94 H94       -53.0847  -30.6277   12.3777 H         1 UNK         0.0813 
     95 H95       -54.0869  -31.2558   11.0907 H         1 UNK         0.0813 
     96 H96       -55.1112  -29.5172   13.5525 H         1 UNK         0.0638 
     97 H97       -56.1828  -30.1157   12.3065 H         1 UNK         0.0638 
     98 H98       -57.0237  -27.7853   11.9167 H         1 UNK         0.0568 
     99 H99       -58.8318  -28.0737   15.4645 H         1 UNK         0.3450 
    100 H100      -57.4721  -27.0069   15.2135 H         1 UNK         0.3450 
    101 H101      -54.9914  -27.0241   13.8574 H         1 UNK         0.2987 
    102 H102      -54.5630  -24.3414   13.2634 H         1 UNK         0.0766 
    103 H103      -55.5222  -22.3959   14.5049 H         1 UNK         0.0798 
    104 H104      -57.0673  -23.2363   14.6323 H         1 UNK         0.0798 
    105 H105      -56.4445  -22.7652   13.0579 H         1 UNK         0.0798 
    106 H106      -53.8896  -24.9473   15.3038 H         1 UNK         0.3198 
    107 H107      -54.4425  -24.9407   17.9787 H         1 UNK         0.0843 
    108 H108      -56.1409  -27.4920   18.0855 H         1 UNK         0.0831 
    109 H109      -56.5167  -25.9647   18.8696 H         1 UNK         0.0831 
    110 H110      -55.1216  -26.8923   19.3938 H         1 UNK         0.0831 
    111 H111      -52.7633  -26.3289   17.5386 H         1 UNK         0.3133 
    112 H112      -51.9971  -28.9811   17.1368 H         1 UNK         0.0566 
    113 H113      -51.2285  -29.9163   14.9543 H         1 UNK         0.0814 
    114 H114      -52.9400  -30.2178   15.1999 H         1 UNK         0.0814 
    115 H115      -52.4250  -28.9388   14.1063 H         1 UNK         0.0814 
    116 H116      -50.8174  -27.3424   15.0543 H         1 UNK         0.3091 
    117 H117      -49.5279  -24.8480   17.2743 H         1 UNK         0.0702 
    118 H118      -47.4443  -25.4412   16.0145 H         1 UNK         0.0785 
    119 H119      -48.1438  -27.0066   15.5993 H         1 UNK         0.0785 
    120 H120      -47.7999  -26.6127   17.2748 H         1 UNK         0.0785 
    121 H121      -49.3387  -24.9953   14.4727 H         1 UNK         0.2998 
    122 H122      -52.4759  -23.4312   13.6651 H         1 UNK         0.0697 
    123 H123      -49.5254  -22.6675   13.3714 H         1 UNK         0.0825 
    124 H124      -50.7512  -21.6941   14.1743 H         1 UNK         0.0825 
    125 H125      -50.8733  -22.0083   12.4504 H         1 UNK         0.0825 
    126 H126      -50.4999  -24.4832   11.9499 H         1 UNK         0.3029 
    127 H127      -51.7427  -27.8602   11.7594 H         1 UNK         0.0897 
    128 H128      -51.4156  -25.5403    9.7748 H         1 UNK         0.0792 
    129 H129      -52.9031  -26.4243   10.0753 H         1 UNK         0.0792 
    130 H130      -51.5293  -27.2554    9.3703 H         1 UNK         0.0792 
    131 H131      -49.3717  -26.6205   10.7447 H         1 UNK         0.3086 
    132 H132      -47.2750  -27.3421   13.4588 H         1 UNK         0.0583 
    133 H133      -45.9161  -28.7090   11.9896 H         1 UNK         0.1020 
    134 H134      -47.2523  -29.6045   12.6189 H         1 UNK         0.1020 
    135 H135      -47.9814  -31.5547    9.8816 H         1 UNK         0.0694 
    136 H136      -48.4329  -31.0696   11.4883 H         1 UNK         0.0694 
    137 H137      -46.8026  -26.4652   10.7641 H         1 UNK         0.2989 
    138 H138      -47.1401  -22.9863   11.6375 H         1 UNK         0.1055 
    139 H139      -44.8165  -23.8568   11.9949 H         1 UNK         0.0806 
    140 H140      -44.9881  -23.0652   10.4368 H         1 UNK         0.0806 
    141 H141      -44.9467  -24.8231   10.5302 H         1 UNK         0.0806 
    142 H142      -46.8657  -24.1910    9.0788 H         1 UNK         0.3061 
    143 H143      -49.6889  -24.6404    7.9259 H         1 UNK         0.0734 
    144 H144      -50.0204  -21.6200    8.3111 H         1 UNK         0.0832 
    145 H145      -50.7089  -22.5526    6.9817 H         1 UNK         0.0832 
    146 H146      -51.2320  -22.8509    8.6300 H         1 UNK         0.0832 
    147 H147      -48.0587  -24.1907    6.5214 H         1 UNK         0.3156 
    148 H148      -46.2474  -22.0579    5.3731 H         1 UNK         0.0589 
    149 H149      -44.5165  -22.6178    7.8427 H         1 UNK         0.0808 
    150 H150      -43.8949  -22.2244    6.2406 H         1 UNK         0.0808 
    151 H151      -44.8354  -21.0426    7.1323 H         1 UNK         0.0808 
    152 H152      -45.9078  -24.1607    4.8056 H         1 UNK         0.3098 
    153 H153      -45.3139  -26.2502    4.7547 H         1 UNK         0.0720 
    154 H154      -44.4064  -28.2942    5.7696 H         1 UNK         0.0791 
    155 H155      -44.8195  -27.7303    7.3892 H         1 UNK         0.0791 
    156 H156      -43.5808  -26.9048    6.4544 H         1 UNK         0.0791 
    157 H157      -46.8397  -28.1788    5.8996 H         1 UNK         0.3028 
@<TRIPOS>BOND
     1    1    2 1    
     2    1   82 1    
     3    1   83 1    
     4    1   84 1    
     5    2    3 2    
     6    2    4 am   BACKBONE|DICT|INTERRES
     7    4    5 1    
     8    4   85 1    
     9    5    6 1    
    10    5   80 1    
    11    5   86 1    
    12    6    7 1    
    13    6   87 1    
    14    6   88 1    
    15    7    8 1    
    16    8    9 1    
    17    8   89 1    
    18    8   90 1    
    19    9   10 ar   
    20    9   14 ar   
    21   10   11 ar   
    22   10   91 1    
    23   11   12 ar   
    24   11   58 1    
    25   12   13 ar   
    26   12   92 1    
    27   13   14 ar   
    28   13   15 1    
    29   14   93 1    
    30   15   16 1    
    31   15   94 1    
    32   15   95 1    
    33   16   17 1    
    34   17   18 1    
    35   17   96 1    
    36   17   97 1    
    37   18   19 1    
    38   18   22 1    
    39   18   98 1    
    40   19   20 am   BACKBONE|DICT|INTERRES
    41   19   21 2    
    42   20   99 1    
    43   20  100 1    
    44   22   23 am   BACKBONE|DICT|INTERRES
    45   22  101 1    
    46   23   24 2    
    47   23   25 1    
    48   25   26 1    
    49   25   27 1    
    50   25  102 1    
    51   26  103 1    
    52   26  104 1    
    53   26  105 1    
    54   27   28 am   BACKBONE|DICT|INTERRES
    55   27  106 1    
    56   28   29 2    
    57   28   30 1    
    58   30   31 1    
    59   30   32 1    
    60   30  107 1    
    61   31  108 1    
    62   31  109 1    
    63   31  110 1    
    64   32   33 am   BACKBONE|DICT|INTERRES
    65   32  111 1    
    66   33   34 2    
    67   33   35 1    
    68   35   36 1    
    69   35   37 1    
    70   35  112 1    
    71   36  113 1    
    72   36  114 1    
    73   36  115 1    
    74   37   38 am   BACKBONE|DICT|INTERRES
    75   37  116 1    
    76   38   39 2    
    77   38   40 1    
    78   40   41 1    
    79   40   42 1    
    80   40  117 1    
    81   41  118 1    
    82   41  119 1    
    83   41  120 1    
    84   42   43 am   BACKBONE|DICT|INTERRES
    85   42  121 1    
    86   43   44 2    
    87   43   45 1    
    88   45   46 1    
    89   45   47 1    
    90   45  122 1    
    91   46  123 1    
    92   46  124 1    
    93   46  125 1    
    94   47   48 am   BACKBONE|DICT|INTERRES
    95   47  126 1    
    96   48   49 2    
    97   48   50 1    
    98   50   51 1    
    99   50   52 1    
   100   50  127 1    
   101   51  128 1    
   102   51  129 1    
   103   51  130 1    
   104   52   53 am   BACKBONE|DICT|INTERRES
   105   52  131 1    
   106   53   54 2    
   107   53   55 1    
   108   55   56 1    
   109   55   59 1    
   110   55  132 1    
   111   56   57 1    
   112   56  133 1    
   113   56  134 1    
   114   57   58 1    
   115   58  135 1    
   116   58  136 1    
   117   59   60 am   BACKBONE|DICT|INTERRES
   118   59  137 1    
   119   60   61 2    
   120   60   62 1    
   121   62   63 1    
   122   62   64 1    
   123   62  138 1    
   124   63  139 1    
   125   63  140 1    
   126   63  141 1    
   127   64   65 am   BACKBONE|DICT|INTERRES
   128   64  142 1    
   129   65   66 2    
   130   65   67 1    
   131   67   68 1    
   132   67   69 1    
   133   67  143 1    
   134   68  144 1    
   135   68  145 1    
   136   68  146 1    
   137   69   70 am   BACKBONE|DICT|INTERRES
   138   69  147 1    
   139   70   71 2    
   140   70   72 1    
   141   72   73 1    
   142   72   74 1    
   143   72  148 1    
   144   73  149 1    
   145   73  150 1    
   146   73  151 1    
   147   74   75 am   BACKBONE|DICT|INTERRES
   148   74  152 1    
   149   75   76 2    
   150   75   77 1    
   151   77   78 1    
   152   77   79 1    
   153   77  153 1    
   154   78  154 1    
   155   78  155 1    
   156   78  156 1    
   157   79   80 am   BACKBONE|DICT|INTERRES
   158   79  157 1    
   159   80   81 2    
@<TRIPOS>SUBSTRUCTURE
     1 UNK         1 GROUP             0       ****    0 ROOT    
