@<TRIPOS>MOLECULE
3R207
157   159    1
SMALL
USER_CHARGES


@<TRIPOS>ATOM
      1 CA        -46.1632  -29.2043    5.7421 C.3       0 UNK        -0.1975 
      2 C         -47.2848  -28.1860    5.6110 C.2       0 UNK         0.4852 
      3 O         -47.0824  -27.0137    5.9279 O.2       0 UNK        -0.5216 
      4 N         -48.4582  -28.6252    5.1328 N.am      1 UNK        -0.4461 
      5 CA        -49.6863  -27.8326    4.9583 C.3       1 UNK         0.0864 
      6 C6        -50.3202  -27.3774    6.3014 C.3       14 UNK        -0.0898 
      7 S7        -50.7130  -28.7891    7.3923 S.3       14 UNK        -0.2598 
      8 C8        -49.6215  -28.4747    8.8159 C.3       14 UNK         0.0286 
      9 C9        -50.3229  -27.6697    9.9017 C.ar      14 UNK        -0.0844 
     10 C10       -50.5829  -26.3081    9.7202 C.ar      14 UNK        -0.0881 
     11 C11       -51.1658  -25.5521   10.7420 C.ar      14 UNK        -0.0643 
     12 C12       -51.5256  -26.1753   11.9404 C.ar      14 UNK        -0.0930 
     13 C13       -51.2846  -27.5393   12.1295 C.ar      14 UNK        -0.0827 
     14 C14       -50.6776  -28.2788   11.1098 C.ar      14 UNK        -0.1249 
     15 C15       -51.6541  -28.2037   13.4487 C.3       14 UNK         0.0141 
     16 S16       -52.9221  -29.4992   13.2609 S.3       14 UNK        -0.2313 
     17 C17       -54.2599  -28.6052   12.3940 C.3       14 UNK        -0.0915 
     18 CA        -55.6675  -29.2435   12.5398 C.3       13 UNK         0.0968 
     19 C         -55.7452  -30.6551   11.8854 C.2       13 UNK         0.5732 
     20 N         -55.8204  -30.7175   10.5623 N.am      13 UNK        -0.7310 
     21 O         -55.7121  -31.6876   12.5539 O.2       13 UNK        -0.5035 
     22 N         -56.1497  -29.1884   13.9285 N.am      13 UNK        -0.4233 
     23 C         -57.3888  -29.5173   14.3227 C.2       13 UNK         0.4989 
     24 O         -58.2943  -29.8490   13.5559 O.2       13 UNK        -0.4996 
     25 CA        -57.6827  -29.4243   15.8255 C.3       12 UNK         0.0216 
     26 CB        -56.9047  -30.4919   16.6155 C.3       12 UNK        -0.1964 
     27 N         -57.3460  -28.0905   16.3203 N.am      12 UNK        -0.4276 
     28 C         -58.2130  -27.0728   16.4210 C.2       12 UNK         0.5020 
     29 O         -59.4190  -27.1758   16.1913 O.2       12 UNK        -0.5489 
     30 CA        -57.6556  -25.7026   16.8553 C.3       11 UNK         0.0294 
     31 CB        -57.8646  -25.4925   18.3639 C.3       11 UNK        -0.2019 
     32 N         -56.2373  -25.5233   16.5373 N.am      11 UNK        -0.4493 
     33 C         -55.7435  -25.3883   15.2986 C.2       11 UNK         0.4932 
     34 O         -56.4418  -25.2990   14.2890 O.2       11 UNK        -0.5029 
     35 CA        -54.2103  -25.3823   15.1535 C.3       10 UNK         0.0280 
     36 CB        -53.6792  -23.9443   15.0469 C.3       10 UNK        -0.1976 
     37 N         -53.4798  -26.0876   16.2145 N.am      10 UNK        -0.4242 
     38 C         -53.6274  -27.3785   16.5568 C.2       10 UNK         0.5072 
     39 O         -54.4932  -28.1090   16.0741 O.2       10 UNK        -0.5224 
     40 CA        -52.6492  -27.9504   17.5977 C.3       9 UNK         0.0343 
     41 CB        -52.2462  -29.4018   17.2774 C.3       9 UNK        -0.2003 
     42 N         -51.4496  -27.1195   17.6880 N.am      9 UNK        -0.4272 
     43 C         -50.8031  -26.7605   18.7991 C.2       9 UNK         0.4988 
     44 O         -51.1105  -27.1586   19.9240 O.2       9 UNK        -0.5108 
     45 CA        -49.6258  -25.7738   18.6157 C.3       8 UNK         0.0248 
     46 CB        -48.8197  -25.5719   19.9133 C.3       8 UNK        -0.2001 
     47 N         -48.6963  -26.1276   17.5328 N.am      8 UNK        -0.4140 
     48 C         -48.9438  -26.0690   16.2174 C.2       8 UNK         0.5028 
     49 O         -50.0417  -25.7653   15.7370 O.2       8 UNK        -0.5428 
     50 CA        -47.7851  -26.4490   15.2878 C.3       7 UNK         0.0264 
     51 CB        -47.5563  -27.9706   15.2910 C.3       7 UNK        -0.1988 
     52 N         -48.1234  -26.0268   13.9328 N.am      7 UNK        -0.4454 
     53 C         -47.3431  -25.3256   13.1056 C.2       7 UNK         0.5027 
     54 O         -46.1916  -24.9688   13.3692 O.2       7 UNK        -0.5083 
     55 CA        -47.9961  -24.9325   11.7688 C.3       6 UNK         0.0844 
     56 C56       -48.8679  -23.6575   11.9235 C.3       14 UNK        -0.0967 
     57 S57       -49.7407  -23.1972   10.3833 S.3       14 UNK        -0.2604 
     58 C58       -51.3428  -24.0502   10.5738 C.3       14 UNK         0.0134 
     59 N         -47.0234  -24.8139   10.6833 N.am      6 UNK        -0.4116 
     60 C         -46.3524  -25.8301   10.1292 C.2       5 UNK         0.5034 
     61 O         -46.4421  -27.0012   10.5037 O.2       5 UNK        -0.5045 
     62 CA        -45.4777  -25.4718    8.9131 C.3       5 UNK         0.0224 
     63 CB        -44.6399  -26.6614    8.4094 C.3       5 UNK        -0.1978 
     64 N         -46.3003  -24.9739    7.8081 N.am      5 UNK        -0.4737 
     65 C         -46.7881  -23.7298    7.7070 C.2       4 UNK         0.5027 
     66 O         -46.5715  -22.8509    8.5441 O.2       4 UNK        -0.5211 
     67 CA        -47.6571  -23.4324    6.4694 C.3       4 UNK         0.0297 
     68 CB        -47.9473  -21.9295    6.2752 C.3       4 UNK        -0.1993 
     69 N         -47.1045  -24.0308    5.2496 N.am      4 UNK        -0.4486 
     70 C         -45.9062  -23.7911    4.6917 C.2       3 UNK         0.4961 
     71 O         -45.1295  -22.9159    5.0756 O.2       3 UNK        -0.5105 
     72 CA        -45.4734  -24.6974    3.5233 C.3       3 UNK         0.0299 
     73 CB        -44.3494  -25.6457    3.9754 C.3       3 UNK        -0.1972 
     74 N         -46.5729  -25.4960    2.9779 N.am      3 UNK        -0.4305 
     75 C         -47.4783  -25.0503    2.0960 C.2       2 UNK         0.5006 
     76 O         -47.4453  -23.9297    1.5865 O.2       2 UNK        -0.5106 
     77 CA        -48.6241  -26.0115    1.7260 C.3       2 UNK         0.0296 
     78 CB        -48.2925  -26.7675    0.4290 C.3       2 UNK        -0.2002 
     79 N         -48.9524  -26.9786    2.7808 N.am      2 UNK        -0.4032 
     80 C         -49.4649  -26.6589    3.9790 C.2       1 UNK         0.5000 
     81 O         -49.7038  -25.5005    4.3270 O.2       1 UNK        -0.5238 
     82 H82       -45.2330  -28.7937    5.3508 H         1 UNK         0.0889 
     83 H83       -46.3825  -30.1224    5.1975 H         1 UNK         0.0889 
     84 H84       -46.0103  -29.4582    6.7904 H         1 UNK         0.0889 
     85 H85       -48.5486  -29.6038    4.8965 H         1 UNK         0.3028 
     86 H86       -50.4070  -28.4901    4.4692 H         1 UNK         0.0864 
     87 H87       -49.6581  -26.6765    6.8107 H         1 UNK         0.0720 
     88 H88       -51.2509  -26.8366    6.1204 H         1 UNK         0.0720 
     89 H89       -48.7117  -27.9614    8.4998 H         1 UNK         0.0814 
     90 H90       -49.2948  -29.4365    9.2138 H         1 UNK         0.0814 
     91 H91       -50.2913  -25.8186    8.8027 H         1 UNK         0.1469 
     92 H92       -51.9718  -25.5927   12.7345 H         1 UNK         0.1381 
     93 H93       -50.4797  -29.3310   11.2626 H         1 UNK         0.1206 
     94 H94       -50.7603  -28.6489   13.8868 H         1 UNK         0.0813 
     95 H95       -52.0044  -27.4624   14.1653 H         1 UNK         0.0813 
     96 H96       -54.2911  -27.5799   12.7598 H         1 UNK         0.0638 
     97 H97       -53.9867  -28.5297   11.3399 H         1 UNK         0.0638 
     98 H98       -56.3561  -28.6124   11.9747 H         1 UNK         0.0568 
     99 H99       -55.8604  -31.6211   10.1178 H         1 UNK         0.3450 
    100 H100      -55.8360  -29.8815    9.9996 H         1 UNK         0.3450 
    101 H101      -55.4610  -28.9302   14.6292 H         1 UNK         0.2987 
    102 H102      -58.7477  -29.6166   15.9734 H         1 UNK         0.0766 
    103 H103      -57.1534  -31.4933   16.2616 H         1 UNK         0.0798 
    104 H104      -57.1504  -30.4532   17.6768 H         1 UNK         0.0798 
    105 H105      -55.8251  -30.3736   16.5196 H         1 UNK         0.0798 
    106 H106      -56.3556  -27.9068   16.4546 H         1 UNK         0.3198 
    107 H107      -58.2217  -24.9359   16.3215 H         1 UNK         0.0843 
    108 H108      -57.3126  -26.2242   18.9552 H         1 UNK         0.0831 
    109 H109      -58.9187  -25.5901   18.6279 H         1 UNK         0.0831 
    110 H110      -57.5463  -24.4973   18.6751 H         1 UNK         0.0831 
    111 H111      -55.5856  -25.5709   17.3069 H         1 UNK         0.3133 
    112 H112      -53.9792  -25.8897   14.2175 H         1 UNK         0.0566 
    113 H113      -52.6090  -23.9302   14.8375 H         1 UNK         0.0814 
    114 H114      -53.8503  -23.3816   15.9654 H         1 UNK         0.0814 
    115 H115      -54.1724  -23.4045   14.2371 H         1 UNK         0.0814 
    116 H116      -52.7584  -25.5571   16.6811 H         1 UNK         0.3091 
    117 H117      -53.1771  -27.9381   18.5533 H         1 UNK         0.0702 
    118 H118      -51.5754  -29.8027   18.0372 H         1 UNK         0.0785 
    119 H119      -51.7424  -29.4747   16.3131 H         1 UNK         0.0785 
    120 H120      -53.1189  -30.0553   17.2405 H         1 UNK         0.0785 
    121 H121      -51.0928  -26.7364   16.8124 H         1 UNK         0.2998 
    122 H122      -50.0741  -24.8116   18.3595 H         1 UNK         0.0697 
    123 H123      -48.3462  -26.4980   20.2415 H         1 UNK         0.0825 
    124 H124      -49.4613  -25.2278   20.7259 H         1 UNK         0.0825 
    125 H125      -48.0394  -24.8214   19.7852 H         1 UNK         0.0825 
    126 H126      -47.7797  -26.4327   17.8281 H         1 UNK         0.3029 
    127 H127      -46.8841  -25.9387   15.6356 H         1 UNK         0.0897 
    128 H128      -48.4525  -28.5155   14.9916 H         1 UNK         0.0792 
    129 H129      -47.2723  -28.3277   16.2816 H         1 UNK         0.0792 
    130 H130      -46.7543  -28.2491   14.6069 H         1 UNK         0.0792 
    131 H131      -49.0896  -26.1873   13.6782 H         1 UNK         0.3086 
    132 H132      -48.6421  -25.7661   11.5014 H         1 UNK         0.0583 
    133 H133      -49.6051  -23.7836   12.7192 H         1 UNK         0.1020 
    134 H134      -48.2470  -22.8110   12.2233 H         1 UNK         0.1020 
    135 H135      -51.8780  -23.6202   11.4219 H         1 UNK         0.0694 
    136 H136      -51.9550  -23.8579    9.6916 H         1 UNK         0.0694 
    137 H137      -46.9204  -23.8957   10.2649 H         1 UNK         0.2989 
    138 H138      -44.7862  -24.6861    9.2263 H         1 UNK         0.1055 
    139 H139      -44.0150  -26.3771    7.5625 H         1 UNK         0.0806 
    140 H140      -45.2712  -27.4925    8.0951 H         1 UNK         0.0806 
    141 H141      -43.9779  -27.0323    9.1928 H         1 UNK         0.0806 
    142 H142      -46.5571  -25.6544    7.0938 H         1 UNK         0.3061 
    143 H143      -48.6117  -23.9314    6.6446 H         1 UNK         0.0734 
    144 H144      -47.0314  -21.3509    6.1525 H         1 UNK         0.0832 
    145 H145      -48.5750  -21.7569    5.4011 H         1 UNK         0.0832 
    146 H146      -48.4746  -21.5221    7.1388 H         1 UNK         0.0832 
    147 H147      -47.6613  -24.7829    4.8611 H         1 UNK         0.3156 
    148 H148      -45.0779  -24.0536    2.7347 H         1 UNK         0.0589 
    149 H149      -44.0073  -26.2785    3.1564 H         1 UNK         0.0808 
    150 H150      -43.4849  -25.0832    4.3308 H         1 UNK         0.0808 
    151 H151      -44.6703  -26.2933    4.7920 H         1 UNK         0.0808 
    152 H152      -46.6857  -26.4251    3.3564 H         1 UNK         0.3098 
    153 H153      -49.5125  -25.4018    1.5473 H         1 UNK         0.0720 
    154 H154      -48.0708  -26.0722   -0.3821 H         1 UNK         0.0791 
    155 H155      -49.1303  -27.3843    0.1029 H         1 UNK         0.0791 
    156 H156      -47.4231  -27.4154    0.5488 H         1 UNK         0.0791 
    157 H157      -48.7697  -27.9514    2.5791 H         1 UNK         0.3028 
@<TRIPOS>BOND
     1    1    2 1    
     2    1   82 1    
     3    1   83 1    
     4    1   84 1    
     5    2    3 2    
     6    2    4 am   BACKBONE|DICT|INTERRES
     7    4    5 1    
     8    4   85 1    
     9    5    6 1    
    10    5   80 1    
    11    5   86 1    
    12    6    7 1    
    13    6   87 1    
    14    6   88 1    
    15    7    8 1    
    16    8    9 1    
    17    8   89 1    
    18    8   90 1    
    19    9   10 ar   
    20    9   14 ar   
    21   10   11 ar   
    22   10   91 1    
    23   11   12 ar   
    24   11   58 1    
    25   12   13 ar   
    26   12   92 1    
    27   13   14 ar   
    28   13   15 1    
    29   14   93 1    
    30   15   16 1    
    31   15   94 1    
    32   15   95 1    
    33   16   17 1    
    34   17   18 1    
    35   17   96 1    
    36   17   97 1    
    37   18   19 1    
    38   18   22 1    
    39   18   98 1    
    40   19   20 am   BACKBONE|DICT|INTERRES
    41   19   21 2    
    42   20   99 1    
    43   20  100 1    
    44   22   23 am   BACKBONE|DICT|INTERRES
    45   22  101 1    
    46   23   24 2    
    47   23   25 1    
    48   25   26 1    
    49   25   27 1    
    50   25  102 1    
    51   26  103 1    
    52   26  104 1    
    53   26  105 1    
    54   27   28 am   BACKBONE|DICT|INTERRES
    55   27  106 1    
    56   28   29 2    
    57   28   30 1    
    58   30   31 1    
    59   30   32 1    
    60   30  107 1    
    61   31  108 1    
    62   31  109 1    
    63   31  110 1    
    64   32   33 am   BACKBONE|DICT|INTERRES
    65   32  111 1    
    66   33   34 2    
    67   33   35 1    
    68   35   36 1    
    69   35   37 1    
    70   35  112 1    
    71   36  113 1    
    72   36  114 1    
    73   36  115 1    
    74   37   38 am   BACKBONE|DICT|INTERRES
    75   37  116 1    
    76   38   39 2    
    77   38   40 1    
    78   40   41 1    
    79   40   42 1    
    80   40  117 1    
    81   41  118 1    
    82   41  119 1    
    83   41  120 1    
    84   42   43 am   BACKBONE|DICT|INTERRES
    85   42  121 1    
    86   43   44 2    
    87   43   45 1    
    88   45   46 1    
    89   45   47 1    
    90   45  122 1    
    91   46  123 1    
    92   46  124 1    
    93   46  125 1    
    94   47   48 am   BACKBONE|DICT|INTERRES
    95   47  126 1    
    96   48   49 2    
    97   48   50 1    
    98   50   51 1    
    99   50   52 1    
   100   50  127 1    
   101   51  128 1    
   102   51  129 1    
   103   51  130 1    
   104   52   53 am   BACKBONE|DICT|INTERRES
   105   52  131 1    
   106   53   54 2    
   107   53   55 1    
   108   55   56 1    
   109   55   59 1    
   110   55  132 1    
   111   56   57 1    
   112   56  133 1    
   113   56  134 1    
   114   57   58 1    
   115   58  135 1    
   116   58  136 1    
   117   59   60 am   BACKBONE|DICT|INTERRES
   118   59  137 1    
   119   60   61 2    
   120   60   62 1    
   121   62   63 1    
   122   62   64 1    
   123   62  138 1    
   124   63  139 1    
   125   63  140 1    
   126   63  141 1    
   127   64   65 am   BACKBONE|DICT|INTERRES
   128   64  142 1    
   129   65   66 2    
   130   65   67 1    
   131   67   68 1    
   132   67   69 1    
   133   67  143 1    
   134   68  144 1    
   135   68  145 1    
   136   68  146 1    
   137   69   70 am   BACKBONE|DICT|INTERRES
   138   69  147 1    
   139   70   71 2    
   140   70   72 1    
   141   72   73 1    
   142   72   74 1    
   143   72  148 1    
   144   73  149 1    
   145   73  150 1    
   146   73  151 1    
   147   74   75 am   BACKBONE|DICT|INTERRES
   148   74  152 1    
   149   75   76 2    
   150   75   77 1    
   151   77   78 1    
   152   77   79 1    
   153   77  153 1    
   154   78  154 1    
   155   78  155 1    
   156   78  156 1    
   157   79   80 am   BACKBONE|DICT|INTERRES
   158   79  157 1    
   159   80   81 2    
@<TRIPOS>SUBSTRUCTURE
     1 UNK         1 GROUP             0       ****    0 ROOT    
