@<TRIPOS>MOLECULE
3R207
157   159    1
SMALL
USER_CHARGES


@<TRIPOS>ATOM
      1 CA        -47.1588  -30.8685    2.2456 C.3       0 UNK        -0.1975 
      2 C         -48.4004  -30.1372    2.7340 C.2       0 UNK         0.4852 
      3 O         -48.9228  -29.2775    2.0236 O.2       0 UNK        -0.5216 
      4 N         -48.8763  -30.4745    3.9401 N.am      1 UNK        -0.4461 
      5 CA        -50.0395  -29.8622    4.5958 C.3       1 UNK         0.0864 
      6 C6        -50.5509  -30.7145    5.7846 C.3       14 UNK        -0.0898 
      7 S7        -49.2489  -31.1730    6.9814 S.3       14 UNK        -0.2598 
      8 C8        -50.1475  -32.3606    8.0307 C.3       14 UNK         0.0286 
      9 C9        -51.2654  -31.6930    8.8192 C.ar      14 UNK        -0.0844 
     10 C10       -50.9603  -30.6970    9.7525 C.ar      14 UNK        -0.0881 
     11 C11       -51.9794  -30.0645   10.4668 C.ar      14 UNK        -0.0643 
     12 C12       -53.3003  -30.4714   10.2864 C.ar      14 UNK        -0.0930 
     13 C13       -53.6262  -31.4299    9.3283 C.ar      14 UNK        -0.0827 
     14 C14       -52.6026  -32.0480    8.6012 C.ar      14 UNK        -0.1249 
     15 C15       -55.0879  -31.7558    9.0606 C.3       14 UNK         0.0141 
     16 S16       -55.8970  -30.4382    8.0877 S.3       14 UNK        -0.2313 
     17 C17       -56.4570  -29.2449    9.3608 C.3       14 UNK        -0.0915 
     18 CA        -55.6280  -27.9270    9.4472 C.3       13 UNK         0.0968 
     19 C         -55.6991  -27.0784    8.1532 C.2       13 UNK         0.5732 
     20 N         -54.7205  -27.2009    7.2676 N.am      13 UNK        -0.7310 
     21 O         -56.6409  -26.3144    7.9455 O.2       13 UNK        -0.5035 
     22 N         -56.0457  -27.0931   10.5810 N.am      13 UNK        -0.4233 
     23 C         -55.7916  -27.3316   11.8710 C.2       13 UNK         0.4989 
     24 O         -55.1837  -28.3217   12.2823 O.2       13 UNK        -0.4996 
     25 CA        -56.3448  -26.3072   12.8771 C.3       12 UNK         0.0216 
     26 CB        -57.8655  -26.4777   13.0398 C.3       12 UNK        -0.1964 
     27 N         -55.7095  -26.4950   14.1834 N.am      12 UNK        -0.4276 
     28 C         -54.6065  -25.8613   14.5954 C.2       12 UNK         0.5020 
     29 O         -54.0872  -24.9199   13.9905 O.2       12 UNK        -0.5489 
     30 CA        -53.9669  -26.4072   15.8811 C.3       11 UNK         0.0294 
     31 CB        -53.2740  -27.7534   15.6001 C.3       11 UNK        -0.2019 
     32 N         -52.9569  -25.4793   16.3823 N.am      11 UNK        -0.4493 
     33 C         -52.9465  -24.8886   17.5821 C.2       11 UNK         0.4932 
     34 O         -53.8306  -25.0336   18.4287 O.2       11 UNK        -0.5029 
     35 CA        -51.7176  -24.0045   17.8803 C.3       10 UNK         0.0280 
     36 CB        -51.6598  -23.5005   19.3381 C.3       10 UNK        -0.1976 
     37 N         -50.4658  -24.6661   17.4917 N.am      10 UNK        -0.4242 
     38 C         -49.9572  -25.8117   17.9721 C.2       10 UNK         0.5072 
     39 O         -50.4150  -26.4166   18.9427 O.2       10 UNK        -0.5224 
     40 CA        -48.7489  -26.4175   17.2296 C.3       9 UNK         0.0343 
     41 CB        -49.1901  -27.6524   16.4255 C.3       9 UNK        -0.2003 
     42 N         -48.0725  -25.4830   16.3247 N.am      9 UNK        -0.4272 
     43 C         -47.2712  -24.4827   16.7173 C.2       9 UNK         0.4988 
     44 O         -46.9713  -24.2667   17.8920 O.2       9 UNK        -0.5108 
     45 CA        -46.7304  -23.5504   15.6176 C.3       8 UNK         0.0248 
     46 CB        -45.4811  -24.1554   14.9575 C.3       8 UNK        -0.2001 
     47 N         -47.7278  -23.2299   14.5910 N.am      8 UNK        -0.4140 
     48 C         -48.8619  -22.5501   14.8215 C.2       8 UNK         0.5028 
     49 O         -49.1662  -22.0733   15.9149 O.2       8 UNK        -0.5428 
     50 CA        -49.8534  -22.4245   13.6527 C.3       7 UNK         0.0264 
     51 CB        -49.4261  -21.3091   12.6859 C.3       7 UNK        -0.1988 
     52 N         -50.0283  -23.6785   12.9175 N.am      7 UNK        -0.4454 
     53 C         -50.4890  -24.8206   13.4493 C.2       7 UNK         0.5027 
     54 O         -50.8514  -24.9332   14.6182 O.2       7 UNK        -0.5083 
     55 CA        -50.4910  -26.0613   12.5407 C.3       6 UNK         0.0844 
     56 C56       -51.7385  -26.0645   11.6248 C.3       14 UNK        -0.0967 
     57 S57       -51.7234  -27.3619   10.3508 S.3       14 UNK        -0.2604 
     58 C58       -51.6766  -28.8761   11.3577 C.3       14 UNK         0.0134 
     59 N         -49.2295  -26.1786   11.8078 N.am      6 UNK        -0.4116 
     60 C         -48.0352  -26.4026   12.3720 C.2       5 UNK         0.5034 
     61 O         -47.8637  -26.5735   13.5785 O.2       5 UNK        -0.5045 
     62 CA        -46.8214  -26.3779   11.4321 C.3       5 UNK         0.0224 
     63 CB        -46.6415  -27.7373   10.7378 C.3       5 UNK        -0.1978 
     64 N         -46.9345  -25.3151   10.4299 N.am      5 UNK        -0.4737 
     65 C         -46.8713  -24.0067   10.7223 C.2       4 UNK         0.5027 
     66 O         -46.6515  -23.5711   11.8523 O.2       4 UNK        -0.5211 
     67 CA        -47.1502  -23.0177    9.5766 C.3       4 UNK         0.0297 
     68 CB        -45.8561  -22.7059    8.8092 C.3       4 UNK        -0.1993 
     69 N         -48.1722  -23.4946    8.6411 N.am      4 UNK        -0.4486 
     70 C         -49.4429  -23.7717    8.9683 C.2       3 UNK         0.4961 
     71 O         -49.9124  -23.5801   10.0891 O.2       3 UNK        -0.5105 
     72 CA        -50.3345  -24.3999    7.8822 C.3       3 UNK         0.0299 
     73 CB        -51.2586  -23.3373    7.2677 C.3       3 UNK        -0.1972 
     74 N         -49.5945  -25.0799    6.8127 N.am      3 UNK        -0.4305 
     75 C         -48.8155  -26.1583    6.9779 C.2       2 UNK         0.5006 
     76 O         -48.5946  -26.6888    8.0682 O.2       2 UNK        -0.5106 
     77 CA        -48.1203  -26.6970    5.7167 C.3       2 UNK         0.0296 
     78 CB        -46.5920  -26.6921    5.8932 C.3       2 UNK        -0.2002 
     79 N         -48.5623  -28.0485    5.3726 N.am      2 UNK        -0.4032 
     80 C         -49.8048  -28.3880    4.9962 C.2       1 UNK         0.5000 
     81 O         -50.7381  -27.5869    4.9132 O.2       1 UNK        -0.5238 
     82 H82       -46.3524  -30.1585    2.0644 H         1 UNK         0.0889 
     83 H83       -46.8071  -31.6038    2.9692 H         1 UNK         0.0889 
     84 H84       -47.3725  -31.3877    1.3117 H         1 UNK         0.0889 
     85 H85       -48.4107  -31.1914    4.4797 H         1 UNK         0.3028 
     86 H86       -50.8418  -29.8425    3.8546 H         1 UNK         0.0864 
     87 H87       -50.9908  -31.6357    5.3992 H         1 UNK         0.0720 
     88 H88       -51.3577  -30.2016    6.3127 H         1 UNK         0.0720 
     89 H89       -49.4448  -32.8172    8.7289 H         1 UNK         0.0814 
     90 H90       -50.5335  -33.1710    7.4103 H         1 UNK         0.0814 
     91 H91       -49.9342  -30.3824    9.8873 H         1 UNK         0.1469 
     92 H92       -54.0869  -29.9946   10.8489 H         1 UNK         0.1381 
     93 H93       -52.8475  -32.7938    7.8573 H         1 UNK         0.1206 
     94 H94       -55.1650  -32.6916    8.5050 H         1 UNK         0.0813 
     95 H95       -55.6190  -31.9183    9.9995 H         1 UNK         0.0813 
     96 H96       -57.5031  -29.0098    9.1574 H         1 UNK         0.0638 
     97 H97       -56.4591  -29.7504   10.3266 H         1 UNK         0.0638 
     98 H98       -54.5792  -28.1747    9.6053 H         1 UNK         0.0568 
     99 H99       -53.9548  -27.8364    7.4279 H         1 UNK         0.3450 
    100 H100      -54.7556  -26.6592    6.4190 H         1 UNK         0.3450 
    101 H101      -56.5510  -26.2589   10.3128 H         1 UNK         0.2987 
    102 H102      -56.1394  -25.3021   12.5021 H         1 UNK         0.0766 
    103 H103      -58.3861  -26.3046   12.0970 H         1 UNK         0.0798 
    104 H104      -58.2677  -25.7676   13.7628 H         1 UNK         0.0798 
    105 H105      -58.1271  -27.4820   13.3761 H         1 UNK         0.0798 
    106 H106      -56.0247  -27.2969   14.7106 H         1 UNK         0.3198 
    107 H107      -54.7557  -26.5535   16.6221 H         1 UNK         0.0843 
    108 H108      -52.8016  -28.1498   16.4993 H         1 UNK         0.0831 
    109 H109      -52.5029  -27.6558   14.8347 H         1 UNK         0.0831 
    110 H110      -53.9846  -28.5036   15.2508 H         1 UNK         0.0831 
    111 H111      -52.2189  -25.2421   15.7180 H         1 UNK         0.3133 
    112 H112      -51.8068  -23.1300   17.2340 H         1 UNK         0.0566 
    113 H113      -52.5388  -22.9006   19.5766 H         1 UNK         0.0814 
    114 H114      -51.6259  -24.3226   20.0534 H         1 UNK         0.0814 
    115 H115      -50.7842  -22.8733   19.5051 H         1 UNK         0.0814 
    116 H116      -50.0292  -24.2910   16.6586 H         1 UNK         0.3091 
    117 H117      -48.0312  -26.7421   17.9858 H         1 UNK         0.0702 
    118 H118      -49.9082  -27.3893   15.6481 H         1 UNK         0.0785 
    119 H119      -49.6648  -28.3929   17.0707 H         1 UNK         0.0785 
    120 H120      -48.3404  -28.1380   15.9453 H         1 UNK         0.0785 
    121 H121      -48.2105  -25.6367   15.3303 H         1 UNK         0.2998 
    122 H122      -46.4391  -22.6127   16.0955 H         1 UNK         0.0697 
    123 H123      -45.0429  -23.4676   14.2340 H         1 UNK         0.0825 
    124 H124      -44.7142  -24.3761   15.7011 H         1 UNK         0.0825 
    125 H125      -45.7088  -25.0859   14.4369 H         1 UNK         0.0825 
    126 H126      -47.5239  -23.5356   13.6434 H         1 UNK         0.3029 
    127 H127      -50.8256  -22.1571   14.0727 H         1 UNK         0.0897 
    128 H128      -50.1505  -21.1825   11.8809 H         1 UNK         0.0792 
    129 H129      -49.3464  -20.3532   13.2053 H         1 UNK         0.0792 
    130 H130      -48.4564  -21.5158   12.2332 H         1 UNK         0.0792 
    131 H131      -49.8095  -23.6622   11.9224 H         1 UNK         0.3086 
    132 H132      -50.5586  -26.9327   13.1947 H         1 UNK         0.0583 
    133 H133      -52.6431  -26.1893   12.2210 H         1 UNK         0.1020 
    134 H134      -51.8504  -25.1083   11.1103 H         1 UNK         0.1020 
    135 H135      -50.6947  -28.9857   11.8202 H         1 UNK         0.0694 
    136 H136      -52.4068  -28.8089   12.1661 H         1 UNK         0.0694 
    137 H137      -49.2788  -26.0460   10.8077 H         1 UNK         0.2989 
    138 H138      -45.9346  -26.1820   12.0392 H         1 UNK         0.1055 
    139 H139      -46.5008  -28.5319   11.4717 H         1 UNK         0.0806 
    140 H140      -47.5093  -28.0046   10.1334 H         1 UNK         0.0806 
    141 H141      -45.7670  -27.7387   10.0870 H         1 UNK         0.0806 
    142 H142      -47.1773  -25.5984    9.4883 H         1 UNK         0.3061 
    143 H143      -47.5164  -22.0905   10.0218 H         1 UNK         0.0734 
    144 H144      -46.0185  -21.9417    8.0489 H         1 UNK         0.0832 
    145 H145      -45.0857  -22.3295    9.4839 H         1 UNK         0.0832 
    146 H146      -45.4527  -23.5917    8.3169 H         1 UNK         0.0832 
    147 H147      -47.8784  -23.6697    7.6918 H         1 UNK         0.3156 
    148 H148      -50.9593  -25.1483    8.3734 H         1 UNK         0.0589 
    149 H149      -51.9669  -23.7832    6.5691 H         1 UNK         0.0808 
    150 H150      -51.8430  -22.8355    8.0405 H         1 UNK         0.0808 
    151 H151      -50.6955  -22.5698    6.7351 H         1 UNK         0.0808 
    152 H152      -49.7262  -24.7206    5.8777 H         1 UNK         0.3098 
    153 H153      -48.3625  -26.0471    4.8732 H         1 UNK         0.0720 
    154 H154      -46.2290  -25.6926    6.1365 H         1 UNK         0.0791 
    155 H155      -46.2756  -27.3578    6.6977 H         1 UNK         0.0791 
    156 H156      -46.0856  -27.0055    4.9800 H         1 UNK         0.0791 
    157 H157      -47.8746  -28.7836    5.4439 H         1 UNK         0.3028 
@<TRIPOS>BOND
     1    1    2 1    
     2    1   82 1    
     3    1   83 1    
     4    1   84 1    
     5    2    3 2    
     6    2    4 am   BACKBONE|DICT|INTERRES
     7    4    5 1    
     8    4   85 1    
     9    5    6 1    
    10    5   80 1    
    11    5   86 1    
    12    6    7 1    
    13    6   87 1    
    14    6   88 1    
    15    7    8 1    
    16    8    9 1    
    17    8   89 1    
    18    8   90 1    
    19    9   10 ar   
    20    9   14 ar   
    21   10   11 ar   
    22   10   91 1    
    23   11   12 ar   
    24   11   58 1    
    25   12   13 ar   
    26   12   92 1    
    27   13   14 ar   
    28   13   15 1    
    29   14   93 1    
    30   15   16 1    
    31   15   94 1    
    32   15   95 1    
    33   16   17 1    
    34   17   18 1    
    35   17   96 1    
    36   17   97 1    
    37   18   19 1    
    38   18   22 1    
    39   18   98 1    
    40   19   20 am   BACKBONE|DICT|INTERRES
    41   19   21 2    
    42   20   99 1    
    43   20  100 1    
    44   22   23 am   BACKBONE|DICT|INTERRES
    45   22  101 1    
    46   23   24 2    
    47   23   25 1    
    48   25   26 1    
    49   25   27 1    
    50   25  102 1    
    51   26  103 1    
    52   26  104 1    
    53   26  105 1    
    54   27   28 am   BACKBONE|DICT|INTERRES
    55   27  106 1    
    56   28   29 2    
    57   28   30 1    
    58   30   31 1    
    59   30   32 1    
    60   30  107 1    
    61   31  108 1    
    62   31  109 1    
    63   31  110 1    
    64   32   33 am   BACKBONE|DICT|INTERRES
    65   32  111 1    
    66   33   34 2    
    67   33   35 1    
    68   35   36 1    
    69   35   37 1    
    70   35  112 1    
    71   36  113 1    
    72   36  114 1    
    73   36  115 1    
    74   37   38 am   BACKBONE|DICT|INTERRES
    75   37  116 1    
    76   38   39 2    
    77   38   40 1    
    78   40   41 1    
    79   40   42 1    
    80   40  117 1    
    81   41  118 1    
    82   41  119 1    
    83   41  120 1    
    84   42   43 am   BACKBONE|DICT|INTERRES
    85   42  121 1    
    86   43   44 2    
    87   43   45 1    
    88   45   46 1    
    89   45   47 1    
    90   45  122 1    
    91   46  123 1    
    92   46  124 1    
    93   46  125 1    
    94   47   48 am   BACKBONE|DICT|INTERRES
    95   47  126 1    
    96   48   49 2    
    97   48   50 1    
    98   50   51 1    
    99   50   52 1    
   100   50  127 1    
   101   51  128 1    
   102   51  129 1    
   103   51  130 1    
   104   52   53 am   BACKBONE|DICT|INTERRES
   105   52  131 1    
   106   53   54 2    
   107   53   55 1    
   108   55   56 1    
   109   55   59 1    
   110   55  132 1    
   111   56   57 1    
   112   56  133 1    
   113   56  134 1    
   114   57   58 1    
   115   58  135 1    
   116   58  136 1    
   117   59   60 am   BACKBONE|DICT|INTERRES
   118   59  137 1    
   119   60   61 2    
   120   60   62 1    
   121   62   63 1    
   122   62   64 1    
   123   62  138 1    
   124   63  139 1    
   125   63  140 1    
   126   63  141 1    
   127   64   65 am   BACKBONE|DICT|INTERRES
   128   64  142 1    
   129   65   66 2    
   130   65   67 1    
   131   67   68 1    
   132   67   69 1    
   133   67  143 1    
   134   68  144 1    
   135   68  145 1    
   136   68  146 1    
   137   69   70 am   BACKBONE|DICT|INTERRES
   138   69  147 1    
   139   70   71 2    
   140   70   72 1    
   141   72   73 1    
   142   72   74 1    
   143   72  148 1    
   144   73  149 1    
   145   73  150 1    
   146   73  151 1    
   147   74   75 am   BACKBONE|DICT|INTERRES
   148   74  152 1    
   149   75   76 2    
   150   75   77 1    
   151   77   78 1    
   152   77   79 1    
   153   77  153 1    
   154   78  154 1    
   155   78  155 1    
   156   78  156 1    
   157   79   80 am   BACKBONE|DICT|INTERRES
   158   79  157 1    
   159   80   81 2    
@<TRIPOS>SUBSTRUCTURE
     1 UNK         1 GROUP             0       ****    0 ROOT    
