@<TRIPOS>MOLECULE
3R207
157   159    1
SMALL
USER_CHARGES


@<TRIPOS>ATOM
      1 CA        -51.9930  -31.6830    7.4963 C.3       0 UNK        -0.1975 
      2 C         -50.5710  -31.2922    7.1215 C.2       0 UNK         0.4852 
      3 O         -49.7554  -32.1635    6.8174 O.2       0 UNK        -0.5216 
      4 N         -50.2715  -29.9870    7.1324 N.am      1 UNK        -0.4461 
      5 CA        -48.9562  -29.4122    6.8212 C.3       1 UNK         0.0864 
      6 C6        -49.0432  -27.9080    6.4427 C.3       14 UNK        -0.0898 
      7 S7        -50.1547  -26.9341    7.5167 S.3       14 UNK        -0.2598 
      8 C8        -51.4506  -26.4306    6.3385 C.3       14 UNK         0.0286 
      9 C9        -52.7033  -25.9477    7.0562 C.ar      14 UNK        -0.0844 
     10 C10       -53.0536  -24.5919    7.0729 C.ar      14 UNK        -0.0881 
     11 C11       -54.2241  -24.1704    7.7169 C.ar      14 UNK        -0.0643 
     12 C12       -55.0339  -25.1139    8.3571 C.ar      14 UNK        -0.0930 
     13 C13       -54.6942  -26.4693    8.3459 C.ar      14 UNK        -0.0827 
     14 C14       -53.5351  -26.8792    7.6827 C.ar      14 UNK        -0.1249 
     15 C15       -55.5887  -27.4900    9.0357 C.3       14 UNK         0.0141 
     16 S16       -55.2186  -27.6179   10.8135 S.3       14 UNK        -0.2313 
     17 C17       -53.5983  -28.4586   10.7975 C.3       14 UNK        -0.0915 
     18 CA        -53.5369  -29.7020   11.7237 C.3       13 UNK         0.0968 
     19 C         -52.1757  -30.4501   11.6116 C.2       13 UNK         0.5732 
     20 N         -51.6244  -30.9995   12.6889 N.am      13 UNK        -0.7310 
     21 O         -51.6042  -30.5409   10.5274 O.2       13 UNK        -0.5035 
     22 N         -53.8666  -29.3597   13.1141 N.am      13 UNK        -0.4233 
     23 C         -54.7867  -29.9735   13.8667 C.2       13 UNK         0.4989 
     24 O         -55.5314  -30.8626   13.4489 O.2       13 UNK        -0.4996 
     25 CA        -54.8914  -29.5196   15.3382 C.3       12 UNK         0.0216 
     26 CB        -55.5629  -30.5752   16.2427 C.3       12 UNK        -0.1964 
     27 N         -53.6137  -29.0845   15.9189 N.am      12 UNK        -0.4276 
     28 C         -52.4811  -29.7995   16.0312 C.2       12 UNK         0.5020 
     29 O         -52.3700  -30.9591   15.6294 O.2       12 UNK        -0.5489 
     30 CA        -51.2569  -29.0995   16.6560 C.3       11 UNK         0.0294 
     31 CB        -49.9542  -29.4909   15.9322 C.3       11 UNK        -0.2019 
     32 N         -51.3987  -27.6442   16.6034 N.am      11 UNK        -0.4493 
     33 C         -51.6905  -26.8418   17.6363 C.2       11 UNK         0.4932 
     34 O         -51.7895  -27.2322   18.7993 O.2       11 UNK        -0.5029 
     35 CA        -51.9460  -25.3536   17.3203 C.3       10 UNK         0.0280 
     36 CB        -50.7000  -24.5159   17.6476 C.3       10 UNK        -0.1976 
     37 N         -52.3416  -25.1111   15.9280 N.am      10 UNK        -0.4242 
     38 C         -53.4901  -25.5390   15.3767 C.2       10 UNK         0.5072 
     39 O         -54.3743  -26.1134   16.0124 O.2       10 UNK        -0.5224 
     40 CA        -53.6488  -25.3865   13.8513 C.3       9 UNK         0.0343 
     41 CB        -54.4387  -24.1150   13.5104 C.3       9 UNK        -0.2003 
     42 N         -52.3704  -25.3843   13.1325 N.am      9 UNK        -0.4272 
     43 C         -51.4950  -26.4028   13.1478 C.2       9 UNK         0.4988 
     44 O         -51.7312  -27.4761   13.7022 O.2       9 UNK        -0.5108 
     45 CA        -50.1228  -26.2087   12.4797 C.3       8 UNK         0.0248 
     46 CB        -50.0774  -26.9701   11.1474 C.3       8 UNK        -0.2001 
     47 N         -49.7543  -24.8110   12.2447 N.am      8 UNK        -0.4140 
     48 C         -49.6154  -23.8624   13.1859 C.2       8 UNK         0.5028 
     49 O         -49.7339  -24.0776   14.3927 O.2       8 UNK        -0.5428 
     50 CA        -49.3776  -22.4179   12.6959 C.3       7 UNK         0.0264 
     51 CB        -47.8722  -22.1091   12.6705 C.3       7 UNK        -0.1988 
     52 N         -49.9460  -22.1568   11.3673 N.am      7 UNK        -0.4454 
     53 C         -51.2359  -22.3367   11.0378 C.2       7 UNK         0.5027 
     54 O         -52.1132  -22.5387   11.8774 O.2       7 UNK        -0.5083 
     55 CA        -51.6049  -22.4096    9.5362 C.3       6 UNK         0.0844 
     56 C56       -52.6252  -21.3218    9.1118 C.3       14 UNK        -0.0967 
     57 S57       -54.3538  -21.8754    9.2925 S.3       14 UNK        -0.2604 
     58 C58       -54.6490  -22.7068    7.6965 C.3       14 UNK         0.0134 
     59 N         -50.4710  -22.4711    8.6044 N.am      6 UNK        -0.4116 
     60 C         -49.5375  -23.4306    8.5626 C.2       5 UNK         0.5034 
     61 O         -49.4387  -24.3176    9.4118 O.2       5 UNK        -0.5045 
     62 CA        -48.5355  -23.3950    7.3934 C.3       5 UNK         0.0224 
     63 CB        -48.6001  -22.1166    6.5256 C.3       5 UNK        -0.1978 
     64 N         -47.1695  -23.6401    7.8599 N.am      5 UNK        -0.4737 
     65 C         -46.4692  -22.9189    8.7434 C.2       4 UNK         0.5027 
     66 O         -46.8768  -21.8793    9.2659 O.2       4 UNK        -0.5211 
     67 CA        -45.0897  -23.4910    9.1230 C.3       4 UNK         0.0297 
     68 CB        -44.1879  -22.4385    9.7944 C.3       4 UNK        -0.1993 
     69 N         -45.2067  -24.6492   10.0125 N.am      4 UNK        -0.4486 
     70 C         -45.6827  -25.8571    9.6809 C.2       3 UNK         0.4961 
     71 O         -46.0424  -26.1658    8.5412 O.2       3 UNK        -0.5105 
     72 CA        -45.7580  -26.8920   10.8127 C.3       3 UNK         0.0299 
     73 CB        -46.2983  -26.2973   12.1308 C.3       3 UNK        -0.1972 
     74 N         -46.5971  -28.0097   10.3862 N.am      3 UNK        -0.4305 
     75 C         -46.4964  -29.2662   10.8322 C.2       2 UNK         0.5006 
     76 O         -45.6646  -29.6197   11.6700 O.2       2 UNK        -0.5106 
     77 CA        -47.4850  -30.3179   10.2890 C.3       2 UNK         0.0296 
     78 CB        -48.3867  -30.8335   11.4218 C.3       2 UNK        -0.2002 
     79 N         -48.3313  -29.8829    9.1700 N.am      2 UNK        -0.4032 
     80 C         -47.8983  -29.6837    7.9151 C.2       1 UNK         0.5000 
     81 O         -46.7102  -29.7424    7.5933 O.2       1 UNK        -0.5238 
     82 H82       -52.5940  -30.8165    7.7722 H         1 UNK         0.0889 
     83 H83       -51.9804  -32.3661    8.3453 H         1 UNK         0.0889 
     84 H84       -52.4795  -32.1841    6.6601 H         1 UNK         0.0889 
     85 H85       -50.9739  -29.3129    7.4027 H         1 UNK         0.3028 
     86 H86       -48.5879  -29.9340    5.9349 H         1 UNK         0.0864 
     87 H87       -48.0566  -27.4394    6.4487 H         1 UNK         0.0720 
     88 H88       -49.3890  -27.8231    5.4116 H         1 UNK         0.0720 
     89 H89       -51.0554  -25.6559    5.6798 H         1 UNK         0.0814 
     90 H90       -51.7148  -27.2750    5.6999 H         1 UNK         0.0814 
     91 H91       -52.4235  -23.8671    6.5765 H         1 UNK         0.1469 
     92 H92       -55.9344  -24.7914    8.8618 H         1 UNK         0.1381 
     93 H93       -53.2724  -27.9271    7.6548 H         1 UNK         0.1206 
     94 H94       -55.4907  -28.4707    8.5676 H         1 UNK         0.0813 
     95 H95       -56.6338  -27.2010    8.9152 H         1 UNK         0.0813 
     96 H96       -53.3666  -28.7576    9.7760 H         1 UNK         0.0638 
     97 H97       -52.8419  -27.7281   11.0736 H         1 UNK         0.0638 
     98 H98       -54.2707  -30.4127   11.3412 H         1 UNK         0.0568 
     99 H99       -52.0693  -30.9451   13.5980 H         1 UNK         0.3450 
    100 H100      -50.7517  -31.4891   12.5913 H         1 UNK         0.3450 
    101 H101      -53.2470  -28.6760   13.5383 H         1 UNK         0.2987 
    102 H102      -55.5338  -28.6378   15.3301 H         1 UNK         0.0766 
    103 H103      -55.6483  -30.2207   17.2699 H         1 UNK         0.0798 
    104 H104      -56.5716  -30.8050   15.8973 H         1 UNK         0.0798 
    105 H105      -55.0023  -31.5105   16.2558 H         1 UNK         0.0798 
    106 H106      -53.6018  -28.1242   16.2437 H         1 UNK         0.3198 
    107 H107      -51.1884  -29.4379   17.6917 H         1 UNK         0.0843 
    108 H108      -49.7667  -30.5624   16.0124 H         1 UNK         0.0831 
    109 H109      -49.0924  -28.9807   16.3623 H         1 UNK         0.0831 
    110 H110      -49.9933  -29.2466   14.8697 H         1 UNK         0.0831 
    111 H111      -51.3784  -27.2515   15.6678 H         1 UNK         0.3133 
    112 H112      -52.7621  -25.0165   17.9626 H         1 UNK         0.0566 
    113 H113      -49.8430  -24.8149   17.0426 H         1 UNK         0.0814 
    114 H114      -50.4157  -24.6314   18.6945 H         1 UNK         0.0814 
    115 H115      -50.8772  -23.4541   17.4755 H         1 UNK         0.0814 
    116 H116      -51.6476  -24.6715   15.3325 H         1 UNK         0.3091 
    117 H117      -54.2212  -26.2457   13.4956 H         1 UNK         0.0702 
    118 H118      -54.6037  -24.0275   12.4358 H         1 UNK         0.0785 
    119 H119      -53.9189  -23.2158   13.8436 H         1 UNK         0.0785 
    120 H120      -55.4185  -24.1238   13.9896 H         1 UNK         0.0785 
    121 H121      -52.1219  -24.5231   12.6582 H         1 UNK         0.2998 
    122 H122      -49.3746  -26.6379   13.1487 H         1 UNK         0.0697 
    123 H123      -50.8197  -26.5881   10.4453 H         1 UNK         0.0825 
    124 H124      -50.2768  -28.0319   11.2913 H         1 UNK         0.0825 
    125 H125      -49.1034  -26.8824   10.6694 H         1 UNK         0.0825 
    126 H126      -49.6401  -24.5447   11.2680 H         1 UNK         0.3029 
    127 H127      -49.8629  -21.7444   13.4052 H         1 UNK         0.0897 
    128 H128      -47.6824  -21.0744   12.3843 H         1 UNK         0.0792 
    129 H129      -47.4261  -22.2605   13.6545 H         1 UNK         0.0792 
    130 H130      -47.3405  -22.7530   11.9683 H         1 UNK         0.0792 
    131 H131      -49.2823  -22.0149   10.6176 H         1 UNK         0.3086 
    132 H132      -52.0862  -23.3837    9.4322 H         1 UNK         0.0583 
    133 H133      -52.4885  -20.4026    9.6852 H         1 UNK         0.1020 
    134 H134      -52.4800  -21.0269    8.0716 H         1 UNK         0.1020 
    135 H135      -55.7159  -22.6536    7.4747 H         1 UNK         0.0694 
    136 H136      -54.1514  -22.1671    6.8895 H         1 UNK         0.0694 
    137 H137      -50.4356  -21.7521    7.8974 H         1 UNK         0.2989 
    138 H138      -48.7954  -24.2422    6.7569 H         1 UNK         0.1055 
    139 H139      -47.8625  -22.1545    5.7238 H         1 UNK         0.0806 
    140 H140      -48.4050  -21.2133    7.1052 H         1 UNK         0.0806 
    141 H141      -49.5746  -22.0068    6.0479 H         1 UNK         0.0806 
    142 H142      -46.7869  -24.5532    7.6307 H         1 UNK         0.3061 
    143 H143      -44.5987  -23.8117    8.2015 H         1 UNK         0.0734 
    144 H144      -44.0724  -21.5617    9.1557 H         1 UNK         0.0832 
    145 H145      -44.6009  -22.0959   10.7442 H         1 UNK         0.0832 
    146 H146      -43.1892  -22.8325    9.9840 H         1 UNK         0.0832 
    147 H147      -44.9491  -24.4921   10.9757 H         1 UNK         0.3156 
    148 H148      -44.7419  -27.2565   10.9766 H         1 UNK         0.0589 
    149 H149      -47.2278  -25.7542   11.9694 H         1 UNK         0.0808 
    150 H150      -46.4901  -27.0716   12.8738 H         1 UNK         0.0808 
    151 H151      -45.5866  -25.6032   12.5782 H         1 UNK         0.0808 
    152 H152      -47.2250  -27.8031    9.6203 H         1 UNK         0.3098 
    153 H153      -46.8826  -31.1575    9.9360 H         1 UNK         0.0720 
    154 H154      -49.0456  -31.6281   11.0712 H         1 UNK         0.0791 
    155 H155      -47.7948  -31.2448   12.2407 H         1 UNK         0.0791 
    156 H156      -49.0031  -30.0356   11.8365 H         1 UNK         0.0791 
    157 H157      -49.3257  -29.8307    9.3466 H         1 UNK         0.3028 
@<TRIPOS>BOND
     1    1    2 1    
     2    1   82 1    
     3    1   83 1    
     4    1   84 1    
     5    2    3 2    
     6    2    4 am   BACKBONE|DICT|INTERRES
     7    4    5 1    
     8    4   85 1    
     9    5    6 1    
    10    5   80 1    
    11    5   86 1    
    12    6    7 1    
    13    6   87 1    
    14    6   88 1    
    15    7    8 1    
    16    8    9 1    
    17    8   89 1    
    18    8   90 1    
    19    9   10 ar   
    20    9   14 ar   
    21   10   11 ar   
    22   10   91 1    
    23   11   12 ar   
    24   11   58 1    
    25   12   13 ar   
    26   12   92 1    
    27   13   14 ar   
    28   13   15 1    
    29   14   93 1    
    30   15   16 1    
    31   15   94 1    
    32   15   95 1    
    33   16   17 1    
    34   17   18 1    
    35   17   96 1    
    36   17   97 1    
    37   18   19 1    
    38   18   22 1    
    39   18   98 1    
    40   19   20 am   BACKBONE|DICT|INTERRES
    41   19   21 2    
    42   20   99 1    
    43   20  100 1    
    44   22   23 am   BACKBONE|DICT|INTERRES
    45   22  101 1    
    46   23   24 2    
    47   23   25 1    
    48   25   26 1    
    49   25   27 1    
    50   25  102 1    
    51   26  103 1    
    52   26  104 1    
    53   26  105 1    
    54   27   28 am   BACKBONE|DICT|INTERRES
    55   27  106 1    
    56   28   29 2    
    57   28   30 1    
    58   30   31 1    
    59   30   32 1    
    60   30  107 1    
    61   31  108 1    
    62   31  109 1    
    63   31  110 1    
    64   32   33 am   BACKBONE|DICT|INTERRES
    65   32  111 1    
    66   33   34 2    
    67   33   35 1    
    68   35   36 1    
    69   35   37 1    
    70   35  112 1    
    71   36  113 1    
    72   36  114 1    
    73   36  115 1    
    74   37   38 am   BACKBONE|DICT|INTERRES
    75   37  116 1    
    76   38   39 2    
    77   38   40 1    
    78   40   41 1    
    79   40   42 1    
    80   40  117 1    
    81   41  118 1    
    82   41  119 1    
    83   41  120 1    
    84   42   43 am   BACKBONE|DICT|INTERRES
    85   42  121 1    
    86   43   44 2    
    87   43   45 1    
    88   45   46 1    
    89   45   47 1    
    90   45  122 1    
    91   46  123 1    
    92   46  124 1    
    93   46  125 1    
    94   47   48 am   BACKBONE|DICT|INTERRES
    95   47  126 1    
    96   48   49 2    
    97   48   50 1    
    98   50   51 1    
    99   50   52 1    
   100   50  127 1    
   101   51  128 1    
   102   51  129 1    
   103   51  130 1    
   104   52   53 am   BACKBONE|DICT|INTERRES
   105   52  131 1    
   106   53   54 2    
   107   53   55 1    
   108   55   56 1    
   109   55   59 1    
   110   55  132 1    
   111   56   57 1    
   112   56  133 1    
   113   56  134 1    
   114   57   58 1    
   115   58  135 1    
   116   58  136 1    
   117   59   60 am   BACKBONE|DICT|INTERRES
   118   59  137 1    
   119   60   61 2    
   120   60   62 1    
   121   62   63 1    
   122   62   64 1    
   123   62  138 1    
   124   63  139 1    
   125   63  140 1    
   126   63  141 1    
   127   64   65 am   BACKBONE|DICT|INTERRES
   128   64  142 1    
   129   65   66 2    
   130   65   67 1    
   131   67   68 1    
   132   67   69 1    
   133   67  143 1    
   134   68  144 1    
   135   68  145 1    
   136   68  146 1    
   137   69   70 am   BACKBONE|DICT|INTERRES
   138   69  147 1    
   139   70   71 2    
   140   70   72 1    
   141   72   73 1    
   142   72   74 1    
   143   72  148 1    
   144   73  149 1    
   145   73  150 1    
   146   73  151 1    
   147   74   75 am   BACKBONE|DICT|INTERRES
   148   74  152 1    
   149   75   76 2    
   150   75   77 1    
   151   77   78 1    
   152   77   79 1    
   153   77  153 1    
   154   78  154 1    
   155   78  155 1    
   156   78  156 1    
   157   79   80 am   BACKBONE|DICT|INTERRES
   158   79  157 1    
   159   80   81 2    
@<TRIPOS>SUBSTRUCTURE
     1 UNK         1 GROUP             0       ****    0 ROOT    
