@<TRIPOS>MOLECULE
3R207
157   159    1
SMALL
USER_CHARGES


@<TRIPOS>ATOM
      1 CA        -45.3441  -30.6082    7.4134 C.3       0 UNK        -0.1975 
      2 C         -46.2503  -30.2416    6.2476 C.2       0 UNK         0.4852 
      3 O         -45.9424  -30.5780    5.1039 O.2       0 UNK        -0.5216 
      4 N         -47.3647  -29.5539    6.5319 N.am      1 UNK        -0.4461 
      5 CA        -48.3661  -29.1095    5.5527 C.3       1 UNK         0.0864 
      6 C6        -49.6404  -28.5668    6.2444 C.3       14 UNK        -0.0898 
      7 S7        -50.4756  -29.8199    7.2748 S.3       14 UNK        -0.2598 
      8 C8        -52.2153  -29.6108    6.7717 C.3       14 UNK         0.0286 
      9 C9        -52.8852  -28.4524    7.5010 C.ar      14 UNK        -0.0844 
     10 C10       -52.6481  -27.1314    7.1114 C.ar      14 UNK        -0.0881 
     11 C11       -53.2638  -26.0664    7.7752 C.ar      14 UNK        -0.0643 
     12 C12       -54.1419  -26.3322    8.8332 C.ar      14 UNK        -0.0930 
     13 C13       -54.4160  -27.6525    9.2125 C.ar      14 UNK        -0.0827 
     14 C14       -53.7761  -28.7039    8.5473 C.ar      14 UNK        -0.1249 
     15 C15       -55.4612  -27.9585   10.2802 C.3       14 UNK         0.0141 
     16 S16       -54.7882  -28.9493   11.6536 S.3       14 UNK        -0.2313 
     17 C17       -56.3120  -29.6215   12.4118 C.3       14 UNK        -0.0915 
     18 CA        -56.5180  -29.2064   13.9011 C.3       13 UNK         0.0968 
     19 C         -57.8584  -29.7375   14.4930 C.2       13 UNK         0.5732 
     20 N         -57.9138  -30.1407   15.7574 N.am      13 UNK        -0.7310 
     21 O         -58.8779  -29.7553   13.8069 O.2       13 UNK        -0.5035 
     22 N         -55.3379  -29.4505   14.7508 N.am      13 UNK        -0.4233 
     23 C         -54.7375  -30.6318   14.9491 C.2       13 UNK         0.4989 
     24 O         -55.1520  -31.7022   14.5030 O.2       13 UNK        -0.4996 
     25 CA        -53.4331  -30.6281   15.7614 C.3       12 UNK         0.0216 
     26 CB        -52.2252  -30.5553   14.8116 C.3       12 UNK        -0.1964 
     27 N         -53.3344  -29.5435   16.7415 N.am      12 UNK        -0.4276 
     28 C         -53.9897  -29.5136   17.9103 C.2       12 UNK         0.5020 
     29 O         -54.8432  -30.3403   18.2337 O.2       12 UNK        -0.5489 
     30 CA        -53.6239  -28.3879   18.8893 C.3       11 UNK         0.0294 
     31 CB        -52.2545  -28.6573   19.5360 C.3       11 UNK        -0.2019 
     32 N         -53.5946  -27.0900   18.2159 N.am      11 UNK        -0.4493 
     33 C         -54.4178  -26.0664   18.4854 C.2       11 UNK         0.4932 
     34 O         -55.2436  -26.0700   19.3991 O.2       11 UNK        -0.5029 
     35 CA        -54.3212  -24.8222   17.5775 C.3       10 UNK         0.0280 
     36 CB        -53.4342  -23.7501   18.2305 C.3       10 UNK        -0.1976 
     37 N         -53.8145  -25.1072   16.2321 N.am      10 UNK        -0.4242 
     38 C         -54.3855  -25.9464   15.3561 C.2       10 UNK         0.5072 
     39 O         -55.4648  -26.5045   15.5481 O.2       10 UNK        -0.5224 
     40 CA        -53.5979  -26.2841   14.0794 C.3       9 UNK         0.0343 
     41 CB        -54.1775  -25.5201   12.8802 C.3       9 UNK        -0.2003 
     42 N         -52.1481  -26.0677   14.1699 N.am      9 UNK        -0.4272 
     43 C         -51.3298  -26.6729   15.0496 C.2       9 UNK         0.4988 
     44 O         -51.7331  -27.4262   15.9380 O.2       9 UNK        -0.5108 
     45 CA        -49.8177  -26.4052   14.9504 C.3       8 UNK         0.0248 
     46 CB        -49.1001  -27.6419   14.3870 C.3       8 UNK        -0.2001 
     47 N         -49.4805  -25.2354   14.1381 N.am      8 UNK        -0.4140 
     48 C         -49.6988  -23.9642   14.5098 C.2       8 UNK         0.5028 
     49 O         -50.1450  -23.6452   15.6126 O.2       8 UNK        -0.5428 
     50 CA        -49.4152  -22.8644   13.4682 C.3       7 UNK         0.0264 
     51 CB        -48.0500  -22.2122   13.7363 C.3       7 UNK        -0.1988 
     52 N         -49.4747  -23.3399   12.0792 N.am      7 UNK        -0.4454 
     53 C         -50.5865  -23.8260   11.4997 C.2       7 UNK         0.5027 
     54 O         -51.6714  -23.8587   12.0772 O.2       7 UNK        -0.5083 
     55 CA        -50.4983  -24.4094   10.0709 C.3       6 UNK         0.0844 
     56 C56       -51.1704  -23.4455    9.0660 C.3       14 UNK        -0.0967 
     57 S57       -51.2800  -24.1362    7.3818 S.3       14 UNK        -0.2604 
     58 C58       -53.0315  -24.6418    7.2848 C.3       14 UNK         0.0134 
     59 N         -49.1349  -24.7764    9.6729 N.am      6 UNK        -0.4116 
     60 C         -48.3813  -25.7070   10.2749 C.2       5 UNK         0.5034 
     61 O         -48.7703  -26.3958   11.2185 O.2       5 UNK        -0.5045 
     62 CA        -46.9270  -25.8546    9.7902 C.3       5 UNK         0.0224 
     63 CB        -46.8307  -26.9823    8.7536 C.3       5 UNK        -0.1978 
     64 N         -46.3134  -24.6287    9.2510 N.am      5 UNK        -0.4737 
     65 C         -46.2255  -23.4597    9.9082 C.2       4 UNK         0.5027 
     66 O         -46.7421  -23.2698   11.0087 O.2       4 UNK        -0.5211 
     67 CA        -45.4376  -22.3017    9.2689 C.3       4 UNK         0.0297 
     68 CB        -44.2293  -21.9287   10.1448 C.3       4 UNK        -0.1993 
     69 N         -44.9668  -22.5622    7.9083 N.am      4 UNK        -0.4486 
     70 C         -45.7204  -22.5088    6.8036 C.2       3 UNK         0.4961 
     71 O         -46.9301  -22.2770    6.8118 O.2       3 UNK        -0.5105 
     72 CA        -45.0088  -22.7498    5.4558 C.3       3 UNK         0.0299 
     73 CB        -43.4707  -22.8806    5.5603 C.3       3 UNK        -0.1972 
     74 N         -45.5645  -23.8988    4.7344 N.am      3 UNK        -0.4305 
     75 C         -45.6738  -25.1540    5.1899 C.2       2 UNK         0.5006 
     76 O         -45.3271  -25.5213    6.3167 O.2       2 UNK        -0.5106 
     77 CA        -46.2427  -26.1776    4.2034 C.3       2 UNK         0.0296 
     78 CB        -45.1448  -26.7089    3.2639 C.3       2 UNK        -0.2002 
     79 N         -46.8213  -27.2801    4.9615 N.am      2 UNK        -0.4032 
     80 C         -47.8326  -28.0567    4.5557 C.2       1 UNK         0.5000 
     81 O         -48.3625  -27.9596    3.4468 O.2       1 UNK        -0.5238 
     82 H82       -44.3573  -30.1676    7.2737 H         1 UNK         0.0889 
     83 H83       -45.2292  -31.6902    7.4732 H         1 UNK         0.0889 
     84 H84       -45.7403  -30.2564    8.3659 H         1 UNK         0.0889 
     85 H85       -47.5910  -29.3576    7.4957 H         1 UNK         0.3028 
     86 H86       -48.6478  -29.9826    4.9597 H         1 UNK         0.0864 
     87 H87       -49.4130  -27.7020    6.8704 H         1 UNK         0.0720 
     88 H88       -50.3399  -28.2166    5.4842 H         1 UNK         0.0720 
     89 H89       -52.7453  -30.5408    6.9833 H         1 UNK         0.0814 
     90 H90       -52.2863  -29.4697    5.6923 H         1 UNK         0.0814 
     91 H91       -51.9882  -26.9209    6.2830 H         1 UNK         0.1469 
     92 H92       -54.6424  -25.5141    9.3330 H         1 UNK         0.1381 
     93 H93       -53.9888  -29.7240    8.8374 H         1 UNK         0.1206 
     94 H94       -55.8948  -27.0419   10.6820 H         1 UNK         0.0813 
     95 H95       -56.2765  -28.5047    9.8040 H         1 UNK         0.0813 
     96 H96       -56.2795  -30.7078   12.3187 H         1 UNK         0.0638 
     97 H97       -57.1699  -29.3029   11.8178 H         1 UNK         0.0638 
     98 H98       -56.6449  -28.1245   13.8980 H         1 UNK         0.0568 
     99 H99       -58.7887  -30.4710   16.1323 H         1 UNK         0.3450 
    100 H100      -57.0871  -30.1295   16.3342 H         1 UNK         0.3450 
    101 H101      -54.9748  -28.6305   15.2164 H         1 UNK         0.2987 
    102 H102      -53.3815  -31.5762   16.3013 H         1 UNK         0.0766 
    103 H103      -51.2835  -30.5993   15.3591 H         1 UNK         0.0798 
    104 H104      -52.2289  -29.6367   14.2230 H         1 UNK         0.0798 
    105 H105      -52.2308  -31.3896   14.1088 H         1 UNK         0.0798 
    106 H106      -52.6567  -28.8114   16.5314 H         1 UNK         0.3198 
    107 H107      -54.3756  -28.3924   19.6817 H         1 UNK         0.0843 
    108 H108      -52.2401  -29.6299   20.0299 H         1 UNK         0.0831 
    109 H109      -52.0224  -27.9072   20.2921 H         1 UNK         0.0831 
    110 H110      -51.4480  -28.6506   18.8014 H         1 UNK         0.0831 
    111 H111      -52.9493  -26.9988   17.4375 H         1 UNK         0.3133 
    112 H112      -55.3292  -24.4166   17.4701 H         1 UNK         0.0566 
    113 H113      -53.4286  -22.8291   17.6473 H         1 UNK         0.0814 
    114 H114      -53.7966  -23.4975   19.2281 H         1 UNK         0.0814 
    115 H115      -52.4021  -24.0883   18.3341 H         1 UNK         0.0814 
    116 H116      -52.9241  -24.6980   15.9848 H         1 UNK         0.3091 
    117 H117      -53.7350  -27.3492   13.8934 H         1 UNK         0.0702 
    118 H118      -53.6804  -25.8016   11.9516 H         1 UNK         0.0785 
    119 H119      -54.0807  -24.4410   13.0042 H         1 UNK         0.0785 
    120 H120      -55.2390  -25.7384   12.7566 H         1 UNK         0.0785 
    121 H121      -51.7536  -25.4265   13.4909 H         1 UNK         0.2998 
    122 H122      -49.4516  -26.2321   15.9646 H         1 UNK         0.0697 
    123 H123      -49.4486  -27.8886   13.3833 H         1 UNK         0.0825 
    124 H124      -49.2776  -28.5161   15.0153 H         1 UNK         0.0825 
    125 H125      -48.0216  -27.4908   14.3404 H         1 UNK         0.0825 
    126 H126      -49.1273  -25.4184   13.2059 H         1 UNK         0.3029 
    127 H127      -50.1864  -22.1003   13.5878 H         1 UNK         0.0897 
    128 H128      -47.8505  -21.4024   13.0342 H         1 UNK         0.0792 
    129 H129      -48.0106  -21.7882   14.7407 H         1 UNK         0.0792 
    130 H130      -47.2361  -22.9338   13.6556 H         1 UNK         0.0792 
    131 H131      -48.5945  -23.3479   11.5680 H         1 UNK         0.3086 
    132 H132      -51.0816  -25.3332   10.0826 H         1 UNK         0.0583 
    133 H133      -52.1721  -23.1740    9.4056 H         1 UNK         0.1020 
    134 H134      -50.6136  -22.5080    9.0098 H         1 UNK         0.1020 
    135 H135      -53.6613  -23.9303    7.8204 H         1 UNK         0.0694 
    136 H136      -53.3432  -24.5866    6.2409 H         1 UNK         0.0694 
    137 H137      -48.7336  -24.2553    8.9069 H         1 UNK         0.2989 
    138 H138      -46.3375  -26.1456   10.6623 H         1 UNK         0.1055 
    139 H139      -47.2616  -27.9054    9.1435 H         1 UNK         0.0806 
    140 H140      -45.7938  -27.1940    8.4913 H         1 UNK         0.0806 
    141 H141      -47.3675  -26.7252    7.8407 H         1 UNK         0.0806 
    142 H142      -45.8724  -24.7053    8.3410 H         1 UNK         0.3061 
    143 H143      -46.1099  -21.4415    9.2395 H         1 UNK         0.0734 
    144 H144      -44.5430  -21.6741   11.1584 H         1 UNK         0.0832 
    145 H145      -43.5173  -22.7514   10.2227 H         1 UNK         0.0832 
    146 H146      -43.7014  -21.0618    9.7470 H         1 UNK         0.0832 
    147 H147      -43.9894  -22.7941    7.8041 H         1 UNK         0.3156 
    148 H148      -45.2205  -21.8712    4.8446 H         1 UNK         0.0589 
    149 H149      -43.1667  -23.7535    6.1395 H         1 UNK         0.0808 
    150 H150      -43.0220  -22.9761    4.5714 H         1 UNK         0.0808 
    151 H151      -43.0264  -21.9975    6.0218 H         1 UNK         0.0808 
    152 H152      -45.9082  -23.6995    3.8051 H         1 UNK         0.3098 
    153 H153      -47.0252  -25.6914    3.6166 H         1 UNK         0.0720 
    154 H154      -44.6895  -25.8997    2.6916 H         1 UNK         0.0791 
    155 H155      -45.5482  -27.4244    2.5472 H         1 UNK         0.0791 
    156 H156      -44.3484  -27.2063    3.8194 H         1 UNK         0.0791 
    157 H157      -46.4444  -27.3887    5.8940 H         1 UNK         0.3028 
@<TRIPOS>BOND
     1    1    2 1    
     2    1   82 1    
     3    1   83 1    
     4    1   84 1    
     5    2    3 2    
     6    2    4 am   BACKBONE|DICT|INTERRES
     7    4    5 1    
     8    4   85 1    
     9    5    6 1    
    10    5   80 1    
    11    5   86 1    
    12    6    7 1    
    13    6   87 1    
    14    6   88 1    
    15    7    8 1    
    16    8    9 1    
    17    8   89 1    
    18    8   90 1    
    19    9   10 ar   
    20    9   14 ar   
    21   10   11 ar   
    22   10   91 1    
    23   11   12 ar   
    24   11   58 1    
    25   12   13 ar   
    26   12   92 1    
    27   13   14 ar   
    28   13   15 1    
    29   14   93 1    
    30   15   16 1    
    31   15   94 1    
    32   15   95 1    
    33   16   17 1    
    34   17   18 1    
    35   17   96 1    
    36   17   97 1    
    37   18   19 1    
    38   18   22 1    
    39   18   98 1    
    40   19   20 am   BACKBONE|DICT|INTERRES
    41   19   21 2    
    42   20   99 1    
    43   20  100 1    
    44   22   23 am   BACKBONE|DICT|INTERRES
    45   22  101 1    
    46   23   24 2    
    47   23   25 1    
    48   25   26 1    
    49   25   27 1    
    50   25  102 1    
    51   26  103 1    
    52   26  104 1    
    53   26  105 1    
    54   27   28 am   BACKBONE|DICT|INTERRES
    55   27  106 1    
    56   28   29 2    
    57   28   30 1    
    58   30   31 1    
    59   30   32 1    
    60   30  107 1    
    61   31  108 1    
    62   31  109 1    
    63   31  110 1    
    64   32   33 am   BACKBONE|DICT|INTERRES
    65   32  111 1    
    66   33   34 2    
    67   33   35 1    
    68   35   36 1    
    69   35   37 1    
    70   35  112 1    
    71   36  113 1    
    72   36  114 1    
    73   36  115 1    
    74   37   38 am   BACKBONE|DICT|INTERRES
    75   37  116 1    
    76   38   39 2    
    77   38   40 1    
    78   40   41 1    
    79   40   42 1    
    80   40  117 1    
    81   41  118 1    
    82   41  119 1    
    83   41  120 1    
    84   42   43 am   BACKBONE|DICT|INTERRES
    85   42  121 1    
    86   43   44 2    
    87   43   45 1    
    88   45   46 1    
    89   45   47 1    
    90   45  122 1    
    91   46  123 1    
    92   46  124 1    
    93   46  125 1    
    94   47   48 am   BACKBONE|DICT|INTERRES
    95   47  126 1    
    96   48   49 2    
    97   48   50 1    
    98   50   51 1    
    99   50   52 1    
   100   50  127 1    
   101   51  128 1    
   102   51  129 1    
   103   51  130 1    
   104   52   53 am   BACKBONE|DICT|INTERRES
   105   52  131 1    
   106   53   54 2    
   107   53   55 1    
   108   55   56 1    
   109   55   59 1    
   110   55  132 1    
   111   56   57 1    
   112   56  133 1    
   113   56  134 1    
   114   57   58 1    
   115   58  135 1    
   116   58  136 1    
   117   59   60 am   BACKBONE|DICT|INTERRES
   118   59  137 1    
   119   60   61 2    
   120   60   62 1    
   121   62   63 1    
   122   62   64 1    
   123   62  138 1    
   124   63  139 1    
   125   63  140 1    
   126   63  141 1    
   127   64   65 am   BACKBONE|DICT|INTERRES
   128   64  142 1    
   129   65   66 2    
   130   65   67 1    
   131   67   68 1    
   132   67   69 1    
   133   67  143 1    
   134   68  144 1    
   135   68  145 1    
   136   68  146 1    
   137   69   70 am   BACKBONE|DICT|INTERRES
   138   69  147 1    
   139   70   71 2    
   140   70   72 1    
   141   72   73 1    
   142   72   74 1    
   143   72  148 1    
   144   73  149 1    
   145   73  150 1    
   146   73  151 1    
   147   74   75 am   BACKBONE|DICT|INTERRES
   148   74  152 1    
   149   75   76 2    
   150   75   77 1    
   151   77   78 1    
   152   77   79 1    
   153   77  153 1    
   154   78  154 1    
   155   78  155 1    
   156   78  156 1    
   157   79   80 am   BACKBONE|DICT|INTERRES
   158   79  157 1    
   159   80   81 2    
@<TRIPOS>SUBSTRUCTURE
     1 UNK         1 GROUP             0       ****    0 ROOT    
