@<TRIPOS>MOLECULE
3R207
157   159    1
SMALL
USER_CHARGES


@<TRIPOS>ATOM
      1 CA        -45.5729  -27.3203    4.9096 C.3       0 UNK        -0.1975 
      2 C         -47.0193  -26.9314    5.1728 C.2       0 UNK         0.4852 
      3 O         -47.4259  -25.8283    4.8036 O.2       0 UNK        -0.5216 
      4 N         -47.7973  -27.8232    5.8073 N.am      1 UNK        -0.4461 
      5 CA        -49.2223  -27.6422    6.1101 C.3       1 UNK         0.0864 
      6 C6        -49.8634  -28.9264    6.6942 C.3       14 UNK        -0.0898 
      7 S7        -51.6222  -29.0592    6.2371 S.3       14 UNK        -0.2598 
      8 C8        -52.3027  -30.0276    7.6258 C.3       14 UNK         0.0286 
      9 C9        -52.5045  -29.2204    8.9052 C.ar      14 UNK        -0.0844 
     10 C10       -53.0940  -27.9514    8.8719 C.ar      14 UNK        -0.0881 
     11 C11       -53.3296  -27.2392   10.0518 C.ar      14 UNK        -0.0643 
     12 C12       -52.9847  -27.8158   11.2775 C.ar      14 UNK        -0.0930 
     13 C13       -52.3968  -29.0817   11.3275 C.ar      14 UNK        -0.0827 
     14 C14       -52.1564  -29.7779   10.1393 C.ar      14 UNK        -0.1249 
     15 C15       -52.0407  -29.6989   12.6706 C.3       14 UNK         0.0141 
     16 S16       -53.5266  -30.1696   13.6100 S.3       14 UNK        -0.2313 
     17 C17       -54.2321  -31.5021   12.5816 C.3       14 UNK        -0.0915 
     18 CA        -55.3464  -31.0279   11.6071 C.3       13 UNK         0.0968 
     19 C         -55.8822  -32.2340   10.7812 C.2       13 UNK         0.5732 
     20 N         -57.1134  -32.6874   10.9868 N.am      13 UNK        -0.7310 
     21 O         -55.1651  -32.7690    9.9391 O.2       13 UNK        -0.5035 
     22 N         -56.3724  -30.2183   12.2881 N.am      13 UNK        -0.4233 
     23 C         -57.3113  -29.4867   11.6720 C.2       13 UNK         0.4989 
     24 O         -57.4692  -29.4510   10.4511 O.2       13 UNK        -0.4996 
     25 CA        -58.2346  -28.6400   12.5689 C.3       12 UNK         0.0216 
     26 CB        -59.4632  -29.4579   13.0006 C.3       12 UNK        -0.1964 
     27 N         -57.5736  -28.0844   13.7566 N.am      12 UNK        -0.4276 
     28 C         -56.5670  -27.2002   13.7208 C.2       12 UNK         0.5020 
     29 O         -56.0890  -26.7532   12.6745 O.2       12 UNK        -0.5489 
     30 CA        -56.0079  -26.7186   15.0695 C.3       11 UNK         0.0294 
     31 CB        -55.5838  -27.8912   15.9818 C.3       11 UNK        -0.2019 
     32 N         -54.8707  -25.8501   14.7784 N.am      11 UNK        -0.4493 
     33 C         -54.1737  -25.1054   15.6382 C.2       11 UNK         0.4932 
     34 O         -54.4280  -25.0080   16.8409 O.2       11 UNK        -0.5029 
     35 CA        -52.9858  -24.3275   15.0501 C.3       10 UNK         0.0280 
     36 CB        -53.2383  -22.8119   15.1023 C.3       10 UNK        -0.1976 
     37 N         -51.7481  -24.6460   15.7629 N.am      10 UNK        -0.4242 
     38 C         -51.1375  -25.8369   15.7148 C.2       10 UNK         0.5072 
     39 O         -51.5181  -26.7761   15.0145 O.2       10 UNK        -0.5224 
     40 CA        -49.8908  -26.0017   16.5909 C.3       9 UNK         0.0343 
     41 CB        -49.8554  -27.3757   17.2885 C.3       9 UNK        -0.2003 
     42 N         -48.6996  -25.8318   15.7635 N.am      9 UNK        -0.4272 
     43 C         -47.5176  -25.3904   16.2134 C.2       9 UNK         0.4988 
     44 O         -47.3057  -25.0759   17.3857 O.2       9 UNK        -0.5108 
     45 CA        -46.3725  -25.2738   15.1925 C.3       8 UNK         0.0248 
     46 CB        -45.7896  -26.6570   14.8588 C.3       8 UNK        -0.2001 
     47 N         -46.7774  -24.5992   13.9594 N.am      8 UNK        -0.4140 
     48 C         -47.1017  -23.3016   13.8619 C.2       8 UNK         0.5028 
     49 O         -47.0320  -22.5019   14.7960 O.2       8 UNK        -0.5428 
     50 CA        -47.6116  -22.8178   12.4938 C.3       7 UNK         0.0264 
     51 CB        -46.4496  -22.4546   11.5541 C.3       7 UNK        -0.1988 
     52 N         -48.4723  -23.8177   11.8599 N.am      7 UNK        -0.4454 
     53 C         -49.7327  -24.0657   12.2460 C.2       7 UNK         0.5027 
     54 O         -50.3153  -23.4056   13.1054 O.2       7 UNK        -0.5083 
     55 CA        -50.4659  -25.2445   11.5708 C.3       6 UNK         0.0844 
     56 C56       -51.4003  -24.7501   10.4368 C.3       14 UNK        -0.0967 
     57 S57       -53.1292  -24.5955   10.9987 S.3       14 UNK        -0.2604 
     58 C58       -53.9751  -25.8579    9.9861 C.3       14 UNK         0.0134 
     59 N         -49.5480  -26.2973   11.1205 N.am      6 UNK        -0.4116 
     60 C         -48.8968  -27.1162   11.9589 C.2       5 UNK         0.5034 
     61 O         -48.9825  -27.0586   13.1843 O.2       5 UNK        -0.5045 
     62 CA        -47.9254  -28.1279   11.3339 C.3       5 UNK         0.0224 
     63 CB        -48.6780  -29.3539   10.7993 C.3       5 UNK        -0.1978 
     64 N         -47.0912  -27.5594   10.2730 N.am      5 UNK        -0.4737 
     65 C         -46.2529  -26.5279   10.4327 C.2       4 UNK         0.5027 
     66 O         -46.1553  -25.8849   11.4762 O.2       4 UNK        -0.5211 
     67 CA        -45.3820  -26.1431    9.2365 C.3       4 UNK         0.0297 
     68 CB        -44.9402  -27.3545    8.3935 C.3       4 UNK        -0.1993 
     69 N         -46.0985  -25.1798    8.4009 N.am      4 UNK        -0.4486 
     70 C         -45.5946  -23.9990    8.0138 C.2       3 UNK         0.4961 
     71 O         -44.4802  -23.5948    8.3486 O.2       3 UNK        -0.5105 
     72 CA        -46.4368  -23.1117    7.0786 C.3       3 UNK         0.0299 
     73 CB        -45.7017  -22.8857    5.7456 C.3       3 UNK        -0.1972 
     74 N         -47.7628  -23.6574    6.7878 N.am      3 UNK        -0.4305 
     75 C         -48.8739  -23.3808    7.4845 C.2       2 UNK         0.5006 
     76 O         -48.8986  -22.6661    8.4859 O.2       2 UNK        -0.5106 
     77 CA        -50.1841  -24.0183    6.9848 C.3       2 UNK         0.0296 
     78 CB        -50.8632  -23.0997    5.9567 C.3       2 UNK        -0.2002 
     79 N         -50.0156  -25.3513    6.4034 N.am      2 UNK        -0.4032 
     80 C         -49.4524  -26.4080    7.0063 C.2       1 UNK         0.5000 
     81 O         -49.0512  -26.4091    8.1755 O.2       1 UNK        -0.5238 
     82 H82       -45.3940  -27.3834    3.8367 H         1 UNK         0.0889 
     83 H83       -45.3191  -28.2827    5.3531 H         1 UNK         0.0889 
     84 H84       -44.9023  -26.5662    5.3206 H         1 UNK         0.0889 
     85 H85       -47.4025  -28.7097    6.0856 H         1 UNK         0.3028 
     86 H86       -49.6912  -27.4498    5.1421 H         1 UNK         0.0864 
     87 H87       -49.7469  -28.9825    7.7767 H         1 UNK         0.0720 
     88 H88       -49.3717  -29.8147    6.2945 H         1 UNK         0.0720 
     89 H89       -51.6554  -30.8875    7.8056 H         1 UNK         0.0814 
     90 H90       -53.2699  -30.4317    7.3244 H         1 UNK         0.0814 
     91 H91       -53.3798  -27.5211    7.9221 H         1 UNK         0.1469 
     92 H92       -53.1799  -27.2823   12.1978 H         1 UNK         0.1381 
     93 H93       -51.7159  -30.7647   10.1781 H         1 UNK         0.1206 
     94 H94       -51.4665  -28.9771   13.2543 H         1 UNK         0.0813 
     95 H95       -51.4007  -30.5732   12.5458 H         1 UNK         0.0813 
     96 H96       -53.4224  -31.9852   12.0315 H         1 UNK         0.0638 
     97 H97       -54.6276  -32.2595   13.2607 H         1 UNK         0.0638 
     98 H98       -54.8815  -30.3642   10.8768 H         1 UNK         0.0568 
     99 H99       -57.4488  -33.4675   10.4444 H         1 UNK         0.3450 
    100 H100      -57.7093  -32.2546   11.6734 H         1 UNK         0.3450 
    101 H101      -56.3041  -30.1766   13.2932 H         1 UNK         0.2987 
    102 H102      -58.5837  -27.7983   11.9665 H         1 UNK         0.0766 
    103 H103      -60.1796  -28.8417   13.5444 H         1 UNK         0.0798 
    104 H104      -59.1880  -30.2977   13.6399 H         1 UNK         0.0798 
    105 H105      -59.9848  -29.8657   12.1333 H         1 UNK         0.0798 
    106 H106      -57.9235  -28.3874   14.6543 H         1 UNK         0.3198 
    107 H107      -56.7823  -26.1288   15.5634 H         1 UNK         0.0843 
    108 H108      -54.7552  -28.4516   15.5515 H         1 UNK         0.0831 
    109 H109      -56.4009  -28.5909   16.1572 H         1 UNK         0.0831 
    110 H110      -55.2634  -27.5387   16.9619 H         1 UNK         0.0831 
    111 H111      -54.6380  -25.8389   13.7904 H         1 UNK         0.3133 
    112 H112      -52.8522  -24.6124   14.0046 H         1 UNK         0.0566 
    113 H113      -52.4174  -22.2588   14.6454 H         1 UNK         0.0814 
    114 H114      -54.1460  -22.5512   14.5565 H         1 UNK         0.0814 
    115 H115      -53.3582  -22.4551   16.1261 H         1 UNK         0.0814 
    116 H116      -51.3762  -23.9275   16.3661 H         1 UNK         0.3091 
    117 H117      -49.9130  -25.2280   17.3616 H         1 UNK         0.0702 
    118 H118      -49.0131  -27.4511   17.9762 H         1 UNK         0.0785 
    119 H119      -49.7726  -28.1899   16.5672 H         1 UNK         0.0785 
    120 H120      -50.7646  -27.5421   17.8676 H         1 UNK         0.0785 
    121 H121      -48.7983  -26.1145   14.7887 H         1 UNK         0.2998 
    122 H122      -45.5798  -24.6779   15.6498 H         1 UNK         0.0697 
    123 H123      -46.5257  -27.3031   14.3798 H         1 UNK         0.0825 
    124 H124      -45.4484  -27.1646   15.7619 H         1 UNK         0.0825 
    125 H125      -44.9336  -26.5747   14.1887 H         1 UNK         0.0825 
    126 H126      -46.7835  -25.1610   13.1114 H         1 UNK         0.3029 
    127 H127      -48.2004  -21.9127   12.6601 H         1 UNK         0.0897 
    128 H128      -46.8163  -22.0898   10.5942 H         1 UNK         0.0792 
    129 H129      -45.8344  -21.6651   11.9875 H         1 UNK         0.0792 
    130 H130      -45.7947  -23.3039   11.3598 H         1 UNK         0.0792 
    131 H131      -48.0434  -24.4189   11.1707 H         1 UNK         0.3086 
    132 H132      -51.0803  -25.7033   12.3494 H         1 UNK         0.0583 
    133 H133      -51.0827  -23.7839   10.0401 H         1 UNK         0.1020 
    134 H134      -51.3698  -25.4387    9.5922 H         1 UNK         0.1020 
    135 H135      -55.0110  -25.9389   10.3169 H         1 UNK         0.0694 
    136 H136      -54.0082  -25.4994    8.9562 H         1 UNK         0.0694 
    137 H137      -49.3976  -26.3956   10.1199 H         1 UNK         0.2989 
    138 H138      -47.2530  -28.4634   12.1266 H         1 UNK         0.1055 
    139 H139      -49.3957  -29.0761   10.0286 H         1 UNK         0.0806 
    140 H140      -49.2327  -29.8450   11.5990 H         1 UNK         0.0806 
    141 H141      -47.9963  -30.0932   10.3790 H         1 UNK         0.0806 
    142 H142      -47.1487  -27.9990    9.3667 H         1 UNK         0.3061 
    143 H143      -44.4801  -25.6940    9.6581 H         1 UNK         0.0734 
    144 H144      -44.2069  -27.0580    7.6440 H         1 UNK         0.0832 
    145 H145      -44.4662  -28.1131    9.0182 H         1 UNK         0.0832 
    146 H146      -45.7738  -27.8279    7.8772 H         1 UNK         0.0832 
    147 H147      -47.0508  -25.4175    8.1490 H         1 UNK         0.3156 
    148 H148      -46.5444  -22.1416    7.5686 H         1 UNK         0.0589 
    149 H149      -45.5295  -23.8229    5.2151 H         1 UNK         0.0808 
    150 H150      -44.7288  -22.4193    5.9066 H         1 UNK         0.0808 
    151 H151      -46.2681  -22.2271    5.0869 H         1 UNK         0.0808 
    152 H152      -47.8211  -24.2948    5.9971 H         1 UNK         0.3098 
    153 H153      -50.8596  -24.1140    7.8300 H         1 UNK         0.0720 
    154 H154      -51.0255  -22.1035    6.3712 H         1 UNK         0.0791 
    155 H155      -51.8385  -23.4866    5.6604 H         1 UNK         0.0791 
    156 H156      -50.2588  -22.9832    5.0561 H         1 UNK         0.0791 
    157 H157      -50.2736  -25.4437    5.4313 H         1 UNK         0.3028 
@<TRIPOS>BOND
     1    1    2 1    
     2    1   82 1    
     3    1   83 1    
     4    1   84 1    
     5    2    3 2    
     6    2    4 am   BACKBONE|DICT|INTERRES
     7    4    5 1    
     8    4   85 1    
     9    5    6 1    
    10    5   80 1    
    11    5   86 1    
    12    6    7 1    
    13    6   87 1    
    14    6   88 1    
    15    7    8 1    
    16    8    9 1    
    17    8   89 1    
    18    8   90 1    
    19    9   10 ar   
    20    9   14 ar   
    21   10   11 ar   
    22   10   91 1    
    23   11   12 ar   
    24   11   58 1    
    25   12   13 ar   
    26   12   92 1    
    27   13   14 ar   
    28   13   15 1    
    29   14   93 1    
    30   15   16 1    
    31   15   94 1    
    32   15   95 1    
    33   16   17 1    
    34   17   18 1    
    35   17   96 1    
    36   17   97 1    
    37   18   19 1    
    38   18   22 1    
    39   18   98 1    
    40   19   20 am   BACKBONE|DICT|INTERRES
    41   19   21 2    
    42   20   99 1    
    43   20  100 1    
    44   22   23 am   BACKBONE|DICT|INTERRES
    45   22  101 1    
    46   23   24 2    
    47   23   25 1    
    48   25   26 1    
    49   25   27 1    
    50   25  102 1    
    51   26  103 1    
    52   26  104 1    
    53   26  105 1    
    54   27   28 am   BACKBONE|DICT|INTERRES
    55   27  106 1    
    56   28   29 2    
    57   28   30 1    
    58   30   31 1    
    59   30   32 1    
    60   30  107 1    
    61   31  108 1    
    62   31  109 1    
    63   31  110 1    
    64   32   33 am   BACKBONE|DICT|INTERRES
    65   32  111 1    
    66   33   34 2    
    67   33   35 1    
    68   35   36 1    
    69   35   37 1    
    70   35  112 1    
    71   36  113 1    
    72   36  114 1    
    73   36  115 1    
    74   37   38 am   BACKBONE|DICT|INTERRES
    75   37  116 1    
    76   38   39 2    
    77   38   40 1    
    78   40   41 1    
    79   40   42 1    
    80   40  117 1    
    81   41  118 1    
    82   41  119 1    
    83   41  120 1    
    84   42   43 am   BACKBONE|DICT|INTERRES
    85   42  121 1    
    86   43   44 2    
    87   43   45 1    
    88   45   46 1    
    89   45   47 1    
    90   45  122 1    
    91   46  123 1    
    92   46  124 1    
    93   46  125 1    
    94   47   48 am   BACKBONE|DICT|INTERRES
    95   47  126 1    
    96   48   49 2    
    97   48   50 1    
    98   50   51 1    
    99   50   52 1    
   100   50  127 1    
   101   51  128 1    
   102   51  129 1    
   103   51  130 1    
   104   52   53 am   BACKBONE|DICT|INTERRES
   105   52  131 1    
   106   53   54 2    
   107   53   55 1    
   108   55   56 1    
   109   55   59 1    
   110   55  132 1    
   111   56   57 1    
   112   56  133 1    
   113   56  134 1    
   114   57   58 1    
   115   58  135 1    
   116   58  136 1    
   117   59   60 am   BACKBONE|DICT|INTERRES
   118   59  137 1    
   119   60   61 2    
   120   60   62 1    
   121   62   63 1    
   122   62   64 1    
   123   62  138 1    
   124   63  139 1    
   125   63  140 1    
   126   63  141 1    
   127   64   65 am   BACKBONE|DICT|INTERRES
   128   64  142 1    
   129   65   66 2    
   130   65   67 1    
   131   67   68 1    
   132   67   69 1    
   133   67  143 1    
   134   68  144 1    
   135   68  145 1    
   136   68  146 1    
   137   69   70 am   BACKBONE|DICT|INTERRES
   138   69  147 1    
   139   70   71 2    
   140   70   72 1    
   141   72   73 1    
   142   72   74 1    
   143   72  148 1    
   144   73  149 1    
   145   73  150 1    
   146   73  151 1    
   147   74   75 am   BACKBONE|DICT|INTERRES
   148   74  152 1    
   149   75   76 2    
   150   75   77 1    
   151   77   78 1    
   152   77   79 1    
   153   77  153 1    
   154   78  154 1    
   155   78  155 1    
   156   78  156 1    
   157   79   80 am   BACKBONE|DICT|INTERRES
   158   79  157 1    
   159   80   81 2    
@<TRIPOS>SUBSTRUCTURE
     1 UNK         1 GROUP             0       ****    0 ROOT    
