@<TRIPOS>MOLECULE
3R207
157   159    1
SMALL
USER_CHARGES


@<TRIPOS>ATOM
      1 CA        -44.9957  -31.0909    4.2829 C.3       0 UNK        -0.1975 
      2 C         -46.0626  -30.2993    5.0239 C.2       0 UNK         0.4852 
      3 O         -45.8164  -29.8382    6.1394 O.2       0 UNK        -0.5216 
      4 N         -47.2396  -30.1208    4.4059 N.am      1 UNK        -0.4461 
      5 CA        -48.4300  -29.4203    4.9167 C.3       1 UNK         0.0864 
      6 C6        -48.9607  -30.0289    6.2431 C.3       14 UNK        -0.0898 
      7 S7        -50.7507  -29.7687    6.4603 S.3       14 UNK        -0.2598 
      8 C8        -50.8148  -29.1254    8.1586 C.3       14 UNK         0.0286 
      9 C9        -52.0861  -28.3265    8.3792 C.ar      14 UNK        -0.0844 
     10 C10       -52.1116  -26.9774    8.0236 C.ar      14 UNK        -0.0881 
     11 C11       -53.2532  -26.2055    8.2470 C.ar      14 UNK        -0.0643 
     12 C12       -54.3894  -26.8034    8.7995 C.ar      14 UNK        -0.0930 
     13 C13       -54.3853  -28.1603    9.1387 C.ar      14 UNK        -0.0827 
     14 C14       -53.2263  -28.9178    8.9329 C.ar      14 UNK        -0.1249 
     15 C15       -55.6431  -28.8018    9.7101 C.3       14 UNK         0.0141 
     16 S16       -55.9306  -28.3146   11.4408 S.3       14 UNK        -0.2313 
     17 C17       -54.6318  -29.2566   12.3056 C.3       14 UNK        -0.0915 
     18 CA        -55.2124  -30.1330   13.4450 C.3       13 UNK         0.0968 
     19 C         -54.1958  -31.2234   13.8903 C.2       13 UNK         0.5732 
     20 N         -54.0613  -32.2915   13.1157 N.am      13 UNK        -0.7310 
     21 O         -53.5108  -31.1041   14.9045 O.2       13 UNK        -0.5035 
     22 N         -55.6924  -29.3019   14.5596 N.am      13 UNK        -0.4233 
     23 C         -56.4163  -29.7585   15.5915 C.2       13 UNK         0.4989 
     24 O         -56.8506  -30.9094   15.6635 O.2       13 UNK        -0.4996 
     25 CA        -56.7142  -28.7866   16.7492 C.3       12 UNK         0.0216 
     26 CB        -55.7910  -29.0804   17.9434 C.3       12 UNK        -0.1964 
     27 N         -56.5825  -27.3756   16.3837 N.am      12 UNK        -0.4276 
     28 C         -57.4409  -26.7000   15.6078 C.2       12 UNK         0.5020 
     29 O         -58.4816  -27.1853   15.1621 O.2       12 UNK        -0.5489 
     30 CA        -57.0924  -25.2358   15.2713 C.3       11 UNK         0.0294 
     31 CB        -58.0172  -24.2742   16.0362 C.3       11 UNK        -0.2019 
     32 N         -55.6961  -24.8600   15.5306 N.am      11 UNK        -0.4493 
     33 C         -54.6303  -25.3618   14.8916 C.2       11 UNK         0.4932 
     34 O         -54.7174  -26.2284   14.0205 O.2       11 UNK        -0.5029 
     35 CA        -53.2492  -24.7992   15.2883 C.3       10 UNK         0.0280 
     36 CB        -53.1639  -24.3333   16.7598 C.3       10 UNK        -0.1976 
     37 N         -52.1592  -25.7287   14.9771 N.am      10 UNK        -0.4242 
     38 C         -51.9778  -26.9626   15.4726 C.2       10 UNK         0.5072 
     39 O         -52.7030  -27.4797   16.3246 O.2       10 UNK        -0.5224 
     40 CA        -50.7764  -27.7565   14.9323 C.3       9 UNK         0.0343 
     41 CB        -51.1529  -28.5044   13.6453 C.3       9 UNK        -0.2003 
     42 N         -49.6012  -26.9210   14.6779 N.am      9 UNK        -0.4272 
     43 C         -48.8157  -26.4118   15.6372 C.2       9 UNK         0.4988 
     44 O         -49.0011  -26.5884   16.8421 O.2       9 UNK        -0.5108 
     45 CA        -47.6067  -25.5785   15.1798 C.3       8 UNK         0.0248 
     46 CB        -46.4734  -26.4920   14.6854 C.3       8 UNK        -0.2001 
     47 N         -47.9434  -24.6003   14.1436 N.am      8 UNK        -0.4140 
     48 C         -48.7213  -23.5263   14.3424 C.2       8 UNK         0.5028 
     49 O         -49.2056  -23.2207   15.4329 O.2       8 UNK        -0.5428 
     50 CA        -49.0207  -22.6425   13.1194 C.3       7 UNK         0.0264 
     51 CB        -47.8688  -21.6574   12.8636 C.3       7 UNK        -0.1988 
     52 N         -49.2921  -23.4046   11.8987 N.am      7 UNK        -0.4454 
     53 C         -50.3141  -24.2595   11.7410 C.2       7 UNK         0.5027 
     54 O         -51.1422  -24.5061   12.6176 O.2       7 UNK        -0.5083 
     55 CA        -50.3908  -25.0009   10.3898 C.3       6 UNK         0.0844 
     56 C56       -50.8564  -24.0542    9.2504 C.3       14 UNK        -0.0967 
     57 S57       -52.6504  -23.7159    9.2844 S.3       14 UNK        -0.2604 
     58 C58       -53.2555  -24.7266    7.8966 C.3       14 UNK         0.0134 
     59 N         -49.1243  -25.6713   10.0690 N.am      6 UNK        -0.4116 
     60 C         -48.4926  -26.5609   10.8517 C.2       5 UNK         0.5034 
     61 O         -48.9489  -27.0036   11.9034 O.2       5 UNK        -0.5045 
     62 CA        -47.0723  -26.9722   10.4341 C.3       5 UNK         0.0224 
     63 CB        -47.0930  -28.1114    9.4022 C.3       5 UNK        -0.1978 
     64 N         -46.3056  -25.8341    9.9227 N.am      5 UNK        -0.4737 
     65 C         -45.8955  -24.8048   10.6792 C.2       4 UNK         0.5027 
     66 O         -46.0653  -24.7412   11.8958 O.2       4 UNK        -0.5211 
     67 CA        -45.2323  -23.6271    9.9455 C.3       4 UNK         0.0297 
     68 CB        -43.7466  -23.9190    9.6834 C.3       4 UNK        -0.1993 
     69 N         -45.9040  -23.3092    8.6827 N.am      4 UNK        -0.4486 
     70 C         -47.1610  -22.8510    8.5886 C.2       3 UNK         0.4961 
     71 O         -47.8545  -22.5612    9.5623 O.2       3 UNK        -0.5105 
     72 CA        -47.7659  -22.7535    7.1753 C.3       3 UNK         0.0299 
     73 CB        -47.4999  -21.3663    6.5710 C.3       3 UNK        -0.1972 
     74 N         -47.2715  -23.7930    6.2647 N.am      3 UNK        -0.4305 
     75 C         -47.4537  -25.1099    6.4393 C.2       2 UNK         0.5006 
     76 O         -48.1219  -25.5890    7.3580 O.2       2 UNK        -0.5106 
     77 CA        -46.6702  -26.0223    5.4813 C.3       2 UNK         0.0296 
     78 CB        -45.1732  -26.0093    5.8405 C.3       2 UNK        -0.2002 
     79 N         -47.1228  -27.4135    5.4896 N.am      2 UNK        -0.4032 
     80 C         -48.2614  -27.8808    4.9646 C.2       1 UNK         0.5000 
     81 O         -49.1221  -27.1590    4.4567 O.2       1 UNK        -0.5238 
     82 H82       -45.3447  -31.4363    3.3100 H         1 UNK         0.0889 
     83 H83       -44.7037  -31.9628    4.8676 H         1 UNK         0.0889 
     84 H84       -44.1116  -30.4732    4.1272 H         1 UNK         0.0889 
     85 H85       -47.3505  -30.4999    3.4751 H         1 UNK         0.3028 
     86 H86       -49.1853  -29.6086    4.1513 H         1 UNK         0.0864 
     87 H87       -48.8053  -31.1090    6.2437 H         1 UNK         0.0720 
     88 H88       -48.4006  -29.6534    7.1000 H         1 UNK         0.0720 
     89 H89       -49.9550  -28.4820    8.3497 H         1 UNK         0.0814 
     90 H90       -50.7480  -29.9522    8.8674 H         1 UNK         0.0814 
     91 H91       -51.2320  -26.5298    7.5818 H         1 UNK         0.1469 
     92 H92       -55.2781  -26.2116    8.9717 H         1 UNK         0.1381 
     93 H93       -53.2119  -29.9666    9.1963 H         1 UNK         0.1206 
     94 H94       -56.5033  -28.4951    9.1133 H         1 UNK         0.0813 
     95 H95       -55.5971  -29.8894    9.6365 H         1 UNK         0.0813 
     96 H96       -54.0977  -29.8696   11.5783 H         1 UNK         0.0638 
     97 H97       -53.9026  -28.5456   12.6941 H         1 UNK         0.0638 
     98 H98       -56.0811  -30.6660   13.0532 H         1 UNK         0.0568 
     99 H99       -53.4012  -33.0055   13.3807 H         1 UNK         0.3450 
    100 H100      -54.6119  -32.4045   12.2792 H         1 UNK         0.3450 
    101 H101      -55.3753  -28.3407   14.5629 H         1 UNK         0.2987 
    102 H102      -57.7452  -28.9618   17.0641 H         1 UNK         0.0766 
    103 H103      -56.0333  -28.4503   18.7994 H         1 UNK         0.0798 
    104 H104      -54.7420  -28.9182   17.6907 H         1 UNK         0.0798 
    105 H105      -55.8901  -30.1173   18.2678 H         1 UNK         0.0798 
    106 H106      -55.7458  -26.9008   16.6916 H         1 UNK         0.3198 
    107 H107      -57.2742  -25.1068   14.2020 H         1 UNK         0.0843 
    108 H108      -57.8684  -24.3427   17.1146 H         1 UNK         0.0831 
    109 H109      -59.0661  -24.5004   15.8383 H         1 UNK         0.0831 
    110 H110      -57.8515  -23.2390   15.7372 H         1 UNK         0.0831 
    111 H111      -55.5426  -24.1523   16.2347 H         1 UNK         0.3133 
    112 H112      -53.0824  -23.9279   14.6537 H         1 UNK         0.0566 
    113 H113      -52.1503  -24.0189   17.0104 H         1 UNK         0.0814 
    114 H114      -53.8124  -23.4776   16.9492 H         1 UNK         0.0814 
    115 H115      -53.4445  -25.1246   17.4560 H         1 UNK         0.0814 
    116 H116      -51.5568  -25.4237   14.2157 H         1 UNK         0.3091 
    117 H117      -50.5060  -28.5008   15.6843 H         1 UNK         0.0702 
    118 H118      -50.3145  -29.0866   13.2628 H         1 UNK         0.0785 
    119 H119      -51.9678  -29.2008   13.8330 H         1 UNK         0.0785 
    120 H120      -51.4735  -27.8201   12.8580 H         1 UNK         0.0785 
    121 H121      -49.3585  -26.7670   13.7011 H         1 UNK         0.2998 
    122 H122      -47.2377  -25.0275   16.0475 H         1 UNK         0.0697 
    123 H123      -46.7656  -27.0541   13.7981 H         1 UNK         0.0825 
    124 H124      -46.1912  -27.2147   15.4522 H         1 UNK         0.0825 
    125 H125      -45.5809  -25.9173   14.4373 H         1 UNK         0.0825 
    126 H126      -47.5209  -24.7364   13.2293 H         1 UNK         0.3029 
    127 H127      -49.9185  -22.0640   13.3475 H         1 UNK         0.0897 
    128 H128      -46.9464  -22.1751   12.5983 H         1 UNK         0.0792 
    129 H129      -47.6638  -21.0566   13.7506 H         1 UNK         0.0792 
    130 H130      -48.1090  -20.9688   12.0531 H         1 UNK         0.0792 
    131 H131      -48.6746  -23.2310   11.1078 H         1 UNK         0.3086 
    132 H132      -51.1297  -25.7977   10.4989 H         1 UNK         0.0583 
    133 H133      -50.3402  -23.0948    9.2930 H         1 UNK         0.1020 
    134 H134      -50.5933  -24.4691    8.2777 H         1 UNK         0.1020 
    135 H135      -54.2683  -24.4070    7.6466 H         1 UNK         0.0694 
    136 H136      -52.6513  -24.5408    7.0072 H         1 UNK         0.0694 
    137 H137      -48.6841  -25.4227    9.1878 H         1 UNK         0.2989 
    138 H138      -46.5648  -27.3422   11.3278 H         1 UNK         0.1055 
    139 H139      -47.6389  -28.9738    9.7871 H         1 UNK         0.0806 
    140 H140      -46.0846  -28.4491    9.1625 H         1 UNK         0.0806 
    141 H141      -47.5724  -27.8138    8.4715 H         1 UNK         0.0806 
    142 H142      -46.1755  -25.7849    8.9235 H         1 UNK         0.3061 
    143 H143      -45.3005  -22.7508   10.5939 H         1 UNK         0.0734 
    144 H144      -43.2465  -23.0609    9.2341 H         1 UNK         0.0832 
    145 H145      -43.2252  -24.1435   10.6152 H         1 UNK         0.0832 
    146 H146      -43.6096  -24.7741    9.0202 H         1 UNK         0.0832 
    147 H147      -45.3969  -23.4985    7.8313 H         1 UNK         0.3156 
    148 H148      -48.8459  -22.8811    7.2676 H         1 UNK         0.0589 
    149 H149      -46.4343  -21.1825    6.4280 H         1 UNK         0.0808 
    150 H150      -47.9939  -21.2520    5.6059 H         1 UNK         0.0808 
    151 H151      -47.8814  -20.5787    7.2226 H         1 UNK         0.0808 
    152 H152      -46.7123  -23.4800    5.4835 H         1 UNK         0.3098 
    153 H153      -46.7940  -25.6350    4.4678 H         1 UNK         0.0720 
    154 H154      -44.5969  -26.6226    5.1471 H         1 UNK         0.0791 
    155 H155      -44.9958  -26.3928    6.8463 H         1 UNK         0.0791 
    156 H156      -44.7561  -25.0027    5.7936 H         1 UNK         0.0791 
    157 H157      -46.4904  -28.1048    5.8851 H         1 UNK         0.3028 
@<TRIPOS>BOND
     1    1    2 1    
     2    1   82 1    
     3    1   83 1    
     4    1   84 1    
     5    2    3 2    
     6    2    4 am   BACKBONE|DICT|INTERRES
     7    4    5 1    
     8    4   85 1    
     9    5    6 1    
    10    5   80 1    
    11    5   86 1    
    12    6    7 1    
    13    6   87 1    
    14    6   88 1    
    15    7    8 1    
    16    8    9 1    
    17    8   89 1    
    18    8   90 1    
    19    9   10 ar   
    20    9   14 ar   
    21   10   11 ar   
    22   10   91 1    
    23   11   12 ar   
    24   11   58 1    
    25   12   13 ar   
    26   12   92 1    
    27   13   14 ar   
    28   13   15 1    
    29   14   93 1    
    30   15   16 1    
    31   15   94 1    
    32   15   95 1    
    33   16   17 1    
    34   17   18 1    
    35   17   96 1    
    36   17   97 1    
    37   18   19 1    
    38   18   22 1    
    39   18   98 1    
    40   19   20 am   BACKBONE|DICT|INTERRES
    41   19   21 2    
    42   20   99 1    
    43   20  100 1    
    44   22   23 am   BACKBONE|DICT|INTERRES
    45   22  101 1    
    46   23   24 2    
    47   23   25 1    
    48   25   26 1    
    49   25   27 1    
    50   25  102 1    
    51   26  103 1    
    52   26  104 1    
    53   26  105 1    
    54   27   28 am   BACKBONE|DICT|INTERRES
    55   27  106 1    
    56   28   29 2    
    57   28   30 1    
    58   30   31 1    
    59   30   32 1    
    60   30  107 1    
    61   31  108 1    
    62   31  109 1    
    63   31  110 1    
    64   32   33 am   BACKBONE|DICT|INTERRES
    65   32  111 1    
    66   33   34 2    
    67   33   35 1    
    68   35   36 1    
    69   35   37 1    
    70   35  112 1    
    71   36  113 1    
    72   36  114 1    
    73   36  115 1    
    74   37   38 am   BACKBONE|DICT|INTERRES
    75   37  116 1    
    76   38   39 2    
    77   38   40 1    
    78   40   41 1    
    79   40   42 1    
    80   40  117 1    
    81   41  118 1    
    82   41  119 1    
    83   41  120 1    
    84   42   43 am   BACKBONE|DICT|INTERRES
    85   42  121 1    
    86   43   44 2    
    87   43   45 1    
    88   45   46 1    
    89   45   47 1    
    90   45  122 1    
    91   46  123 1    
    92   46  124 1    
    93   46  125 1    
    94   47   48 am   BACKBONE|DICT|INTERRES
    95   47  126 1    
    96   48   49 2    
    97   48   50 1    
    98   50   51 1    
    99   50   52 1    
   100   50  127 1    
   101   51  128 1    
   102   51  129 1    
   103   51  130 1    
   104   52   53 am   BACKBONE|DICT|INTERRES
   105   52  131 1    
   106   53   54 2    
   107   53   55 1    
   108   55   56 1    
   109   55   59 1    
   110   55  132 1    
   111   56   57 1    
   112   56  133 1    
   113   56  134 1    
   114   57   58 1    
   115   58  135 1    
   116   58  136 1    
   117   59   60 am   BACKBONE|DICT|INTERRES
   118   59  137 1    
   119   60   61 2    
   120   60   62 1    
   121   62   63 1    
   122   62   64 1    
   123   62  138 1    
   124   63  139 1    
   125   63  140 1    
   126   63  141 1    
   127   64   65 am   BACKBONE|DICT|INTERRES
   128   64  142 1    
   129   65   66 2    
   130   65   67 1    
   131   67   68 1    
   132   67   69 1    
   133   67  143 1    
   134   68  144 1    
   135   68  145 1    
   136   68  146 1    
   137   69   70 am   BACKBONE|DICT|INTERRES
   138   69  147 1    
   139   70   71 2    
   140   70   72 1    
   141   72   73 1    
   142   72   74 1    
   143   72  148 1    
   144   73  149 1    
   145   73  150 1    
   146   73  151 1    
   147   74   75 am   BACKBONE|DICT|INTERRES
   148   74  152 1    
   149   75   76 2    
   150   75   77 1    
   151   77   78 1    
   152   77   79 1    
   153   77  153 1    
   154   78  154 1    
   155   78  155 1    
   156   78  156 1    
   157   79   80 am   BACKBONE|DICT|INTERRES
   158   79  157 1    
   159   80   81 2    
@<TRIPOS>SUBSTRUCTURE
     1 UNK         1 GROUP             0       ****    0 ROOT    
