@<TRIPOS>MOLECULE
3R207
157   159    1
SMALL
USER_CHARGES


@<TRIPOS>ATOM
      1 CA        -47.7519  -32.3452    3.9833 C.3       0 UNK        -0.1975 
      2 C         -48.2750  -31.1151    4.7097 C.2       0 UNK         0.4852 
      3 O         -47.9778  -30.9362    5.8920 O.2       0 UNK        -0.5216 
      4 N         -49.0422  -30.2688    4.0063 N.am      1 UNK        -0.4461 
      5 CA        -49.6803  -29.0233    4.4612 C.3       1 UNK         0.0864 
      6 C6        -50.6714  -29.2064    5.6417 C.3       14 UNK        -0.0898 
      7 S7        -52.1649  -30.1533    5.2002 S.3       14 UNK        -0.2598 
      8 C8        -53.4140  -29.3661    6.2768 C.3       14 UNK         0.0286 
      9 C9        -53.3770  -29.9043    7.7037 C.ar      14 UNK        -0.0844 
     10 C10       -52.3102  -29.5988    8.5549 C.ar      14 UNK        -0.0881 
     11 C11       -52.2544  -30.1099    9.8585 C.ar      14 UNK        -0.0643 
     12 C12       -53.3191  -30.8885   10.3217 C.ar      14 UNK        -0.0930 
     13 C13       -54.4078  -31.1784    9.4937 C.ar      14 UNK        -0.0827 
     14 C14       -54.4209  -30.7010    8.1802 C.ar      14 UNK        -0.1249 
     15 C15       -55.5721  -32.0072   10.0168 C.3       14 UNK         0.0141 
     16 S16       -57.1073  -31.0317   10.1256 S.3       14 UNK        -0.2313 
     17 C17       -56.6533  -29.7322   11.3255 C.3       14 UNK        -0.0915 
     18 CA        -56.2468  -28.3827   10.6707 C.3       13 UNK         0.0968 
     19 C         -57.4629  -27.6480   10.0307 C.2       13 UNK         0.5732 
     20 N         -58.0611  -26.6661   10.6966 N.am      13 UNK        -0.7310 
     21 O         -57.8566  -27.9546    8.9081 O.2       13 UNK        -0.5035 
     22 N         -55.4987  -27.5611   11.6319 N.am      13 UNK        -0.4233 
     23 C         -54.7828  -26.4709   11.3414 C.2       13 UNK         0.4989 
     24 O         -54.5707  -26.0782   10.1944 O.2       13 UNK        -0.4996 
     25 CA        -54.2127  -25.6610   12.5236 C.3       12 UNK         0.0216 
     26 CB        -55.2730  -24.6941   13.0828 C.3       12 UNK        -0.1964 
     27 N         -53.5968  -26.4389   13.6101 N.am      12 UNK        -0.4276 
     28 C         -54.1292  -27.3690   14.4188 C.2       12 UNK         0.5020 
     29 O         -55.2918  -27.7699   14.3534 O.2       12 UNK        -0.5489 
     30 CA        -53.1929  -27.9398   15.4920 C.3       11 UNK         0.0294 
     31 CB        -52.2252  -28.9670   14.8794 C.3       11 UNK        -0.2019 
     32 N         -52.4304  -26.8672   16.1291 N.am      11 UNK        -0.4493 
     33 C         -52.8677  -26.1210   17.1521 C.2       11 UNK         0.4932 
     34 O         -53.9325  -26.3258   17.7371 O.2       11 UNK        -0.5029 
     35 CA        -51.9815  -24.9309   17.5740 C.3       10 UNK         0.0280 
     36 CB        -52.1289  -24.5703   19.0677 C.3       10 UNK        -0.1976 
     37 N         -50.5705  -25.0854   17.1973 N.am      10 UNK        -0.4242 
     38 C         -49.6982  -26.0034   17.6459 C.2       10 UNK         0.5072 
     39 O         -49.9669  -26.8348   18.5141 O.2       10 UNK        -0.5224 
     40 CA        -48.2962  -26.0388   17.0042 C.3       9 UNK         0.0343 
     41 CB        -48.1141  -27.3402   16.2039 C.3       9 UNK        -0.2003 
     42 N         -48.0135  -24.9037   16.1223 N.am      9 UNK        -0.4272 
     43 C         -47.7600  -23.6523   16.5281 C.2       9 UNK         0.4988 
     44 O         -47.6587  -23.3222   17.7100 O.2       9 UNK        -0.5108 
     45 CA        -47.6430  -22.5791   15.4302 C.3       8 UNK         0.0248 
     46 CB        -46.2065  -22.5158   14.8881 C.3       8 UNK        -0.2001 
     47 N         -48.5879  -22.7691   14.3209 N.am      8 UNK        -0.4140 
     48 C         -49.9244  -22.7609   14.4508 C.2       8 UNK         0.5028 
     49 O         -50.5052  -22.5814   15.5207 O.2       8 UNK        -0.5428 
     50 CA        -50.7597  -23.0538   13.1946 C.3       7 UNK         0.0264 
     51 CB        -50.8047  -21.8328   12.2630 C.3       7 UNK        -0.1988 
     52 N         -50.2724  -24.2239   12.4639 N.am      7 UNK        -0.4454 
     53 C         -50.3008  -25.4781   12.9356 C.2       7 UNK         0.5027 
     54 O         -50.8348  -25.7930   14.0009 O.2       7 UNK        -0.5083 
     55 CA        -49.6082  -26.5691   12.0978 C.3       6 UNK         0.0844 
     56 C56       -50.5620  -27.1302   11.0178 C.3       14 UNK        -0.0967 
     57 S57       -49.8560  -28.6248   10.2518 S.3       14 UNK        -0.2604 
     58 C58       -51.0454  -29.9086   10.7764 C.3       14 UNK         0.0134 
     59 N         -48.3322  -26.1081   11.5392 N.am      6 UNK        -0.4116 
     60 C         -47.2781  -25.7151   12.2685 C.2       5 UNK         0.5034 
     61 O         -47.2438  -25.7420   13.4975 O.2       5 UNK        -0.5045 
     62 CA        -46.0825  -25.1349   11.5018 C.3       5 UNK         0.0224 
     63 CB        -45.1834  -26.2517   10.9476 C.3       5 UNK        -0.1978 
     64 N         -46.5186  -24.2492   10.4206 N.am      5 UNK        -0.4737 
     65 C         -47.0639  -23.0404   10.6183 C.2       4 UNK         0.5027 
     66 O         -47.2143  -22.5331   11.7294 O.2       4 UNK        -0.5211 
     67 CA        -47.5651  -22.2906    9.3725 C.3       4 UNK         0.0297 
     68 CB        -46.4100  -21.5398    8.6919 C.3       4 UNK        -0.1993 
     69 N         -48.2212  -23.1720    8.4030 N.am      4 UNK        -0.4486 
     70 C         -49.3601  -23.8377    8.6394 C.2       3 UNK         0.4961 
     71 O         -49.9981  -23.7527    9.6871 O.2       3 UNK        -0.5105 
     72 CA        -49.8507  -24.7975    7.5440 C.3       3 UNK         0.0299 
     73 CB        -50.7237  -24.0524    6.5230 C.3       3 UNK        -0.1972 
     74 N         -48.7863  -25.5212    6.8420 N.am      3 UNK        -0.4305 
     75 C         -47.8488  -26.2923    7.4110 C.2       2 UNK         0.5006 
     76 O         -47.6889  -26.3840    8.6290 O.2       2 UNK        -0.5106 
     77 CA        -46.9791  -27.1253    6.4474 C.3       2 UNK         0.0296 
     78 CB        -45.8105  -27.8249    7.1657 C.3       2 UNK        -0.2002 
     79 N         -47.7972  -28.1360    5.7733 N.am      2 UNK        -0.4032 
     80 C         -48.6779  -27.8996    4.7928 C.2       1 UNK         0.5000 
     81 O         -48.7660  -26.8161    4.2106 O.2       1 UNK        -0.5238 
     82 H82       -46.6623  -32.3482    3.9881 H         1 UNK         0.0889 
     83 H83       -48.0870  -32.3819    2.9469 H         1 UNK         0.0889 
     84 H84       -48.0975  -33.2496    4.4833 H         1 UNK         0.0889 
     85 H85       -49.2178  -30.4875    3.0351 H         1 UNK         0.3028 
     86 H86       -50.2560  -28.6633    3.6065 H         1 UNK         0.0864 
     87 H87       -50.9921  -28.2289    6.0079 H         1 UNK         0.0720 
     88 H88       -50.1870  -29.7003    6.4847 H         1 UNK         0.0720 
     89 H89       -54.3970  -29.5410    5.8369 H         1 UNK         0.0814 
     90 H90       -53.2838  -28.2831    6.2854 H         1 UNK         0.0814 
     91 H91       -51.5104  -28.9790    8.1849 H         1 UNK         0.1469 
     92 H92       -53.2939  -31.2803   11.3294 H         1 UNK         0.1381 
     93 H93       -55.2591  -30.9349    7.5378 H         1 UNK         0.1206 
     94 H94       -55.7375  -32.8535    9.3487 H         1 UNK         0.0813 
     95 H95       -55.3456  -32.4303   10.9967 H         1 UNK         0.0813 
     96 H96       -55.8345  -30.1125   11.9386 H         1 UNK         0.0638 
     97 H97       -57.4887  -29.5874   12.0128 H         1 UNK         0.0638 
     98 H98       -55.5552  -28.5980    9.8549 H         1 UNK         0.0568 
     99 H99       -57.7484  -26.4065   11.6177 H         1 UNK         0.3450 
    100 H100      -58.8410  -26.1883   10.2737 H         1 UNK         0.3450 
    101 H101      -55.6095  -27.7908   12.6187 H         1 UNK         0.2987 
    102 H102      -53.4062  -25.0516   12.1119 H         1 UNK         0.0766 
    103 H103      -54.8427  -24.0259   13.8289 H         1 UNK         0.0798 
    104 H104      -56.1028  -25.2252   13.5501 H         1 UNK         0.0798 
    105 H105      -55.6898  -24.0695   12.2914 H         1 UNK         0.0798 
    106 H106      -52.6216  -26.2088   13.7863 H         1 UNK         0.3198 
    107 H107      -53.8030  -28.4487   16.2417 H         1 UNK         0.0843 
    108 H108      -51.5699  -28.5196   14.1314 H         1 UNK         0.0831 
    109 H109      -52.7724  -29.7756   14.3927 H         1 UNK         0.0831 
    110 H110      -51.5947  -29.4185   15.6456 H         1 UNK         0.0831 
    111 H111      -51.5767  -26.5762   15.6635 H         1 UNK         0.3133 
    112 H112      -52.3448  -24.0783   16.9988 H         1 UNK         0.0566 
    113 H113      -51.4958  -23.7243   19.3353 H         1 UNK         0.0814 
    114 H114      -53.1565  -24.2907   19.3029 H         1 UNK         0.0814 
    115 H115      -51.8655  -25.4063   19.7161 H         1 UNK         0.0814 
    116 H116      -50.2515  -24.4307   16.4911 H         1 UNK         0.3091 
    117 H117      -47.5670  -26.0311   17.8168 H         1 UNK         0.0702 
    118 H118      -48.2743  -28.2166   16.8333 H         1 UNK         0.0785 
    119 H119      -48.8173  -27.4019   15.3723 H         1 UNK         0.0785 
    120 H120      -47.1063  -27.4165   15.7953 H         1 UNK         0.0785 
    121 H121      -47.9858  -25.1038   15.1252 H         1 UNK         0.2998 
    122 H122      -47.8734  -21.6158   15.8898 H         1 UNK         0.0697 
    123 H123      -45.9214  -23.4442   14.3932 H         1 UNK         0.0825 
    124 H124      -45.4919  -22.3423   15.6937 H         1 UNK         0.0825 
    125 H125      -46.0885  -21.7039   14.1702 H         1 UNK         0.0825 
    126 H126      -48.1840  -22.8814   13.3943 H         1 UNK         0.3029 
    127 H127      -51.7807  -23.2659   13.5202 H         1 UNK         0.0897 
    128 H128      -51.4666  -22.0081   11.4146 H         1 UNK         0.0792 
    129 H129      -49.8184  -21.5855   11.8695 H         1 UNK         0.0792 
    130 H130      -51.1777  -20.9531   12.7892 H         1 UNK         0.0792 
    131 H131      -49.9068  -24.0566   11.5283 H         1 UNK         0.3086 
    132 H132      -49.3739  -27.3814   12.7895 H         1 UNK         0.0583 
    133 H133      -51.5398  -27.3697   11.4406 H         1 UNK         0.1020 
    134 H134      -50.7474  -26.3892   10.2395 H         1 UNK         0.1020 
    135 H135      -50.5060  -30.8554   10.8227 H         1 UNK         0.0694 
    136 H136      -51.3780  -29.7010   11.7945 H         1 UNK         0.0694 
    137 H137      -48.2488  -26.1038   10.5267 H         1 UNK         0.2989 
    138 H138      -45.4913  -24.5450   12.2056 H         1 UNK         0.1055 
    139 H139      -44.7960  -26.8721   11.7568 H         1 UNK         0.0806 
    140 H140      -44.3252  -25.8433   10.4139 H         1 UNK         0.0806 
    141 H141      -45.7204  -26.9113   10.2658 H         1 UNK         0.0806 
    142 H142      -46.5196  -24.6383    9.4870 H         1 UNK         0.3061 
    143 H143      -48.3005  -21.5546    9.7050 H         1 UNK         0.0734 
    144 H144      -45.9197  -20.8634    9.3936 H         1 UNK         0.0832 
    145 H145      -46.7659  -20.9350    7.8576 H         1 UNK         0.0832 
    146 H146      -45.6487  -22.2227    8.3127 H         1 UNK         0.0832 
    147 H147      -47.7623  -23.3076    7.5139 H         1 UNK         0.3156 
    148 H148      -50.4743  -25.5503    8.0291 H         1 UNK         0.0589 
    149 H149      -50.1499  -23.3125    5.9635 H         1 UNK         0.0808 
    150 H150      -51.1727  -24.7411    5.8069 H         1 UNK         0.0808 
    151 H151      -51.5406  -23.5258    7.0187 H         1 UNK         0.0808 
    152 H152      -48.8501  -25.5525    5.8294 H         1 UNK         0.3098 
    153 H153      -46.5608  -26.4471    5.7009 H         1 UNK         0.0720 
    154 H154      -45.1872  -28.3775    6.4625 H         1 UNK         0.0791 
    155 H155      -46.1639  -28.5268    7.9226 H         1 UNK         0.0791 
    156 H156      -45.1691  -27.0989    7.6668 H         1 UNK         0.0791 
    157 H157      -47.7878  -29.0763    6.1626 H         1 UNK         0.3028 
@<TRIPOS>BOND
     1    1    2 1    
     2    1   82 1    
     3    1   83 1    
     4    1   84 1    
     5    2    3 2    
     6    2    4 am   BACKBONE|DICT|INTERRES
     7    4    5 1    
     8    4   85 1    
     9    5    6 1    
    10    5   80 1    
    11    5   86 1    
    12    6    7 1    
    13    6   87 1    
    14    6   88 1    
    15    7    8 1    
    16    8    9 1    
    17    8   89 1    
    18    8   90 1    
    19    9   10 ar   
    20    9   14 ar   
    21   10   11 ar   
    22   10   91 1    
    23   11   12 ar   
    24   11   58 1    
    25   12   13 ar   
    26   12   92 1    
    27   13   14 ar   
    28   13   15 1    
    29   14   93 1    
    30   15   16 1    
    31   15   94 1    
    32   15   95 1    
    33   16   17 1    
    34   17   18 1    
    35   17   96 1    
    36   17   97 1    
    37   18   19 1    
    38   18   22 1    
    39   18   98 1    
    40   19   20 am   BACKBONE|DICT|INTERRES
    41   19   21 2    
    42   20   99 1    
    43   20  100 1    
    44   22   23 am   BACKBONE|DICT|INTERRES
    45   22  101 1    
    46   23   24 2    
    47   23   25 1    
    48   25   26 1    
    49   25   27 1    
    50   25  102 1    
    51   26  103 1    
    52   26  104 1    
    53   26  105 1    
    54   27   28 am   BACKBONE|DICT|INTERRES
    55   27  106 1    
    56   28   29 2    
    57   28   30 1    
    58   30   31 1    
    59   30   32 1    
    60   30  107 1    
    61   31  108 1    
    62   31  109 1    
    63   31  110 1    
    64   32   33 am   BACKBONE|DICT|INTERRES
    65   32  111 1    
    66   33   34 2    
    67   33   35 1    
    68   35   36 1    
    69   35   37 1    
    70   35  112 1    
    71   36  113 1    
    72   36  114 1    
    73   36  115 1    
    74   37   38 am   BACKBONE|DICT|INTERRES
    75   37  116 1    
    76   38   39 2    
    77   38   40 1    
    78   40   41 1    
    79   40   42 1    
    80   40  117 1    
    81   41  118 1    
    82   41  119 1    
    83   41  120 1    
    84   42   43 am   BACKBONE|DICT|INTERRES
    85   42  121 1    
    86   43   44 2    
    87   43   45 1    
    88   45   46 1    
    89   45   47 1    
    90   45  122 1    
    91   46  123 1    
    92   46  124 1    
    93   46  125 1    
    94   47   48 am   BACKBONE|DICT|INTERRES
    95   47  126 1    
    96   48   49 2    
    97   48   50 1    
    98   50   51 1    
    99   50   52 1    
   100   50  127 1    
   101   51  128 1    
   102   51  129 1    
   103   51  130 1    
   104   52   53 am   BACKBONE|DICT|INTERRES
   105   52  131 1    
   106   53   54 2    
   107   53   55 1    
   108   55   56 1    
   109   55   59 1    
   110   55  132 1    
   111   56   57 1    
   112   56  133 1    
   113   56  134 1    
   114   57   58 1    
   115   58  135 1    
   116   58  136 1    
   117   59   60 am   BACKBONE|DICT|INTERRES
   118   59  137 1    
   119   60   61 2    
   120   60   62 1    
   121   62   63 1    
   122   62   64 1    
   123   62  138 1    
   124   63  139 1    
   125   63  140 1    
   126   63  141 1    
   127   64   65 am   BACKBONE|DICT|INTERRES
   128   64  142 1    
   129   65   66 2    
   130   65   67 1    
   131   67   68 1    
   132   67   69 1    
   133   67  143 1    
   134   68  144 1    
   135   68  145 1    
   136   68  146 1    
   137   69   70 am   BACKBONE|DICT|INTERRES
   138   69  147 1    
   139   70   71 2    
   140   70   72 1    
   141   72   73 1    
   142   72   74 1    
   143   72  148 1    
   144   73  149 1    
   145   73  150 1    
   146   73  151 1    
   147   74   75 am   BACKBONE|DICT|INTERRES
   148   74  152 1    
   149   75   76 2    
   150   75   77 1    
   151   77   78 1    
   152   77   79 1    
   153   77  153 1    
   154   78  154 1    
   155   78  155 1    
   156   78  156 1    
   157   79   80 am   BACKBONE|DICT|INTERRES
   158   79  157 1    
   159   80   81 2    
@<TRIPOS>SUBSTRUCTURE
     1 UNK         1 GROUP             0       ****    0 ROOT    
