@<TRIPOS>MOLECULE
3R207
157   159    1
SMALL
USER_CHARGES


@<TRIPOS>ATOM
      1 CA        -44.8171  -29.1125   10.1420 C.3       0 UNK        -0.1975 
      2 C         -45.4370  -29.7557    8.9124 C.2       0 UNK         0.4852 
      3 O         -44.7628  -30.5222    8.2234 O.2       0 UNK        -0.5216 
      4 N         -46.7150  -29.4630    8.6396 N.am      1 UNK        -0.4461 
      5 CA        -47.4853  -30.0568    7.5386 C.3       1 UNK         0.0864 
      6 C6        -48.9414  -30.3813    7.9563 C.3       14 UNK        -0.0898 
      7 S7        -49.8899  -28.9438    8.5512 S.3       14 UNK        -0.2598 
      8 C8        -51.0884  -28.7266    7.2031 C.3       14 UNK         0.0286 
      9 C9        -52.0898  -27.6429    7.5616 C.ar      14 UNK        -0.0844 
     10 C10       -51.8051  -26.3038    7.2822 C.ar      14 UNK        -0.0881 
     11 C11       -52.6917  -25.2957    7.6712 C.ar      14 UNK        -0.0643 
     12 C12       -53.8965  -25.6423    8.2908 C.ar      14 UNK        -0.0930 
     13 C13       -54.2033  -26.9805    8.5543 C.ar      14 UNK        -0.0827 
     14 C14       -53.2909  -27.9764    8.1946 C.ar      14 UNK        -0.1249 
     15 C15       -55.5333  -27.3500    9.1958 C.3       14 UNK         0.0141 
     16 S16       -55.7245  -26.6399   10.8614 S.3       14 UNK        -0.2313 
     17 C17       -57.4242  -27.1901   11.2505 C.3       14 UNK        -0.0915 
     18 CA        -57.5385  -28.0502   12.5364 C.3       13 UNK         0.0968 
     19 C         -56.8129  -29.4231   12.4083 C.2       13 UNK         0.5732 
     20 N         -55.8384  -29.7544   13.2468 N.am      13 UNK        -0.7310 
     21 O         -57.1559  -30.2128   11.5315 O.2       13 UNK        -0.5035 
     22 N         -57.1926  -27.2647   13.7279 N.am      13 UNK        -0.4233 
     23 C         -57.6259  -27.5193   14.9677 C.2       13 UNK         0.4989 
     24 O         -58.4209  -28.4157   15.2581 O.2       13 UNK        -0.4996 
     25 CA        -57.0609  -26.6138   16.0782 C.3       12 UNK         0.0216 
     26 CB        -58.1950  -25.9697   16.8942 C.3       12 UNK        -0.1964 
     27 N         -56.1458  -27.3126   16.9887 N.am      12 UNK        -0.4276 
     28 C         -55.0843  -28.0445   16.6246 C.2       12 UNK         0.5020 
     29 O         -54.7872  -28.2983   15.4570 O.2       12 UNK        -0.5489 
     30 CA        -54.2035  -28.5975   17.7456 C.3       11 UNK         0.0294 
     31 CB        -54.5486  -30.0704   18.0339 C.3       11 UNK        -0.2019 
     32 N         -52.8079  -28.4682   17.3311 N.am      11 UNK        -0.4493 
     33 C         -51.7546  -28.4860   18.1575 C.2       11 UNK         0.4932 
     34 O         -51.8423  -28.6440   19.3758 O.2       11 UNK        -0.5029 
     35 CA        -50.3708  -28.2724   17.5292 C.3       10 UNK         0.0280 
     36 CB        -49.9363  -29.5041   16.7163 C.3       10 UNK        -0.1976 
     37 N         -50.3740  -27.0869   16.6732 N.am      10 UNK        -0.4242 
     38 C         -50.0104  -25.8579   17.0686 C.2       10 UNK         0.5072 
     39 O         -49.5635  -25.6041   18.1884 O.2       10 UNK        -0.5224 
     40 CA        -50.1583  -24.7064   16.0541 C.3       9 UNK         0.0343 
     41 CB        -48.8204  -24.4406   15.3452 C.3       9 UNK        -0.2003 
     42 N         -51.1969  -24.9466   15.0505 N.am      9 UNK        -0.4272 
     43 C         -52.5136  -24.9513   15.3125 C.2       9 UNK         0.4988 
     44 O         -52.9910  -24.6513   16.4071 O.2       9 UNK        -0.5108 
     45 CA        -53.4686  -25.3784   14.1805 C.3       8 UNK         0.0248 
     46 CB        -54.0512  -24.1395   13.4812 C.3       8 UNK        -0.2001 
     47 N         -52.8845  -26.2663   13.1707 N.am      8 UNK        -0.4140 
     48 C         -52.2147  -27.4086   13.3905 C.2       8 UNK         0.5028 
     49 O         -52.0099  -27.8932   14.5036 O.2       8 UNK        -0.5428 
     50 CA        -51.5742  -28.0709   12.1607 C.3       7 UNK         0.0264 
     51 CB        -52.5382  -29.0928   11.5390 C.3       7 UNK        -0.1988 
     52 N         -51.1276  -27.1200   11.1337 N.am      7 UNK        -0.4454 
     53 C         -50.2702  -26.1061   11.3304 C.2       7 UNK         0.5027 
     54 O         -49.8094  -25.7951   12.4322 O.2       7 UNK        -0.5083 
     55 CA        -49.9261  -25.2598   10.0932 C.3       6 UNK         0.0844 
     56 C56       -50.9307  -24.0900    9.9329 C.3       14 UNK        -0.0967 
     57 S57       -50.7874  -23.3280    8.2786 S.3       14 UNK        -0.2604 
     58 C58       -52.3410  -23.8281    7.4551 C.3       14 UNK         0.0134 
     59 N         -48.5539  -24.7635   10.1597 N.am      6 UNK        -0.4116 
     60 C         -47.4362  -25.4913   10.0671 C.2       5 UNK         0.5034 
     61 O         -47.4117  -26.7066    9.8546 O.2       5 UNK        -0.5045 
     62 CA        -46.1262  -24.6942   10.2178 C.3       5 UNK         0.0224 
     63 CB        -44.8674  -25.5758   10.1626 C.3       5 UNK        -0.1978 
     64 N         -46.0194  -23.6475    9.1977 N.am      5 UNK        -0.4737 
     65 C         -46.5969  -22.4394    9.2701 C.2       4 UNK         0.5027 
     66 O         -47.3020  -22.0900   10.2177 O.2       4 UNK        -0.5211 
     67 CA        -46.3569  -21.4512    8.1138 C.3       4 UNK         0.0297 
     68 CB        -45.4168  -20.3205    8.5635 C.3       4 UNK        -0.1993 
     69 N         -45.7998  -22.0840    6.9161 N.am      4 UNK        -0.4486 
     70 C         -46.5085  -22.7967    6.0316 C.2       3 UNK         0.4961 
     71 O         -47.7292  -22.9470    6.0975 O.2       3 UNK        -0.5105 
     72 CA        -45.7358  -23.4512    4.8683 C.3       3 UNK         0.0299 
     73 CB        -44.1967  -23.3319    4.9737 C.3       3 UNK        -0.1972 
     74 N         -46.1287  -24.8517    4.6770 N.am      3 UNK        -0.4305 
     75 C         -46.0406  -25.8424    5.5762 C.2       2 UNK         0.5006 
     76 O         -45.5911  -25.7131    6.7184 O.2       2 UNK        -0.5106 
     77 CA        -46.4988  -27.2215    5.0911 C.3       2 UNK         0.0296 
     78 CB        -45.4452  -27.8432    4.1510 C.3       2 UNK        -0.2002 
     79 N         -46.7200  -28.0907    6.2436 N.am      2 UNK        -0.4032 
     80 C         -47.4071  -29.2401    6.2299 C.2       1 UNK         0.5000 
     81 O         -47.9626  -29.6803    5.2207 O.2       1 UNK        -0.5238 
     82 H82       -44.0165  -28.4346    9.8486 H         1 UNK         0.0889 
     83 H83       -44.3930  -29.8781   10.7909 H         1 UNK         0.0889 
     84 H84       -45.5539  -28.5554   10.7197 H         1 UNK         0.0889 
     85 H85       -47.2076  -28.7727    9.1990 H         1 UNK         0.3028 
     86 H86       -47.0326  -31.0185    7.2874 H         1 UNK         0.0864 
     87 H87       -49.4766  -30.8715    7.1409 H         1 UNK         0.0720 
     88 H88       -48.9244  -31.1128    8.7656 H         1 UNK         0.0720 
     89 H89       -51.6064  -29.6684    7.0155 H         1 UNK         0.0814 
     90 H90       -50.5625  -28.4701    6.2819 H         1 UNK         0.0814 
     91 H91       -50.8712  -26.0393    6.8045 H         1 UNK         0.1469 
     92 H92       -54.5962  -24.8704    8.5816 H         1 UNK         0.1381 
     93 H93       -53.5144  -29.0136    8.4051 H         1 UNK         0.1206 
     94 H94       -56.3417  -26.9923    8.5565 H         1 UNK         0.0813 
     95 H95       -55.6439  -28.4339    9.2604 H         1 UNK         0.0813 
     96 H96       -58.0455  -26.2989   11.3509 H         1 UNK         0.0638 
     97 H97       -57.8414  -27.7352   10.4020 H         1 UNK         0.0638 
     98 H98       -58.5952  -28.3070   12.6327 H         1 UNK         0.0568 
     99 H99       -55.5338  -29.1232   13.9860 H         1 UNK         0.3450 
    100 H100      -55.3944  -30.6516   13.1472 H         1 UNK         0.3450 
    101 H101      -56.5010  -26.5453   13.5827 H         1 UNK         0.2987 
    102 H102      -56.4940  -25.8058   15.6121 H         1 UNK         0.0766 
    103 H103      -58.7702  -26.7149   17.4455 H         1 UNK         0.0798 
    104 H104      -57.8086  -25.2451   17.6114 H         1 UNK         0.0798 
    105 H105      -58.8909  -25.4382   16.2434 H         1 UNK         0.0798 
    106 H106      -56.3279  -27.1939   17.9748 H         1 UNK         0.3198 
    107 H107      -54.3608  -28.0018   18.6475 H         1 UNK         0.0843 
    108 H108      -55.5973  -30.1786   18.3134 H         1 UNK         0.0831 
    109 H109      -53.9528  -30.4688   18.8551 H         1 UNK         0.0831 
    110 H110      -54.3768  -30.6992   17.1592 H         1 UNK         0.0831 
    111 H111      -52.6725  -28.3197   16.3307 H         1 UNK         0.3133 
    112 H112      -49.6485  -28.1421   18.3380 H         1 UNK         0.0566 
    113 H113      -48.9371  -29.3705   16.3016 H         1 UNK         0.0814 
    114 H114      -49.9098  -30.3946   17.3456 H         1 UNK         0.0814 
    115 H115      -50.6154  -29.7116   15.8888 H         1 UNK         0.0814 
    116 H116      -50.8023  -27.2047   15.7575 H         1 UNK         0.3091 
    117 H117      -50.4304  -23.8084   16.6129 H         1 UNK         0.0702 
    118 H118      -48.8967  -23.6031   14.6515 H         1 UNK         0.0785 
    119 H119      -48.4829  -25.3119   14.7823 H         1 UNK         0.0785 
    120 H120      -48.0391  -24.1956   16.0659 H         1 UNK         0.0785 
    121 H121      -50.8766  -25.2177   14.1262 H         1 UNK         0.2998 
    122 H122      -54.2908  -25.9200   14.6439 H         1 UNK         0.0697 
    123 H123      -54.8194  -24.4112   12.7576 H         1 UNK         0.0825 
    124 H124      -53.2803  -23.5734   12.9568 H         1 UNK         0.0825 
    125 H125      -54.5156  -23.4657   14.2028 H         1 UNK         0.0825 
    126 H126      -52.9912  -25.9778   12.2099 H         1 UNK         0.3029 
    127 H127      -50.6880  -28.6058   12.5083 H         1 UNK         0.0897 
    128 H128      -52.0689  -29.6385   10.7204 H         1 UNK         0.0792 
    129 H129      -52.8539  -29.8289   12.2796 H         1 UNK         0.0792 
    130 H130      -53.4396  -28.6162   11.1541 H         1 UNK         0.0792 
    131 H131      -51.4473  -27.3023   10.1908 H         1 UNK         0.3086 
    132 H132      -49.9859  -25.9126    9.2224 H         1 UNK         0.0583 
    133 H133      -51.9590  -24.4175   10.0937 H         1 UNK         0.1020 
    134 H134      -50.7504  -23.3223   10.6880 H         1 UNK         0.1020 
    135 H135      -53.1436  -23.1835    7.8168 H         1 UNK         0.0694 
    136 H136      -52.2516  -23.6356    6.3852 H         1 UNK         0.0694 
    137 H137      -48.4443  -23.7671   10.3113 H         1 UNK         0.2989 
    138 H138      -46.1501  -24.2257   11.2046 H         1 UNK         0.1055 
    139 H139      -44.8062  -26.1385    9.2309 H         1 UNK         0.0806 
    140 H140      -44.8636  -26.2897   10.9859 H         1 UNK         0.0806 
    141 H141      -43.9597  -24.9792   10.2536 H         1 UNK         0.0806 
    142 H142      -45.5369  -23.9037    8.3460 H         1 UNK         0.3061 
    143 H143      -47.3231  -21.0094    7.8594 H         1 UNK         0.0734 
    144 H144      -45.8197  -19.8017    9.4346 H         1 UNK         0.0832 
    145 H145      -44.4310  -20.6982    8.8379 H         1 UNK         0.0832 
    146 H146      -45.2864  -19.5754    7.7783 H         1 UNK         0.0832 
    147 H147      -44.8010  -22.0111    6.7842 H         1 UNK         0.3156 
    148 H148      -46.0451  -22.9211    3.9664 H         1 UNK         0.0589 
    149 H149      -43.8065  -23.8024    5.8772 H         1 UNK         0.0808 
    150 H150      -43.7111  -23.8101    4.1229 H         1 UNK         0.0808 
    151 H151      -43.8756  -22.2895    4.9708 H         1 UNK         0.0808 
    152 H152      -46.5392  -25.0639    3.7783 H         1 UNK         0.3098 
    153 H153      -47.4438  -27.0990    4.5574 H         1 UNK         0.0720 
    154 H154      -45.7753  -28.8043    3.7570 H         1 UNK         0.0791 
    155 H155      -44.4960  -28.0017    4.6647 H         1 UNK         0.0791 
    156 H156      -45.2483  -27.1991    3.2932 H         1 UNK         0.0791 
    157 H157      -46.3245  -27.7497    7.1118 H         1 UNK         0.3028 
@<TRIPOS>BOND
     1    1    2 1    
     2    1   82 1    
     3    1   83 1    
     4    1   84 1    
     5    2    3 2    
     6    2    4 am   BACKBONE|DICT|INTERRES
     7    4    5 1    
     8    4   85 1    
     9    5    6 1    
    10    5   80 1    
    11    5   86 1    
    12    6    7 1    
    13    6   87 1    
    14    6   88 1    
    15    7    8 1    
    16    8    9 1    
    17    8   89 1    
    18    8   90 1    
    19    9   10 ar   
    20    9   14 ar   
    21   10   11 ar   
    22   10   91 1    
    23   11   12 ar   
    24   11   58 1    
    25   12   13 ar   
    26   12   92 1    
    27   13   14 ar   
    28   13   15 1    
    29   14   93 1    
    30   15   16 1    
    31   15   94 1    
    32   15   95 1    
    33   16   17 1    
    34   17   18 1    
    35   17   96 1    
    36   17   97 1    
    37   18   19 1    
    38   18   22 1    
    39   18   98 1    
    40   19   20 am   BACKBONE|DICT|INTERRES
    41   19   21 2    
    42   20   99 1    
    43   20  100 1    
    44   22   23 am   BACKBONE|DICT|INTERRES
    45   22  101 1    
    46   23   24 2    
    47   23   25 1    
    48   25   26 1    
    49   25   27 1    
    50   25  102 1    
    51   26  103 1    
    52   26  104 1    
    53   26  105 1    
    54   27   28 am   BACKBONE|DICT|INTERRES
    55   27  106 1    
    56   28   29 2    
    57   28   30 1    
    58   30   31 1    
    59   30   32 1    
    60   30  107 1    
    61   31  108 1    
    62   31  109 1    
    63   31  110 1    
    64   32   33 am   BACKBONE|DICT|INTERRES
    65   32  111 1    
    66   33   34 2    
    67   33   35 1    
    68   35   36 1    
    69   35   37 1    
    70   35  112 1    
    71   36  113 1    
    72   36  114 1    
    73   36  115 1    
    74   37   38 am   BACKBONE|DICT|INTERRES
    75   37  116 1    
    76   38   39 2    
    77   38   40 1    
    78   40   41 1    
    79   40   42 1    
    80   40  117 1    
    81   41  118 1    
    82   41  119 1    
    83   41  120 1    
    84   42   43 am   BACKBONE|DICT|INTERRES
    85   42  121 1    
    86   43   44 2    
    87   43   45 1    
    88   45   46 1    
    89   45   47 1    
    90   45  122 1    
    91   46  123 1    
    92   46  124 1    
    93   46  125 1    
    94   47   48 am   BACKBONE|DICT|INTERRES
    95   47  126 1    
    96   48   49 2    
    97   48   50 1    
    98   50   51 1    
    99   50   52 1    
   100   50  127 1    
   101   51  128 1    
   102   51  129 1    
   103   51  130 1    
   104   52   53 am   BACKBONE|DICT|INTERRES
   105   52  131 1    
   106   53   54 2    
   107   53   55 1    
   108   55   56 1    
   109   55   59 1    
   110   55  132 1    
   111   56   57 1    
   112   56  133 1    
   113   56  134 1    
   114   57   58 1    
   115   58  135 1    
   116   58  136 1    
   117   59   60 am   BACKBONE|DICT|INTERRES
   118   59  137 1    
   119   60   61 2    
   120   60   62 1    
   121   62   63 1    
   122   62   64 1    
   123   62  138 1    
   124   63  139 1    
   125   63  140 1    
   126   63  141 1    
   127   64   65 am   BACKBONE|DICT|INTERRES
   128   64  142 1    
   129   65   66 2    
   130   65   67 1    
   131   67   68 1    
   132   67   69 1    
   133   67  143 1    
   134   68  144 1    
   135   68  145 1    
   136   68  146 1    
   137   69   70 am   BACKBONE|DICT|INTERRES
   138   69  147 1    
   139   70   71 2    
   140   70   72 1    
   141   72   73 1    
   142   72   74 1    
   143   72  148 1    
   144   73  149 1    
   145   73  150 1    
   146   73  151 1    
   147   74   75 am   BACKBONE|DICT|INTERRES
   148   74  152 1    
   149   75   76 2    
   150   75   77 1    
   151   77   78 1    
   152   77   79 1    
   153   77  153 1    
   154   78  154 1    
   155   78  155 1    
   156   78  156 1    
   157   79   80 am   BACKBONE|DICT|INTERRES
   158   79  157 1    
   159   80   81 2    
@<TRIPOS>SUBSTRUCTURE
     1 UNK         1 GROUP             0       ****    0 ROOT    
