@<TRIPOS>MOLECULE
3R207
157   159    1
SMALL
USER_CHARGES


@<TRIPOS>ATOM
      1 CA        -51.1021  -28.7205    9.7240 C.3       0 UNK        -0.1975 
      2 C         -50.4709  -29.1735    8.4162 C.2       0 UNK         0.4852 
      3 O         -49.5429  -29.9821    8.4349 O.2       0 UNK        -0.5216 
      4 N         -50.9574  -28.6503    7.2809 N.am      1 UNK        -0.4461 
      5 CA        -50.4343  -28.9310    5.9329 C.3       1 UNK         0.0864 
      6 C6        -51.3865  -28.4248    4.8187 C.3       14 UNK        -0.0898 
      7 S7        -52.9561  -29.3493    4.7470 S.3       14 UNK        -0.2598 
      8 C8        -54.1883  -28.0338    5.0043 C.3       14 UNK         0.0286 
      9 C9        -54.2912  -27.6581    6.4726 C.ar      14 UNK        -0.0844 
     10 C10       -53.6736  -26.5026    6.9598 C.ar      14 UNK        -0.0881 
     11 C11       -53.7385  -26.1868    8.3204 C.ar      14 UNK        -0.0643 
     12 C12       -54.4423  -27.0270    9.1885 C.ar      14 UNK        -0.0930 
     13 C13       -55.0838  -28.1731    8.7074 C.ar      14 UNK        -0.0827 
     14 C14       -55.0021  -28.4826    7.3483 C.ar      14 UNK        -0.1249 
     15 C15       -55.8188  -29.1096    9.6555 C.3       14 UNK         0.0141 
     16 S16       -57.0689  -28.2530   10.6635 S.3       14 UNK        -0.2313 
     17 C17       -57.7561  -29.6338   11.6393 C.3       14 UNK        -0.0915 
     18 CA        -57.0297  -29.8209   13.0053 C.3       13 UNK         0.0968 
     19 C         -57.8537  -30.6362   14.0512 C.2       13 UNK         0.5732 
     20 N         -57.2225  -31.3439   14.9829 N.am      13 UNK        -0.7310 
     21 O         -59.0824  -30.6038   14.0474 O.2       13 UNK        -0.5035 
     22 N         -55.6370  -30.2754   12.8569 N.am      13 UNK        -0.4233 
     23 C         -55.2363  -31.4798   12.4164 C.2       13 UNK         0.4989 
     24 O         -55.9996  -32.3377   11.9720 O.2       13 UNK        -0.4996 
     25 CA        -53.7297  -31.8045   12.4925 C.3       12 UNK         0.0216 
     26 CB        -53.0836  -31.7334   11.0986 C.3       12 UNK        -0.1964 
     27 N         -52.9789  -30.9503   13.4179 N.am      12 UNK        -0.4276 
     28 C         -53.1810  -30.8833   14.7412 C.2       12 UNK         0.5020 
     29 O         -53.9805  -31.5977   15.3485 O.2       12 UNK        -0.5489 
     30 CA        -52.4033  -29.8009   15.5099 C.3       11 UNK         0.0294 
     31 CB        -51.1339  -30.3973   16.1391 C.3       11 UNK        -0.2019 
     32 N         -52.0395  -28.6117   14.7263 N.am      11 UNK        -0.4493 
     33 C         -52.8859  -27.7989   14.0720 C.2       11 UNK         0.4932 
     34 O         -54.0823  -28.0450   13.9112 O.2       11 UNK        -0.5029 
     35 CA        -52.2795  -26.4897   13.5206 C.3       10 UNK         0.0280 
     36 CB        -53.3581  -25.4610   13.1135 C.3       10 UNK        -0.1976 
     37 N         -51.2990  -25.9011   14.4492 N.am      10 UNK        -0.4242 
     38 C         -51.5437  -25.5033   15.7097 C.2       10 UNK         0.5072 
     39 O         -52.6703  -25.4397   16.2038 O.2       10 UNK        -0.5224 
     40 CA        -50.3449  -25.1866   16.6124 C.3       9 UNK         0.0343 
     41 CB        -49.9104  -26.4611   17.3661 C.3       9 UNK        -0.2003 
     42 N         -49.1974  -24.5933   15.9184 N.am      9 UNK        -0.4272 
     43 C         -48.2528  -23.8836   16.5529 C.2       9 UNK         0.4988 
     44 O         -48.2857  -23.6168   17.7557 O.2       9 UNK        -0.5108 
     45 CA        -47.0514  -23.4032   15.7264 C.3       8 UNK         0.0248 
     46 CB        -46.0549  -24.5548   15.5158 C.3       8 UNK        -0.2001 
     47 N         -47.4202  -22.8113   14.4393 N.am      8 UNK        -0.4140 
     48 C         -48.0961  -21.6608   14.2996 C.2       8 UNK         0.5028 
     49 O         -48.4925  -20.9771   15.2447 O.2       8 UNK        -0.5428 
     50 CA        -48.3701  -21.1788   12.8651 C.3       7 UNK         0.0264 
     51 CB        -47.1371  -20.4622   12.2913 C.3       7 UNK        -0.1988 
     52 N         -48.7772  -22.2619   11.9678 N.am      7 UNK        -0.4454 
     53 C         -49.9433  -22.9185   12.0611 C.2       7 UNK         0.5027 
     54 O         -50.8240  -22.6303   12.8718 O.2       7 UNK        -0.5083 
     55 CA        -50.1561  -24.1215   11.1205 C.3       6 UNK         0.0844 
     56 C56       -50.6943  -23.6760    9.7409 C.3       14 UNK        -0.0967 
     57 S57       -51.2380  -25.1055    8.7460 S.3       14 UNK        -0.2604 
     58 C58       -53.0448  -24.9427    8.8521 C.3       14 UNK         0.0134 
     59 N         -48.9558  -24.9522   11.0098 N.am      6 UNK        -0.4116 
     60 C         -48.3792  -25.6156   12.0209 C.2       5 UNK         0.5034 
     61 O         -48.8169  -25.6445   13.1739 O.2       5 UNK        -0.5045 
     62 CA        -47.0658  -26.3380   11.6931 C.3       5 UNK         0.0224 
     63 CB        -47.3421  -27.6826   11.0001 C.3       5 UNK        -0.1978 
     64 N         -46.1796  -25.5161   10.8628 N.am      5 UNK        -0.4737 
     65 C         -45.5798  -24.3937   11.2853 C.2       4 UNK         0.5027 
     66 O         -45.6996  -23.9435   12.4223 O.2       4 UNK        -0.5211 
     67 CA        -44.7367  -23.6199   10.2593 C.3       4 UNK         0.0297 
     68 CB        -43.3502  -24.2633   10.1004 C.3       4 UNK        -0.1993 
     69 N         -45.3877  -23.5175    8.9526 N.am      4 UNK        -0.4486 
     70 C         -46.5374  -22.8665    8.7262 C.2       3 UNK         0.4961 
     71 O         -47.1649  -22.2534    9.5882 O.2       3 UNK        -0.5105 
     72 CA        -47.1147  -22.9640    7.3051 C.3       3 UNK         0.0299 
     73 CB        -46.4759  -21.9092    6.3879 C.3       3 UNK        -0.1972 
     74 N         -46.9809  -24.2948    6.7007 N.am      3 UNK        -0.4305 
     75 C         -47.4620  -25.4248    7.2352 C.2       2 UNK         0.5006 
     76 O         -47.9973  -25.4946    8.3436 O.2       2 UNK        -0.5106 
     77 CA        -47.3075  -26.7026    6.4151 C.3       2 UNK         0.0296 
     78 CB        -46.1462  -27.5613    6.9494 C.3       2 UNK        -0.2002 
     79 N         -48.5715  -27.4187    6.5221 N.am      2 UNK        -0.4032 
     80 C         -49.0124  -28.3705    5.6927 C.2       1 UNK         0.5000 
     81 O         -48.3521  -28.8001    4.7441 O.2       1 UNK        -0.5238 
     82 H82       -50.9588  -29.4742   10.4974 H         1 UNK         0.0889 
     83 H83       -50.6404  -27.7942   10.0651 H         1 UNK         0.0889 
     84 H84       -52.1712  -28.5537    9.6075 H         1 UNK         0.0889 
     85 H85       -51.7453  -28.0173    7.3230 H         1 UNK         0.3028 
     86 H86       -50.3496  -30.0158    5.8370 H         1 UNK         0.0864 
     87 H87       -50.9250  -28.5370    3.8352 H         1 UNK         0.0720 
     88 H88       -51.5787  -27.3571    4.9356 H         1 UNK         0.0720 
     89 H89       -55.1590  -28.3885    4.6543 H         1 UNK         0.0814 
     90 H90       -53.9447  -27.1656    4.3898 H         1 UNK         0.0814 
     91 H91       -53.1268  -25.8549    6.2877 H         1 UNK         0.1469 
     92 H92       -54.4918  -26.7948   10.2426 H         1 UNK         0.1381 
     93 H93       -55.4757  -29.3780    6.9689 H         1 UNK         0.1206 
     94 H94       -56.2994  -29.9217    9.1077 H         1 UNK         0.0813 
     95 H95       -55.0794  -29.5659   10.3080 H         1 UNK         0.0813 
     96 H96       -58.8091  -29.3937   11.7940 H         1 UNK         0.0638 
     97 H97       -57.7457  -30.5522   11.0513 H         1 UNK         0.0638 
     98 H98       -56.9540  -28.8330   13.4609 H         1 UNK         0.0568 
     99 H99       -56.2119  -31.3764   15.0148 H         1 UNK         0.3450 
    100 H100      -57.7636  -31.8564   15.6607 H         1 UNK         0.3450 
    101 H101      -54.9440  -29.6223   13.2112 H         1 UNK         0.2987 
    102 H102      -53.6455  -32.8317   12.8537 H         1 UNK         0.0766 
    103 H103      -53.6136  -32.3700   10.3884 H         1 UNK         0.0798 
    104 H104      -52.0481  -32.0735   11.1227 H         1 UNK         0.0798 
    105 H105      -53.0947  -30.7209   10.6976 H         1 UNK         0.0798 
    106 H106      -52.3032  -30.3187   13.0147 H         1 UNK         0.3198 
    107 H107      -53.0546  -29.4602   16.3177 H         1 UNK         0.0843 
    108 H108      -50.6385  -29.6802   16.7939 H         1 UNK         0.0831 
    109 H109      -50.4168  -30.7142   15.3807 H         1 UNK         0.0831 
    110 H110      -51.3731  -31.2720   16.7460 H         1 UNK         0.0831 
    111 H111      -51.0738  -28.3239   14.7851 H         1 UNK         0.3133 
    112 H112      -51.7262  -26.7650   12.6217 H         1 UNK         0.0566 
    113 H113      -53.9820  -25.8484   12.3087 H         1 UNK         0.0814 
    114 H114      -54.0231  -25.2213   13.9434 H         1 UNK         0.0814 
    115 H115      -52.9182  -24.5277   12.7649 H         1 UNK         0.0814 
    116 H116      -50.3394  -25.8972   14.1094 H         1 UNK         0.3091 
    117 H117      -50.7087  -24.4638   17.3464 H         1 UNK         0.0702 
    118 H118      -49.4553  -27.1892   16.6939 H         1 UNK         0.0785 
    119 H119      -50.7621  -26.9456   17.8462 H         1 UNK         0.0785 
    120 H120      -49.1888  -26.2361   18.1514 H         1 UNK         0.0785 
    121 H121      -49.0967  -24.7690   14.9236 H         1 UNK         0.2998 
    122 H122      -46.5447  -22.6295   16.3073 H         1 UNK         0.0697 
    123 H123      -45.1330  -24.2009   15.0543 H         1 UNK         0.0825 
    124 H124      -45.7820  -25.0164   16.4658 H         1 UNK         0.0825 
    125 H125      -46.4699  -25.3370   14.8795 H         1 UNK         0.0825 
    126 H126      -47.0557  -23.2721   13.6091 H         1 UNK         0.3029 
    127 H127      -49.1884  -20.4567   12.9114 H         1 UNK         0.0897 
    128 H128      -47.3500  -20.0310   11.3130 H         1 UNK         0.0792 
    129 H129      -46.8194  -19.6468   12.9426 H         1 UNK         0.0792 
    130 H130      -46.2908  -21.1412   12.1793 H         1 UNK         0.0792 
    131 H131      -48.1282  -22.5030   11.2220 H         1 UNK         0.3086 
    132 H132      -50.9210  -24.7447   11.5827 H         1 UNK         0.0583 
    133 H133      -51.5272  -22.9788    9.8528 H         1 UNK         0.1020 
    134 H134      -49.9239  -23.1393    9.1844 H         1 UNK         0.1020 
    135 H135      -53.3291  -24.7600    9.8897 H         1 UNK         0.0694 
    136 H136      -53.3660  -24.0709    8.2803 H         1 UNK         0.0694 
    137 H137      -48.5481  -25.0323   10.0806 H         1 UNK         0.2989 
    138 H138      -46.5551  -26.5386   12.6375 H         1 UNK         0.1055 
    139 H139      -47.9718  -28.3193   11.6232 H         1 UNK         0.0806 
    140 H140      -47.8556  -27.5557   10.0466 H         1 UNK         0.0806 
    141 H141      -46.4179  -28.2291   10.8118 H         1 UNK         0.0806 
    142 H142      -46.0931  -25.7749    9.8905 H         1 UNK         0.3061 
    143 H143      -44.5997  -22.6064   10.6429 H         1 UNK         0.0734 
    144 H144      -42.7114  -23.6729    9.4433 H         1 UNK         0.0832 
    145 H145      -42.8425  -24.3344   11.0635 H         1 UNK         0.0832 
    146 H146      -43.4137  -25.2723    9.6910 H         1 UNK         0.0832 
    147 H147      -44.9508  -23.9982    8.1800 H         1 UNK         0.3156 
    148 H148      -48.1830  -22.7486    7.3739 H         1 UNK         0.0589 
    149 H149      -46.9546  -21.8916    5.4086 H         1 UNK         0.0808 
    150 H150      -46.5787  -20.9097    6.8132 H         1 UNK         0.0808 
    151 H151      -45.4109  -22.0916    6.2390 H         1 UNK         0.0808 
    152 H152      -46.5444  -24.3353    5.7906 H         1 UNK         0.3098 
    153 H153      -47.1273  -26.4445    5.3694 H         1 UNK         0.0720 
    154 H154      -45.2035  -27.0144    6.9107 H         1 UNK         0.0791 
    155 H155      -46.3107  -27.8615    7.9850 H         1 UNK         0.0791 
    156 H156      -46.0177  -28.4679    6.3579 H         1 UNK         0.0791 
    157 H157      -49.1688  -27.0987    7.2749 H         1 UNK         0.3028 
@<TRIPOS>BOND
     1    1    2 1    
     2    1   82 1    
     3    1   83 1    
     4    1   84 1    
     5    2    3 2    
     6    2    4 am   BACKBONE|DICT|INTERRES
     7    4    5 1    
     8    4   85 1    
     9    5    6 1    
    10    5   80 1    
    11    5   86 1    
    12    6    7 1    
    13    6   87 1    
    14    6   88 1    
    15    7    8 1    
    16    8    9 1    
    17    8   89 1    
    18    8   90 1    
    19    9   10 ar   
    20    9   14 ar   
    21   10   11 ar   
    22   10   91 1    
    23   11   12 ar   
    24   11   58 1    
    25   12   13 ar   
    26   12   92 1    
    27   13   14 ar   
    28   13   15 1    
    29   14   93 1    
    30   15   16 1    
    31   15   94 1    
    32   15   95 1    
    33   16   17 1    
    34   17   18 1    
    35   17   96 1    
    36   17   97 1    
    37   18   19 1    
    38   18   22 1    
    39   18   98 1    
    40   19   20 am   BACKBONE|DICT|INTERRES
    41   19   21 2    
    42   20   99 1    
    43   20  100 1    
    44   22   23 am   BACKBONE|DICT|INTERRES
    45   22  101 1    
    46   23   24 2    
    47   23   25 1    
    48   25   26 1    
    49   25   27 1    
    50   25  102 1    
    51   26  103 1    
    52   26  104 1    
    53   26  105 1    
    54   27   28 am   BACKBONE|DICT|INTERRES
    55   27  106 1    
    56   28   29 2    
    57   28   30 1    
    58   30   31 1    
    59   30   32 1    
    60   30  107 1    
    61   31  108 1    
    62   31  109 1    
    63   31  110 1    
    64   32   33 am   BACKBONE|DICT|INTERRES
    65   32  111 1    
    66   33   34 2    
    67   33   35 1    
    68   35   36 1    
    69   35   37 1    
    70   35  112 1    
    71   36  113 1    
    72   36  114 1    
    73   36  115 1    
    74   37   38 am   BACKBONE|DICT|INTERRES
    75   37  116 1    
    76   38   39 2    
    77   38   40 1    
    78   40   41 1    
    79   40   42 1    
    80   40  117 1    
    81   41  118 1    
    82   41  119 1    
    83   41  120 1    
    84   42   43 am   BACKBONE|DICT|INTERRES
    85   42  121 1    
    86   43   44 2    
    87   43   45 1    
    88   45   46 1    
    89   45   47 1    
    90   45  122 1    
    91   46  123 1    
    92   46  124 1    
    93   46  125 1    
    94   47   48 am   BACKBONE|DICT|INTERRES
    95   47  126 1    
    96   48   49 2    
    97   48   50 1    
    98   50   51 1    
    99   50   52 1    
   100   50  127 1    
   101   51  128 1    
   102   51  129 1    
   103   51  130 1    
   104   52   53 am   BACKBONE|DICT|INTERRES
   105   52  131 1    
   106   53   54 2    
   107   53   55 1    
   108   55   56 1    
   109   55   59 1    
   110   55  132 1    
   111   56   57 1    
   112   56  133 1    
   113   56  134 1    
   114   57   58 1    
   115   58  135 1    
   116   58  136 1    
   117   59   60 am   BACKBONE|DICT|INTERRES
   118   59  137 1    
   119   60   61 2    
   120   60   62 1    
   121   62   63 1    
   122   62   64 1    
   123   62  138 1    
   124   63  139 1    
   125   63  140 1    
   126   63  141 1    
   127   64   65 am   BACKBONE|DICT|INTERRES
   128   64  142 1    
   129   65   66 2    
   130   65   67 1    
   131   67   68 1    
   132   67   69 1    
   133   67  143 1    
   134   68  144 1    
   135   68  145 1    
   136   68  146 1    
   137   69   70 am   BACKBONE|DICT|INTERRES
   138   69  147 1    
   139   70   71 2    
   140   70   72 1    
   141   72   73 1    
   142   72   74 1    
   143   72  148 1    
   144   73  149 1    
   145   73  150 1    
   146   73  151 1    
   147   74   75 am   BACKBONE|DICT|INTERRES
   148   74  152 1    
   149   75   76 2    
   150   75   77 1    
   151   77   78 1    
   152   77   79 1    
   153   77  153 1    
   154   78  154 1    
   155   78  155 1    
   156   78  156 1    
   157   79   80 am   BACKBONE|DICT|INTERRES
   158   79  157 1    
   159   80   81 2    
@<TRIPOS>SUBSTRUCTURE
     1 UNK         1 GROUP             0       ****    0 ROOT    
