@<TRIPOS>MOLECULE
3R207
157   159    1
SMALL
USER_CHARGES


@<TRIPOS>ATOM
      1 CA        -49.0958  -29.5245    2.5484 C.3       0 UNK        -0.1975 
      2 C         -50.0051  -28.3664    2.9299 C.2       0 UNK         0.4852 
      3 O         -50.0782  -27.3759    2.2008 O.2       0 UNK        -0.5216 
      4 N         -50.6896  -28.4708    4.0760 N.am      1 UNK        -0.4461 
      5 CA        -51.6225  -27.4829    4.6358 C.3       1 UNK         0.0864 
      6 C6        -52.6375  -28.1509    5.6048 C.3       14 UNK        -0.0898 
      7 S7        -51.8866  -29.2426    6.8680 S.3       14 UNK        -0.2598 
      8 C8        -52.3007  -28.3618    8.4041 C.3       14 UNK         0.0286 
      9 C9        -52.0143  -29.2284    9.6198 C.ar      14 UNK        -0.0844 
     10 C10       -50.7641  -29.1837   10.2468 C.ar      14 UNK        -0.0881 
     11 C11       -50.5010  -29.9825   11.3685 C.ar      14 UNK        -0.0643 
     12 C12       -51.5121  -30.8153   11.8568 C.ar      14 UNK        -0.0930 
     13 C13       -52.7699  -30.8579   11.2498 C.ar      14 UNK        -0.0827 
     14 C14       -53.0106  -30.0703   10.1227 C.ar      14 UNK        -0.1249 
     15 C15       -53.8581  -31.7547   11.8238 C.3       14 UNK         0.0141 
     16 S16       -54.4233  -31.1391   13.4427 S.3       14 UNK        -0.2313 
     17 C17       -56.1362  -30.5805   13.1513 C.3       14 UNK        -0.0915 
     18 CA        -56.3538  -29.5576   12.0032 C.3       13 UNK         0.0968 
     19 C         -57.8540  -29.1405   11.9399 C.2       13 UNK         0.5732 
     20 N         -58.2233  -27.9056   12.2639 N.am      13 UNK        -0.7310 
     21 O         -58.7002  -29.9580   11.5852 O.2       13 UNK        -0.5035 
     22 N         -55.4151  -28.4271   12.0598 N.am      13 UNK        -0.4233 
     23 C         -55.2153  -27.5768   11.0423 C.2       13 UNK         0.4989 
     24 O         -55.7133  -27.7328    9.9255 O.2       13 UNK        -0.4996 
     25 CA        -54.3131  -26.3508   11.2975 C.3       12 UNK         0.0216 
     26 CB        -54.6647  -25.1654   10.3756 C.3       12 UNK        -0.1964 
     27 N         -54.2609  -25.8927   12.6910 N.am      12 UNK        -0.4276 
     28 C         -55.2757  -25.6202   13.5248 C.2       12 UNK         0.5020 
     29 O         -56.4671  -25.7359   13.2281 O.2       12 UNK        -0.5489 
     30 CA        -54.8628  -25.1811   14.9443 C.3       11 UNK         0.0294 
     31 CB        -56.0224  -25.2467   15.9609 C.3       11 UNK        -0.2019 
     32 N         -53.6846  -25.9166   15.4290 N.am      11 UNK        -0.4493 
     33 C         -53.5769  -27.2394   15.6294 C.2       11 UNK         0.4932 
     34 O         -54.5155  -28.0260   15.5028 O.2       11 UNK        -0.5029 
     35 CA        -52.1863  -27.8002   15.9882 C.3       10 UNK         0.0280 
     36 CB        -51.6784  -28.7332   14.8775 C.3       10 UNK        -0.1976 
     37 N         -51.1624  -26.7814   16.2358 N.am      10 UNK        -0.4242 
     38 C         -51.0372  -26.0690   17.3640 C.2       10 UNK         0.5072 
     39 O         -51.8105  -26.1515   18.3185 O.2       10 UNK        -0.5224 
     40 CA        -49.8473  -25.0994   17.4361 C.3       9 UNK         0.0343 
     41 CB        -48.5560  -25.8495   17.8031 C.3       9 UNK        -0.2003 
     42 N         -49.6563  -24.3894   16.1706 N.am      9 UNK        -0.4272 
     43 C         -50.2869  -23.2537   15.8392 C.2       9 UNK         0.4988 
     44 O         -51.0524  -22.6508   16.5919 O.2       9 UNK        -0.5108 
     45 CA        -50.0338  -22.6944   14.4263 C.3       8 UNK         0.0248 
     46 CB        -48.8546  -21.7092   14.4429 C.3       8 UNK        -0.2001 
     47 N         -49.7938  -23.7318   13.4182 N.am      8 UNK        -0.4140 
     48 C         -50.7068  -24.6445   13.0533 C.2       8 UNK         0.5028 
     49 O         -51.8538  -24.6811   13.4958 O.2       8 UNK        -0.5428 
     50 CA        -50.2710  -25.7388   12.0714 C.3       7 UNK         0.0264 
     51 CB        -50.5301  -25.3011   10.6222 C.3       7 UNK        -0.1988 
     52 N         -48.8773  -26.1570   12.2271 N.am      7 UNK        -0.4454 
     53 C         -48.3513  -26.7017   13.3363 C.2       7 UNK         0.5027 
     54 O         -48.9641  -26.7962   14.4013 O.2       7 UNK        -0.5083 
     55 CA        -46.8998  -27.2148   13.2545 C.3       6 UNK         0.0844 
     56 C56       -46.7681  -28.6809   12.7488 C.3       14 UNK        -0.0967 
     57 S57       -47.7699  -29.1440   11.2874 S.3       14 UNK        -0.2604 
     58 C58       -49.1752  -29.9552   12.1288 C.3       14 UNK         0.0134 
     59 N         -46.0743  -26.2757   12.4924 N.am      6 UNK        -0.4116 
     60 C         -45.2010  -25.4234   13.0498 C.2       5 UNK         0.5034 
     61 O         -44.9219  -25.4087   14.2495 O.2       5 UNK        -0.5045 
     62 CA        -44.5190  -24.3945   12.1299 C.3       5 UNK         0.0224 
     63 CB        -43.1658  -24.9314   11.6362 C.3       5 UNK        -0.1978 
     64 N         -45.3229  -23.9842   10.9769 N.am      5 UNK        -0.4737 
     65 C         -46.5256  -23.3962   11.0352 C.2       4 UNK         0.5027 
     66 O         -47.1194  -23.1319   12.0806 O.2       4 UNK        -0.5211 
     67 CA        -47.2039  -23.1011    9.6882 C.3       4 UNK         0.0297 
     68 CB        -46.7397  -21.7411    9.1445 C.3       4 UNK        -0.1993 
     69 N         -47.0108  -24.1281    8.6549 N.am      4 UNK        -0.4486 
     70 C         -47.1843  -25.4519    8.7824 C.2       3 UNK         0.4961 
     71 O         -47.4216  -26.0132    9.8530 O.2       3 UNK        -0.5105 
     72 CA        -47.0996  -26.2750    7.4841 C.3       3 UNK         0.0299 
     73 CB        -47.2871  -27.7840    7.7283 C.3       3 UNK        -0.1972 
     74 N         -48.1033  -25.8308    6.5162 N.am      3 UNK        -0.4305 
     75 C         -48.0204  -24.7536    5.7251 C.2       2 UNK         0.5006 
     76 O         -47.0423  -24.0030    5.7253 O.2       2 UNK        -0.5106 
     77 CA        -49.2195  -24.4453    4.7997 C.3       2 UNK         0.0296 
     78 CB        -48.7777  -23.7447    3.5014 C.3       2 UNK        -0.2002 
     79 N         -50.0269  -25.6191    4.4465 N.am      2 UNK        -0.4032 
     80 C         -50.8981  -26.2554    5.2396 C.2       1 UNK         0.5000 
     81 O         -51.0984  -25.9188    6.4072 O.2       1 UNK        -0.5238 
     82 H82       -48.0648  -29.1811    2.4684 H         1 UNK         0.0889 
     83 H83       -49.3952  -29.9336    1.5839 H         1 UNK         0.0889 
     84 H84       -49.1300  -30.3286    3.2833 H         1 UNK         0.0889 
     85 H85       -50.5706  -29.2957    4.6485 H         1 UNK         0.3028 
     86 H86       -52.2092  -27.0839    3.8052 H         1 UNK         0.0864 
     87 H87       -53.3197  -28.7718    5.0222 H         1 UNK         0.0720 
     88 H88       -53.2752  -27.4025    6.0793 H         1 UNK         0.0720 
     89 H89       -53.3547  -28.0801    8.3918 H         1 UNK         0.0814 
     90 H90       -51.7339  -27.4323    8.4596 H         1 UNK         0.0814 
     91 H91       -50.0045  -28.5219    9.8572 H         1 UNK         0.1469 
     92 H92       -51.3284  -31.4221   12.7333 H         1 UNK         0.1381 
     93 H93       -53.9785  -30.1010    9.6410 H         1 UNK         0.1206 
     94 H94       -53.4547  -32.7595   11.9559 H         1 UNK         0.0813 
     95 H95       -54.6956  -31.8576   11.1336 H         1 UNK         0.0813 
     96 H96       -56.4872  -30.1552   14.0937 H         1 UNK         0.0638 
     97 H97       -56.7445  -31.4705   12.9798 H         1 UNK         0.0638 
     98 H98       -56.1607  -30.0771   11.0640 H         1 UNK         0.0568 
     99 H99       -57.5407  -27.2149   12.5650 H         1 UNK         0.3450 
    100 H100      -59.1974  -27.6553   12.2138 H         1 UNK         0.3450 
    101 H101      -54.9894  -28.2433   12.9573 H         1 UNK         0.2987 
    102 H102      -53.3027  -26.6784   11.0508 H         1 UNK         0.0766 
    103 H103      -54.0065  -24.3149   10.5523 H         1 UNK         0.0798 
    104 H104      -55.6914  -24.8314   10.5301 H         1 UNK         0.0798 
    105 H105      -54.5625  -25.4380    9.3243 H         1 UNK         0.0798 
    106 H106      -53.3304  -25.6732   13.0451 H         1 UNK         0.3198 
    107 H107      -54.5558  -24.1374   14.8595 H         1 UNK         0.0843 
    108 H108      -56.4324  -26.2535   16.0457 H         1 UNK         0.0831 
    109 H109      -56.8399  -24.5901   15.6607 H         1 UNK         0.0831 
    110 H110      -55.6994  -24.9301   16.9524 H         1 UNK         0.0831 
    111 H111      -52.8309  -25.3749   15.4776 H         1 UNK         0.3133 
    112 H112      -52.3041  -28.3931   16.8975 H         1 UNK         0.0566 
    113 H113      -50.7038  -29.1528   15.1266 H         1 UNK         0.0814 
    114 H114      -52.3582  -29.5715   14.7319 H         1 UNK         0.0814 
    115 H115      -51.5892  -28.2163   13.9218 H         1 UNK         0.0814 
    116 H116      -50.4425  -26.6845   15.5227 H         1 UNK         0.3091 
    117 H117      -50.0501  -24.3766   18.2296 H         1 UNK         0.0702 
    118 H118      -47.7162  -25.1624   17.9079 H         1 UNK         0.0785 
    119 H119      -48.2874  -26.5932   17.0519 H         1 UNK         0.0785 
    120 H120      -48.6669  -26.3725   18.7540 H         1 UNK         0.0785 
    121 H121      -49.0820  -24.8479   15.4751 H         1 UNK         0.2998 
    122 H122      -50.9299  -22.1462   14.1278 H         1 UNK         0.0697 
    123 H123      -47.9176  -22.2058   14.6985 H         1 UNK         0.0825 
    124 H124      -49.0159  -20.9164   15.1747 H         1 UNK         0.0825 
    125 H125      -48.7242  -21.2313   13.4717 H         1 UNK         0.0825 
    126 H126      -48.8739  -23.7494   12.9877 H         1 UNK         0.3029 
    127 H127      -50.8876  -26.6175   12.2686 H         1 UNK         0.0897 
    128 H128      -49.9514  -24.4180   10.3606 H         1 UNK         0.0792 
    129 H129      -51.5800  -25.0533   10.4665 H         1 UNK         0.0792 
    130 H130      -50.2733  -26.0879    9.9139 H         1 UNK         0.0792 
    131 H131      -48.3105  -26.1360   11.3798 H         1 UNK         0.3086 
    132 H132      -46.5467  -27.2340   14.2877 H         1 UNK         0.0583 
    133 H133      -45.7229  -28.8943   12.5193 H         1 UNK         0.1020 
    134 H134      -47.0128  -29.3625   13.5654 H         1 UNK         0.1020 
    135 H135      -48.8758  -30.9756   12.3732 H         1 UNK         0.0694 
    136 H136      -49.3602  -29.4534   13.0783 H         1 UNK         0.0694 
    137 H137      -46.2762  -26.1987   11.5008 H         1 UNK         0.2989 
    138 H138      -44.3361  -23.5015   12.7318 H         1 UNK         0.1055 
    139 H139      -42.5314  -25.2222   12.4749 H         1 UNK         0.0806 
    140 H140      -42.6212  -24.1765   11.0688 H         1 UNK         0.0806 
    141 H141      -43.2872  -25.8092   11.0001 H         1 UNK         0.0806 
    142 H142      -44.9390  -24.1756   10.0627 H         1 UNK         0.3061 
    143 H143      -48.2749  -23.0305    9.8755 H         1 UNK         0.0734 
    144 H144      -45.6799  -21.7490    8.8868 H         1 UNK         0.0832 
    145 H145      -47.2997  -21.4569    8.2533 H         1 UNK         0.0832 
    146 H146      -46.8899  -20.9526    9.8837 H         1 UNK         0.0832 
    147 H147      -46.8332  -23.7917    7.7131 H         1 UNK         0.3156 
    148 H148      -46.1038  -26.1236    7.0625 H         1 UNK         0.0589 
    149 H149      -48.2700  -28.0071    8.1453 H         1 UNK         0.0808 
    150 H150      -47.1777  -28.3531    6.8052 H         1 UNK         0.0808 
    151 H151      -46.5433  -28.1619    8.4313 H         1 UNK         0.0808 
    152 H152      -48.9917  -26.3154    6.5352 H         1 UNK         0.3098 
    153 H153      -49.8598  -23.7520    5.3490 H         1 UNK         0.0720 
    154 H154      -49.6338  -23.4927    2.8751 H         1 UNK         0.0791 
    155 H155      -48.1065  -24.3735    2.9151 H         1 UNK         0.0791 
    156 H156      -48.2524  -22.8123    3.7127 H         1 UNK         0.0791 
    157 H157      -49.8965  -26.0027    3.5134 H         1 UNK         0.3028 
@<TRIPOS>BOND
     1    1    2 1    
     2    1   82 1    
     3    1   83 1    
     4    1   84 1    
     5    2    3 2    
     6    2    4 am   BACKBONE|DICT|INTERRES
     7    4    5 1    
     8    4   85 1    
     9    5    6 1    
    10    5   80 1    
    11    5   86 1    
    12    6    7 1    
    13    6   87 1    
    14    6   88 1    
    15    7    8 1    
    16    8    9 1    
    17    8   89 1    
    18    8   90 1    
    19    9   10 ar   
    20    9   14 ar   
    21   10   11 ar   
    22   10   91 1    
    23   11   12 ar   
    24   11   58 1    
    25   12   13 ar   
    26   12   92 1    
    27   13   14 ar   
    28   13   15 1    
    29   14   93 1    
    30   15   16 1    
    31   15   94 1    
    32   15   95 1    
    33   16   17 1    
    34   17   18 1    
    35   17   96 1    
    36   17   97 1    
    37   18   19 1    
    38   18   22 1    
    39   18   98 1    
    40   19   20 am   BACKBONE|DICT|INTERRES
    41   19   21 2    
    42   20   99 1    
    43   20  100 1    
    44   22   23 am   BACKBONE|DICT|INTERRES
    45   22  101 1    
    46   23   24 2    
    47   23   25 1    
    48   25   26 1    
    49   25   27 1    
    50   25  102 1    
    51   26  103 1    
    52   26  104 1    
    53   26  105 1    
    54   27   28 am   BACKBONE|DICT|INTERRES
    55   27  106 1    
    56   28   29 2    
    57   28   30 1    
    58   30   31 1    
    59   30   32 1    
    60   30  107 1    
    61   31  108 1    
    62   31  109 1    
    63   31  110 1    
    64   32   33 am   BACKBONE|DICT|INTERRES
    65   32  111 1    
    66   33   34 2    
    67   33   35 1    
    68   35   36 1    
    69   35   37 1    
    70   35  112 1    
    71   36  113 1    
    72   36  114 1    
    73   36  115 1    
    74   37   38 am   BACKBONE|DICT|INTERRES
    75   37  116 1    
    76   38   39 2    
    77   38   40 1    
    78   40   41 1    
    79   40   42 1    
    80   40  117 1    
    81   41  118 1    
    82   41  119 1    
    83   41  120 1    
    84   42   43 am   BACKBONE|DICT|INTERRES
    85   42  121 1    
    86   43   44 2    
    87   43   45 1    
    88   45   46 1    
    89   45   47 1    
    90   45  122 1    
    91   46  123 1    
    92   46  124 1    
    93   46  125 1    
    94   47   48 am   BACKBONE|DICT|INTERRES
    95   47  126 1    
    96   48   49 2    
    97   48   50 1    
    98   50   51 1    
    99   50   52 1    
   100   50  127 1    
   101   51  128 1    
   102   51  129 1    
   103   51  130 1    
   104   52   53 am   BACKBONE|DICT|INTERRES
   105   52  131 1    
   106   53   54 2    
   107   53   55 1    
   108   55   56 1    
   109   55   59 1    
   110   55  132 1    
   111   56   57 1    
   112   56  133 1    
   113   56  134 1    
   114   57   58 1    
   115   58  135 1    
   116   58  136 1    
   117   59   60 am   BACKBONE|DICT|INTERRES
   118   59  137 1    
   119   60   61 2    
   120   60   62 1    
   121   62   63 1    
   122   62   64 1    
   123   62  138 1    
   124   63  139 1    
   125   63  140 1    
   126   63  141 1    
   127   64   65 am   BACKBONE|DICT|INTERRES
   128   64  142 1    
   129   65   66 2    
   130   65   67 1    
   131   67   68 1    
   132   67   69 1    
   133   67  143 1    
   134   68  144 1    
   135   68  145 1    
   136   68  146 1    
   137   69   70 am   BACKBONE|DICT|INTERRES
   138   69  147 1    
   139   70   71 2    
   140   70   72 1    
   141   72   73 1    
   142   72   74 1    
   143   72  148 1    
   144   73  149 1    
   145   73  150 1    
   146   73  151 1    
   147   74   75 am   BACKBONE|DICT|INTERRES
   148   74  152 1    
   149   75   76 2    
   150   75   77 1    
   151   77   78 1    
   152   77   79 1    
   153   77  153 1    
   154   78  154 1    
   155   78  155 1    
   156   78  156 1    
   157   79   80 am   BACKBONE|DICT|INTERRES
   158   79  157 1    
   159   80   81 2    
@<TRIPOS>SUBSTRUCTURE
     1 UNK         1 GROUP             0       ****    0 ROOT    
