@<TRIPOS>MOLECULE
3R207
157   159    1
SMALL
USER_CHARGES


@<TRIPOS>ATOM
      1 CA        -47.4456  -30.9833    2.7712 C.3       0 UNK        -0.1975 
      2 C         -48.5183  -29.9734    3.1510 C.2       0 UNK         0.4852 
      3 O         -48.8163  -29.0730    2.3656 O.2       0 UNK        -0.5216 
      4 N         -49.0998  -30.1172    4.3496 N.am      1 UNK        -0.4461 
      5 CA        -50.1379  -29.2372    4.9031 C.3       1 UNK         0.0864 
      6 C6        -50.8927  -29.8914    6.0917 C.3       14 UNK        -0.0898 
      7 S7        -49.8347  -30.7669    7.3015 S.3       14 UNK        -0.2598 
      8 C8        -49.4721  -29.4877    8.5421 C.3       14 UNK         0.0286 
      9 C9        -50.6798  -29.1228    9.3889 C.ar      14 UNK        -0.0844 
     10 C10       -51.4594  -28.0137    9.0557 C.ar      14 UNK        -0.0881 
     11 C11       -52.5464  -27.6432    9.8516 C.ar      14 UNK        -0.0643 
     12 C12       -52.8478  -28.3899   10.9952 C.ar      14 UNK        -0.0930 
     13 C13       -52.0752  -29.5044   11.3381 C.ar      14 UNK        -0.0827 
     14 C14       -50.9938  -29.8668   10.5290 C.ar      14 UNK        -0.1249 
     15 C15       -52.3816  -30.3059   12.5940 C.3       14 UNK         0.0141 
     16 S16       -53.5819  -31.6386   12.2699 S.3       14 UNK        -0.2313 
     17 C17       -55.1415  -30.8906   12.8475 C.3       14 UNK        -0.0915 
     18 CA        -55.9467  -30.1907   11.7161 C.3       13 UNK         0.0968 
     19 C         -56.9742  -31.1461   11.0393 C.2       13 UNK         0.5732 
     20 N         -58.2738  -30.8824   11.1098 N.am      13 UNK        -0.7310 
     21 O         -56.5868  -32.1409   10.4315 O.2       13 UNK        -0.5035 
     22 N         -56.5036  -28.9199   12.2026 N.am      13 UNK        -0.4233 
     23 C         -56.8528  -27.8802   11.4354 C.2       13 UNK         0.4989 
     24 O         -56.8041  -27.8874   10.2054 O.2       13 UNK        -0.4996 
     25 CA        -57.3378  -26.6092   12.1604 C.3       12 UNK         0.0216 
     26 CB        -58.8710  -26.5078   12.0962 C.3       12 UNK        -0.1964 
     27 N         -56.9052  -26.5081   13.5619 N.am      12 UNK        -0.4276 
     28 C         -55.6363  -26.3348   13.9561 C.2       12 UNK         0.5020 
     29 O         -54.6793  -26.2645   13.1838 O.2       12 UNK        -0.5489 
     30 CA        -55.3868  -26.2587   15.4654 C.3       11 UNK         0.0294 
     31 CB        -55.3789  -27.6638   16.0957 C.3       11 UNK        -0.2019 
     32 N         -54.0917  -25.6209   15.6753 N.am      11 UNK        -0.4493 
     33 C         -53.7229  -24.9224   16.7537 C.2       11 UNK         0.4932 
     34 O         -54.4505  -24.7415   17.7322 O.2       11 UNK        -0.5029 
     35 CA        -52.2993  -24.3323   16.7211 C.3       10 UNK         0.0280 
     36 CB        -51.8537  -23.7342   18.0723 C.3       10 UNK        -0.1976 
     37 N         -51.3058  -25.2878   16.2192 N.am      10 UNK        -0.4242 
     38 C         -50.9742  -26.4768   16.7463 C.2       10 UNK         0.5072 
     39 O         -51.4667  -26.9471   17.7728 O.2       10 UNK        -0.5224 
     40 CA        -49.8974  -27.2817   15.9988 C.3       9 UNK         0.0343 
     41 CB        -50.5271  -28.0798   14.8449 C.3       9 UNK        -0.2003 
     42 N         -48.8101  -26.4434   15.4862 N.am      9 UNK        -0.4272 
     43 C         -47.9192  -25.7960   16.2528 C.2       9 UNK         0.4988 
     44 O         -47.8780  -25.8849   17.4806 O.2       9 UNK        -0.5108 
     45 CA        -46.9031  -24.8898   15.5344 C.3       8 UNK         0.0248 
     46 CB        -45.7378  -25.7161   14.9671 C.3       8 UNK        -0.2001 
     47 N         -47.5108  -24.0862   14.4706 N.am      8 UNK        -0.4140 
     48 C         -48.4010  -23.1045   14.6798 C.2       8 UNK         0.5028 
     49 O         -48.7464  -22.7172   15.7965 O.2       8 UNK        -0.5428 
     50 CA        -49.0366  -22.4572   13.4373 C.3       7 UNK         0.0264 
     51 CB        -48.1383  -21.3409   12.8814 C.3       7 UNK        -0.1988 
     52 N         -49.3408  -23.4184   12.3748 N.am      7 UNK        -0.4454 
     53 C         -50.2026  -24.4400   12.4900 C.2       7 UNK         0.5027 
     54 O         -50.8563  -24.6686   13.5084 O.2       7 UNK        -0.5083 
     55 CA        -50.3077  -25.3958   11.2831 C.3       6 UNK         0.0844 
     56 C56       -51.1612  -24.7843   10.1410 C.3       14 UNK        -0.0967 
     57 S57       -52.9484  -24.9561   10.4607 S.3       14 UNK        -0.2604 
     58 C58       -53.3806  -26.4266    9.4763 C.3       14 UNK         0.0134 
     59 N         -48.9881  -25.8335   10.8165 N.am      6 UNK        -0.4116 
     60 C         -48.0882  -26.4895   11.5648 C.2       5 UNK         0.5034 
     61 O         -48.3014  -26.8818   12.7104 O.2       5 UNK        -0.5045 
     62 CA        -46.6832  -26.6736   10.9693 C.3       5 UNK         0.0224 
     63 CB        -46.5915  -27.9401   10.1080 C.3       5 UNK        -0.1978 
     64 N         -46.2618  -25.5090   10.1903 N.am      5 UNK        -0.4737 
     65 C         -45.9592  -24.3198   10.7288 C.2       4 UNK         0.5027 
     66 O         -45.9383  -24.1033   11.9400 O.2       4 UNK        -0.5211 
     67 CA        -45.6879  -23.1707    9.7441 C.3       4 UNK         0.0297 
     68 CB        -44.2376  -23.2200    9.2384 C.3       4 UNK        -0.1993 
     69 N         -46.6110  -23.1839    8.6048 N.am      4 UNK        -0.4486 
     70 C         -47.9324  -22.9785    8.7038 C.2       3 UNK         0.4961 
     71 O         -48.5024  -22.7022    9.7580 O.2       3 UNK        -0.5105 
     72 CA        -48.7680  -23.1492    7.4243 C.3       3 UNK         0.0299 
     73 CB        -48.8606  -21.8180    6.6625 C.3       3 UNK        -0.1972 
     74 N         -48.2641  -24.1957    6.5293 N.am      3 UNK        -0.4305 
     75 C         -48.2178  -25.5021    6.8258 C.2       2 UNK         0.5006 
     76 O         -48.5604  -25.9740    7.9122 O.2       2 UNK        -0.5106 
     77 CA        -47.6155  -26.4179    5.7458 C.3       2 UNK         0.0296 
     78 CB        -46.1469  -26.7276    6.0806 C.3       2 UNK        -0.2002 
     79 N         -48.3354  -27.6807    5.5528 N.am      2 UNK        -0.4032 
     80 C         -49.6322  -27.8126    5.2303 C.2       1 UNK         0.5000 
     81 O         -50.4168  -26.8667    5.1360 O.2       1 UNK        -0.5238 
     82 H82       -47.7321  -31.5101    1.8614 H         1 UNK         0.0889 
     83 H83       -47.2861  -31.7234    3.5553 H         1 UNK         0.0889 
     84 H84       -46.4997  -30.4746    2.5874 H         1 UNK         0.0889 
     85 H85       -48.8260  -30.8818    4.9521 H         1 UNK         0.3028 
     86 H86       -50.8758  -29.0980    4.1093 H         1 UNK         0.0864 
     87 H87       -51.5434  -29.1762    6.5944 H         1 UNK         0.0720 
     88 H88       -51.5731  -30.6437    5.6898 H         1 UNK         0.0720 
     89 H89       -49.0740  -28.6015    8.0513 H         1 UNK         0.0814 
     90 H90       -48.6774  -29.8584    9.1901 H         1 UNK         0.0814 
     91 H91       -51.2083  -27.4279    8.1817 H         1 UNK         0.1469 
     92 H92       -53.6775  -28.0942   11.6220 H         1 UNK         0.1381 
     93 H93       -50.3887  -30.7236   10.7921 H         1 UNK         0.1206 
     94 H94       -51.4631  -30.7536   12.9766 H         1 UNK         0.0813 
     95 H95       -52.7375  -29.6433   13.3832 H         1 UNK         0.0813 
     96 H96       -55.7356  -31.6671   13.3334 H         1 UNK         0.0638 
     97 H97       -54.8995  -30.1900   13.6479 H         1 UNK         0.0638 
     98 H98       -55.2494  -29.9242   10.9200 H         1 UNK         0.0568 
     99 H99       -58.9280  -31.5058   10.6636 H         1 UNK         0.3450 
    100 H100      -58.6053  -30.0672   11.5986 H         1 UNK         0.3450 
    101 H101      -56.6097  -28.8327   13.2011 H         1 UNK         0.2987 
    102 H102      -56.9168  -25.7572   11.6218 H         1 UNK         0.0766 
    103 H103      -59.2246  -25.5647   12.5135 H         1 UNK         0.0798 
    104 H104      -59.3546  -27.3196   12.6410 H         1 UNK         0.0798 
    105 H105      -59.2230  -26.5531   11.0644 H         1 UNK         0.0798 
    106 H106      -57.6305  -26.5565   14.2640 H         1 UNK         0.3198 
    107 H107      -56.1721  -25.6494   15.9186 H         1 UNK         0.0843 
    108 H108      -54.6112  -28.2988   15.6510 H         1 UNK         0.0831 
    109 H109      -56.3385  -28.1641   15.9619 H         1 UNK         0.0831 
    110 H110      -55.1884  -27.6153   17.1681 H         1 UNK         0.0831 
    111 H111      -53.4750  -25.6745   14.8715 H         1 UNK         0.3133 
    112 H112      -52.3236  -23.5181   15.9954 H         1 UNK         0.0566 
    113 H113      -50.8523  -23.3084   18.0032 H         1 UNK         0.0814 
    114 H114      -52.5253  -22.9342   18.3860 H         1 UNK         0.0814 
    115 H115      -51.8464  -24.4826   18.8652 H         1 UNK         0.0814 
    116 H116      -50.8965  -25.0438   15.3184 H         1 UNK         0.3091 
    117 H117      -49.4646  -27.9930   16.7052 H         1 UNK         0.0702 
    118 H118      -51.3249  -28.7265   15.2119 H         1 UNK         0.0785 
    119 H119      -50.9578  -27.4260   14.0851 H         1 UNK         0.0785 
    120 H120      -49.7909  -28.7173   14.3548 H         1 UNK         0.0785 
    121 H121      -48.7257  -26.3782   14.4743 H         1 UNK         0.2998 
    122 H122      -46.4942  -24.1994   16.2751 H         1 UNK         0.0697 
    123 H123      -46.0773  -26.4408   14.2275 H         1 UNK         0.0825 
    124 H124      -45.2339  -26.2719   15.7589 H         1 UNK         0.0825 
    125 H125      -44.9919  -25.0779   14.4928 H         1 UNK         0.0825 
    126 H126      -47.2201  -24.2852   13.5184 H         1 UNK         0.3029 
    127 H127      -49.9818  -22.0088   13.7508 H         1 UNK         0.0897 
    128 H128      -48.6169  -20.8249   12.0487 H         1 UNK         0.0792 
    129 H129      -47.1829  -21.7293   12.5277 H         1 UNK         0.0792 
    130 H130      -47.9246  -20.5940   13.6471 H         1 UNK         0.0792 
    131 H131      -48.8832  -23.2665   11.4773 H         1 UNK         0.3086 
    132 H132      -50.8033  -26.3014   11.6388 H         1 UNK         0.0583 
    133 H133      -50.9362  -23.7270    9.9921 H         1 UNK         0.1020 
    134 H134      -50.9307  -25.2604    9.1880 H         1 UNK         0.1020 
    135 H135      -54.4372  -26.6501    9.6267 H         1 UNK         0.0694 
    136 H136      -53.2662  -26.1943    8.4164 H         1 UNK         0.0694 
    137 H137      -48.7456  -25.6162    9.8556 H         1 UNK         0.2989 
    138 H138      -45.9906  -26.7900   11.8057 H         1 UNK         0.1055 
    139 H139      -46.9466  -28.8127   10.6580 H         1 UNK         0.0806 
    140 H140      -45.5621  -28.1415    9.8114 H         1 UNK         0.0806 
    141 H141      -47.1869  -27.8531    9.2014 H         1 UNK         0.0806 
    142 H142      -46.2999  -25.5909    9.1851 H         1 UNK         0.3061 
    143 H143      -45.8308  -22.2316   10.2831 H         1 UNK         0.0734 
    144 H144      -44.0099  -22.3650    8.6016 H         1 UNK         0.0832 
    145 H145      -43.5349  -23.1958   10.0726 H         1 UNK         0.0832 
    146 H146      -44.0349  -24.1278    8.6689 H         1 UNK         0.0832 
    147 H147      -46.2226  -23.3908    7.6965 H         1 UNK         0.3156 
    148 H148      -49.7772  -23.4348    7.7271 H         1 UNK         0.0589 
    149 H149      -49.2560  -21.0291    7.3042 H         1 UNK         0.0808 
    150 H150      -47.8857  -21.4867    6.3027 H         1 UNK         0.0808 
    151 H151      -49.5275  -21.8973    5.8036 H         1 UNK         0.0808 
    152 H152      -47.9521  -23.8950    5.6167 H         1 UNK         0.3098 
    153 H153      -47.6455  -25.8905    4.7903 H         1 UNK         0.0720 
    154 H154      -45.5693  -25.8112    6.2096 H         1 UNK         0.0791 
    155 H155      -45.6692  -27.2962    5.2823 H         1 UNK         0.0791 
    156 H156      -46.0555  -27.3036    7.0022 H         1 UNK         0.0791 
    157 H157      -47.7840  -28.5236    5.6092 H         1 UNK         0.3028 
@<TRIPOS>BOND
     1    1    2 1    
     2    1   82 1    
     3    1   83 1    
     4    1   84 1    
     5    2    3 2    
     6    2    4 am   BACKBONE|DICT|INTERRES
     7    4    5 1    
     8    4   85 1    
     9    5    6 1    
    10    5   80 1    
    11    5   86 1    
    12    6    7 1    
    13    6   87 1    
    14    6   88 1    
    15    7    8 1    
    16    8    9 1    
    17    8   89 1    
    18    8   90 1    
    19    9   10 ar   
    20    9   14 ar   
    21   10   11 ar   
    22   10   91 1    
    23   11   12 ar   
    24   11   58 1    
    25   12   13 ar   
    26   12   92 1    
    27   13   14 ar   
    28   13   15 1    
    29   14   93 1    
    30   15   16 1    
    31   15   94 1    
    32   15   95 1    
    33   16   17 1    
    34   17   18 1    
    35   17   96 1    
    36   17   97 1    
    37   18   19 1    
    38   18   22 1    
    39   18   98 1    
    40   19   20 am   BACKBONE|DICT|INTERRES
    41   19   21 2    
    42   20   99 1    
    43   20  100 1    
    44   22   23 am   BACKBONE|DICT|INTERRES
    45   22  101 1    
    46   23   24 2    
    47   23   25 1    
    48   25   26 1    
    49   25   27 1    
    50   25  102 1    
    51   26  103 1    
    52   26  104 1    
    53   26  105 1    
    54   27   28 am   BACKBONE|DICT|INTERRES
    55   27  106 1    
    56   28   29 2    
    57   28   30 1    
    58   30   31 1    
    59   30   32 1    
    60   30  107 1    
    61   31  108 1    
    62   31  109 1    
    63   31  110 1    
    64   32   33 am   BACKBONE|DICT|INTERRES
    65   32  111 1    
    66   33   34 2    
    67   33   35 1    
    68   35   36 1    
    69   35   37 1    
    70   35  112 1    
    71   36  113 1    
    72   36  114 1    
    73   36  115 1    
    74   37   38 am   BACKBONE|DICT|INTERRES
    75   37  116 1    
    76   38   39 2    
    77   38   40 1    
    78   40   41 1    
    79   40   42 1    
    80   40  117 1    
    81   41  118 1    
    82   41  119 1    
    83   41  120 1    
    84   42   43 am   BACKBONE|DICT|INTERRES
    85   42  121 1    
    86   43   44 2    
    87   43   45 1    
    88   45   46 1    
    89   45   47 1    
    90   45  122 1    
    91   46  123 1    
    92   46  124 1    
    93   46  125 1    
    94   47   48 am   BACKBONE|DICT|INTERRES
    95   47  126 1    
    96   48   49 2    
    97   48   50 1    
    98   50   51 1    
    99   50   52 1    
   100   50  127 1    
   101   51  128 1    
   102   51  129 1    
   103   51  130 1    
   104   52   53 am   BACKBONE|DICT|INTERRES
   105   52  131 1    
   106   53   54 2    
   107   53   55 1    
   108   55   56 1    
   109   55   59 1    
   110   55  132 1    
   111   56   57 1    
   112   56  133 1    
   113   56  134 1    
   114   57   58 1    
   115   58  135 1    
   116   58  136 1    
   117   59   60 am   BACKBONE|DICT|INTERRES
   118   59  137 1    
   119   60   61 2    
   120   60   62 1    
   121   62   63 1    
   122   62   64 1    
   123   62  138 1    
   124   63  139 1    
   125   63  140 1    
   126   63  141 1    
   127   64   65 am   BACKBONE|DICT|INTERRES
   128   64  142 1    
   129   65   66 2    
   130   65   67 1    
   131   67   68 1    
   132   67   69 1    
   133   67  143 1    
   134   68  144 1    
   135   68  145 1    
   136   68  146 1    
   137   69   70 am   BACKBONE|DICT|INTERRES
   138   69  147 1    
   139   70   71 2    
   140   70   72 1    
   141   72   73 1    
   142   72   74 1    
   143   72  148 1    
   144   73  149 1    
   145   73  150 1    
   146   73  151 1    
   147   74   75 am   BACKBONE|DICT|INTERRES
   148   74  152 1    
   149   75   76 2    
   150   75   77 1    
   151   77   78 1    
   152   77   79 1    
   153   77  153 1    
   154   78  154 1    
   155   78  155 1    
   156   78  156 1    
   157   79   80 am   BACKBONE|DICT|INTERRES
   158   79  157 1    
   159   80   81 2    
@<TRIPOS>SUBSTRUCTURE
     1 UNK         1 GROUP             0       ****    0 ROOT    
