@<TRIPOS>MOLECULE
3R207
157   159    1
SMALL
USER_CHARGES


@<TRIPOS>ATOM
      1 CA        -47.6769  -27.9016    4.1101 C.3       0 UNK        -0.1975 
      2 C         -48.4783  -26.9901    5.0261 C.2       0 UNK         0.4852 
      3 O         -48.1039  -26.8098    6.1851 O.2       0 UNK        -0.5216 
      4 N         -49.5766  -26.4126    4.5187 N.am      1 UNK        -0.4461 
      5 CA        -50.4896  -25.5116    5.2389 C.3       1 UNK         0.0864 
      6 C6        -51.3098  -26.2392    6.3466 C.3       14 UNK        -0.0898 
      7 S7        -52.2927  -27.6176    5.6662 S.3       14 UNK        -0.2598 
      8 C8        -51.4414  -29.0768    6.3515 C.3       14 UNK         0.0286 
      9 C9        -52.1328  -29.5897    7.6066 C.ar      14 UNK        -0.0844 
     10 C10       -51.6115  -29.3236    8.8777 C.ar      14 UNK        -0.0881 
     11 C11       -52.2506  -29.8156   10.0223 C.ar      14 UNK        -0.0643 
     12 C12       -53.4064  -30.5885    9.8845 C.ar      14 UNK        -0.0930 
     13 C13       -53.9534  -30.8341    8.6241 C.ar      14 UNK        -0.0827 
     14 C14       -53.3063  -30.3409    7.4883 C.ar      14 UNK        -0.1249 
     15 C15       -55.2542  -31.6110    8.4904 C.3       14 UNK         0.0141 
     16 S16       -56.7004  -30.5468    8.8105 S.3       14 UNK        -0.2313 
     17 C17       -56.8374  -30.6038   10.6318 C.3       14 UNK        -0.0915 
     18 CA        -56.3423  -29.3098   11.3539 C.3       13 UNK         0.0968 
     19 C         -57.4143  -28.1780   11.4205 C.2       13 UNK         0.5732 
     20 N         -57.4475  -27.3658   12.4708 N.am      13 UNK        -0.7310 
     21 O         -58.2133  -28.0093   10.5026 O.2       13 UNK        -0.5035 
     22 N         -55.6966  -29.6074   12.6464 N.am      13 UNK        -0.4233 
     23 C         -56.2578  -30.2553   13.6748 C.2       13 UNK         0.4989 
     24 O         -57.4180  -30.6679   13.6793 O.2       13 UNK        -0.4996 
     25 CA        -55.3754  -30.5104   14.9092 C.3       12 UNK         0.0216 
     26 CB        -54.2057  -31.4623   14.5848 C.3       12 UNK        -0.1964 
     27 N         -54.9089  -29.3006   15.6002 N.am      12 UNK        -0.4276 
     28 C         -54.0913  -28.3379   15.1534 C.2       12 UNK         0.5020 
     29 O         -53.6245  -28.2969   14.0118 O.2       12 UNK        -0.5489 
     30 CA        -53.6999  -27.2765   16.1908 C.3       11 UNK         0.0294 
     31 CB        -52.5313  -27.7901   17.0497 C.3       11 UNK        -0.2019 
     32 N         -53.2702  -26.0464   15.5337 N.am      11 UNK        -0.4493 
     33 C         -53.9023  -24.8688   15.5807 C.2       11 UNK         0.4932 
     34 O         -54.9721  -24.6886   16.1662 O.2       11 UNK        -0.5029 
     35 CA        -53.2036  -23.6947   14.8632 C.3       10 UNK         0.0280 
     36 CB        -53.8531  -22.3259   15.1569 C.3       10 UNK        -0.1976 
     37 N         -51.7583  -23.6558   15.1215 N.am      10 UNK        -0.4242 
     38 C         -51.1344  -23.5330   16.3043 C.2       10 UNK         0.5072 
     39 O         -51.7177  -23.3305   17.3704 O.2       10 UNK        -0.5224 
     40 CA        -49.5986  -23.6841   16.3238 C.3       9 UNK         0.0343 
     41 CB        -49.2044  -24.9906   17.0339 C.3       9 UNK        -0.2003 
     42 N         -48.9822  -23.6681   14.9938 N.am      9 UNK        -0.4272 
     43 C         -48.7713  -22.5675   14.2571 C.2       9 UNK         0.4988 
     44 O         -48.9969  -21.4240   14.6538 O.2       9 UNK        -0.5108 
     45 CA        -48.2645  -22.7824   12.8174 C.3       8 UNK         0.0248 
     46 CB        -46.7354  -22.9307   12.7904 C.3       8 UNK        -0.2001 
     47 N         -48.8820  -23.9419   12.1669 N.am      8 UNK        -0.4140 
     48 C         -50.1957  -24.0728   11.9326 C.2       8 UNK         0.5028 
     49 O         -51.0247  -23.1919   12.1556 O.2       8 UNK        -0.5428 
     50 CA        -50.6828  -25.4394   11.4361 C.3       7 UNK         0.0264 
     51 CB        -50.5840  -25.5494    9.9102 C.3       7 UNK        -0.1988 
     52 N         -49.9546  -26.5400   12.0644 N.am      7 UNK        -0.4454 
     53 C         -50.1341  -26.9309   13.3340 C.2       7 UNK         0.5027 
     54 O         -50.9135  -26.3808   14.1085 O.2       7 UNK        -0.5083 
     55 CA        -49.2764  -28.1105   13.8341 C.3       6 UNK         0.0844 
     56 C56       -49.9185  -29.4838   13.5114 C.3       14 UNK        -0.0967 
     57 S57       -50.0229  -29.9008   11.7300 S.3       14 UNK        -0.2604 
     58 C58       -51.7617  -29.4551   11.4170 C.3       14 UNK         0.0134 
     59 N         -47.8887  -28.0116   13.3805 N.am      6 UNK        -0.4116 
     60 C         -47.0468  -27.0316   13.7397 C.2       5 UNK         0.5034 
     61 O         -47.3334  -26.1344   14.5321 O.2       5 UNK        -0.5045 
     62 CA        -45.6687  -27.0195   13.0597 C.3       5 UNK         0.0224 
     63 CB        -44.6771  -27.9027   13.8334 C.3       5 UNK        -0.1978 
     64 N         -45.6982  -27.4288   11.6505 N.am      5 UNK        -0.4737 
     65 C         -46.4106  -26.8202   10.6930 C.2       4 UNK         0.5027 
     66 O         -47.1930  -25.8909   10.9034 O.2       4 UNK        -0.5211 
     67 CA        -46.2656  -27.3840    9.2723 C.3       4 UNK         0.0297 
     68 CB        -47.4216  -28.3525    8.9716 C.3       4 UNK        -0.1993 
     69 N         -46.2546  -26.3199    8.2680 N.am      4 UNK        -0.4486 
     70 C         -45.3161  -25.3678    8.1608 C.2       3 UNK         0.4961 
     71 O         -44.2903  -25.3325    8.8422 O.2       3 UNK        -0.5105 
     72 CA        -45.5577  -24.2679    7.1134 C.3       3 UNK         0.0299 
     73 CB        -45.0854  -24.7263    5.7243 C.3       3 UNK        -0.1972 
     74 N         -46.9618  -23.8610    7.0424 N.am      3 UNK        -0.4305 
     75 C         -47.6028  -23.1304    7.9644 C.2       2 UNK         0.5006 
     76 O         -47.0497  -22.6553    8.9562 O.2       2 UNK        -0.5106 
     77 CA        -49.1139  -22.8791    7.7725 C.3       2 UNK         0.0296 
     78 CB        -49.3744  -21.4765    7.1884 C.3       2 UNK        -0.2002 
     79 N         -49.8318  -23.9237    7.0210 N.am      2 UNK        -0.4032 
     80 C         -49.7231  -24.2583    5.7262 C.2       1 UNK         0.5000 
     81 O         -49.0015  -23.6562    4.9278 O.2       1 UNK        -0.5238 
     82 H82       -48.1380  -27.9999    3.1276 H         1 UNK         0.0889 
     83 H83       -47.5988  -28.8955    4.5498 H         1 UNK         0.0889 
     84 H84       -46.6700  -27.5078    3.9764 H         1 UNK         0.0889 
     85 H85       -49.8153  -26.5768    3.5510 H         1 UNK         0.3028 
     86 H86       -51.1987  -25.1422    4.4963 H         1 UNK         0.0864 
     87 H87       -50.6586  -26.6126    7.1380 H         1 UNK         0.0720 
     88 H88       -52.0154  -25.5532    6.8184 H         1 UNK         0.0720 
     89 H89       -50.3911  -28.8550    6.5464 H         1 UNK         0.0814 
     90 H90       -51.4431  -29.8643    5.5965 H         1 UNK         0.0814 
     91 H91       -50.7137  -28.7313    8.9793 H         1 UNK         0.1469 
     92 H92       -53.9077  -30.9676   10.7638 H         1 UNK         0.1381 
     93 H93       -53.7226  -30.5293    6.5079 H         1 UNK         0.1206 
     94 H94       -55.3421  -32.0170    7.4815 H         1 UNK         0.0813 
     95 H95       -55.2553  -32.4728    9.1592 H         1 UNK         0.0813 
     96 H96       -56.2771  -31.4715   10.9812 H         1 UNK         0.0638 
     97 H97       -57.8754  -30.8174   10.8926 H         1 UNK         0.0638 
     98 H98       -55.5409  -28.8817   10.7517 H         1 UNK         0.0568 
     99 H99       -56.7917  -27.4808   13.2259 H         1 UNK         0.3450 
    100 H100      -58.1370  -26.6318   12.5042 H         1 UNK         0.3450 
    101 H101      -54.7760  -29.2040   12.8032 H         1 UNK         0.2987 
    102 H102      -56.0091  -31.0279   15.6317 H         1 UNK         0.0766 
    103 H103      -53.6797  -31.7618   15.4913 H         1 UNK         0.0798 
    104 H104      -53.4764  -31.0090   13.9151 H         1 UNK         0.0798 
    105 H105      -54.5649  -32.3733   14.1041 H         1 UNK         0.0798 
    106 H106      -55.2460  -29.2105   16.5493 H         1 UNK         0.3198 
    107 H107      -54.5580  -27.0837   16.8383 H         1 UNK         0.0843 
    108 H108      -51.6556  -28.0198   16.4407 H         1 UNK         0.0831 
    109 H109      -52.8034  -28.6992   17.5875 H         1 UNK         0.0831 
    110 H110      -52.2336  -27.0506   17.7934 H         1 UNK         0.0831 
    111 H111      -52.4242  -26.1309   14.9673 H         1 UNK         0.3133 
    112 H112      -53.3120  -23.8868   13.7949 H         1 UNK         0.0566 
    113 H113      -53.3497  -21.5255   14.6147 H         1 UNK         0.0814 
    114 H114      -54.8995  -22.3166   14.8497 H         1 UNK         0.0814 
    115 H115      -53.8244  -22.0822   16.2193 H         1 UNK         0.0814 
    116 H116      -51.1794  -23.8166   14.3072 H         1 UNK         0.3091 
    117 H117      -49.1970  -22.8489   16.9012 H         1 UNK         0.0702 
    118 H118      -48.1214  -25.0904   17.1091 H         1 UNK         0.0785 
    119 H119      -49.5850  -25.8657   16.5059 H         1 UNK         0.0785 
    120 H120      -49.6040  -25.0228   18.0484 H         1 UNK         0.0785 
    121 H121      -48.6948  -24.5667   14.6202 H         1 UNK         0.2998 
    122 H122      -48.5317  -21.8992   12.2336 H         1 UNK         0.0697 
    123 H123      -46.4027  -23.7911   13.3709 H         1 UNK         0.0825 
    124 H124      -46.2509  -22.0474   13.2084 H         1 UNK         0.0825 
    125 H125      -46.3677  -23.0524   11.7708 H         1 UNK         0.0825 
    126 H126      -48.2614  -24.6964   11.8786 H         1 UNK         0.3029 
    127 H127      -51.7368  -25.5313   11.7098 H         1 UNK         0.0897 
    128 H128      -51.0128  -26.4870    9.5606 H         1 UNK         0.0792 
    129 H129      -49.5511  -25.4946    9.5635 H         1 UNK         0.0792 
    130 H130      -51.1462  -24.7440    9.4373 H         1 UNK         0.0792 
    131 H131      -49.2431  -26.9960   11.5112 H         1 UNK         0.3086 
    132 H132      -49.2509  -28.0268   14.9231 H         1 UNK         0.0583 
    133 H133      -49.3404  -30.2708   13.9982 H         1 UNK         0.1020 
    134 H134      -50.9107  -29.5448   13.9644 H         1 UNK         0.1020 
    135 H135      -52.3802  -29.9482   12.1662 H         1 UNK         0.0694 
    136 H136      -51.9083  -28.3857   11.5638 H         1 UNK         0.0694 
    137 H137      -47.5781  -28.7018   12.7128 H         1 UNK         0.2989 
    138 H138      -45.3044  -25.9905   13.0908 H         1 UNK         0.1055 
    139 H139      -44.6255  -27.6047   14.8818 H         1 UNK         0.0806 
    140 H140      -43.6691  -27.8189   13.4265 H         1 UNK         0.0806 
    141 H141      -44.9642  -28.9547   13.8075 H         1 UNK         0.0806 
    142 H142      -45.0915  -28.1937   11.3900 H         1 UNK         0.3061 
    143 H143      -45.3212  -27.9265    9.1968 H         1 UNK         0.0734 
    144 H144      -47.3070  -28.8131    7.9903 H         1 UNK         0.0832 
    145 H145      -47.4641  -29.1594    9.7043 H         1 UNK         0.0832 
    146 H146      -48.3858  -27.8432    8.9883 H         1 UNK         0.0832 
    147 H147      -47.0324  -26.3129    7.6108 H         1 UNK         0.3156 
    148 H148      -44.9660  -23.3963    7.4013 H         1 UNK         0.0589 
    149 H149      -45.6429  -25.5951    5.3738 H         1 UNK         0.0808 
    150 H150      -45.1993  -23.9336    4.9846 H         1 UNK         0.0808 
    151 H151      -44.0303  -25.0026    5.7438 H         1 UNK         0.0808 
    152 H152      -47.4920  -24.1664    6.2344 H         1 UNK         0.3098 
    153 H153      -49.5462  -22.8925    8.7743 H         1 UNK         0.0720 
    154 H154      -50.4419  -21.2721    7.1069 H         1 UNK         0.0791 
    155 H155      -48.9317  -21.3549    6.1995 H         1 UNK         0.0791 
    156 H156      -48.9450  -20.7050    7.8289 H         1 UNK         0.0791 
    157 H157      -50.4294  -24.5082    7.5858 H         1 UNK         0.3028 
@<TRIPOS>BOND
     1    1    2 1    
     2    1   82 1    
     3    1   83 1    
     4    1   84 1    
     5    2    3 2    
     6    2    4 am   BACKBONE|DICT|INTERRES
     7    4    5 1    
     8    4   85 1    
     9    5    6 1    
    10    5   80 1    
    11    5   86 1    
    12    6    7 1    
    13    6   87 1    
    14    6   88 1    
    15    7    8 1    
    16    8    9 1    
    17    8   89 1    
    18    8   90 1    
    19    9   10 ar   
    20    9   14 ar   
    21   10   11 ar   
    22   10   91 1    
    23   11   12 ar   
    24   11   58 1    
    25   12   13 ar   
    26   12   92 1    
    27   13   14 ar   
    28   13   15 1    
    29   14   93 1    
    30   15   16 1    
    31   15   94 1    
    32   15   95 1    
    33   16   17 1    
    34   17   18 1    
    35   17   96 1    
    36   17   97 1    
    37   18   19 1    
    38   18   22 1    
    39   18   98 1    
    40   19   20 am   BACKBONE|DICT|INTERRES
    41   19   21 2    
    42   20   99 1    
    43   20  100 1    
    44   22   23 am   BACKBONE|DICT|INTERRES
    45   22  101 1    
    46   23   24 2    
    47   23   25 1    
    48   25   26 1    
    49   25   27 1    
    50   25  102 1    
    51   26  103 1    
    52   26  104 1    
    53   26  105 1    
    54   27   28 am   BACKBONE|DICT|INTERRES
    55   27  106 1    
    56   28   29 2    
    57   28   30 1    
    58   30   31 1    
    59   30   32 1    
    60   30  107 1    
    61   31  108 1    
    62   31  109 1    
    63   31  110 1    
    64   32   33 am   BACKBONE|DICT|INTERRES
    65   32  111 1    
    66   33   34 2    
    67   33   35 1    
    68   35   36 1    
    69   35   37 1    
    70   35  112 1    
    71   36  113 1    
    72   36  114 1    
    73   36  115 1    
    74   37   38 am   BACKBONE|DICT|INTERRES
    75   37  116 1    
    76   38   39 2    
    77   38   40 1    
    78   40   41 1    
    79   40   42 1    
    80   40  117 1    
    81   41  118 1    
    82   41  119 1    
    83   41  120 1    
    84   42   43 am   BACKBONE|DICT|INTERRES
    85   42  121 1    
    86   43   44 2    
    87   43   45 1    
    88   45   46 1    
    89   45   47 1    
    90   45  122 1    
    91   46  123 1    
    92   46  124 1    
    93   46  125 1    
    94   47   48 am   BACKBONE|DICT|INTERRES
    95   47  126 1    
    96   48   49 2    
    97   48   50 1    
    98   50   51 1    
    99   50   52 1    
   100   50  127 1    
   101   51  128 1    
   102   51  129 1    
   103   51  130 1    
   104   52   53 am   BACKBONE|DICT|INTERRES
   105   52  131 1    
   106   53   54 2    
   107   53   55 1    
   108   55   56 1    
   109   55   59 1    
   110   55  132 1    
   111   56   57 1    
   112   56  133 1    
   113   56  134 1    
   114   57   58 1    
   115   58  135 1    
   116   58  136 1    
   117   59   60 am   BACKBONE|DICT|INTERRES
   118   59  137 1    
   119   60   61 2    
   120   60   62 1    
   121   62   63 1    
   122   62   64 1    
   123   62  138 1    
   124   63  139 1    
   125   63  140 1    
   126   63  141 1    
   127   64   65 am   BACKBONE|DICT|INTERRES
   128   64  142 1    
   129   65   66 2    
   130   65   67 1    
   131   67   68 1    
   132   67   69 1    
   133   67  143 1    
   134   68  144 1    
   135   68  145 1    
   136   68  146 1    
   137   69   70 am   BACKBONE|DICT|INTERRES
   138   69  147 1    
   139   70   71 2    
   140   70   72 1    
   141   72   73 1    
   142   72   74 1    
   143   72  148 1    
   144   73  149 1    
   145   73  150 1    
   146   73  151 1    
   147   74   75 am   BACKBONE|DICT|INTERRES
   148   74  152 1    
   149   75   76 2    
   150   75   77 1    
   151   77   78 1    
   152   77   79 1    
   153   77  153 1    
   154   78  154 1    
   155   78  155 1    
   156   78  156 1    
   157   79   80 am   BACKBONE|DICT|INTERRES
   158   79  157 1    
   159   80   81 2    
@<TRIPOS>SUBSTRUCTURE
     1 UNK         1 GROUP             0       ****    0 ROOT    
