@<TRIPOS>MOLECULE
3R207
157   159    1
SMALL
USER_CHARGES


@<TRIPOS>ATOM
      1 CA        -52.9126  -22.5125   11.7420 C.3       0 UNK        -0.1975 
      2 C         -52.8966  -23.6430   10.7239 C.2       0 UNK         0.4852 
      3 O         -53.4561  -24.7100   10.9791 O.2       0 UNK        -0.5216 
      4 N         -52.2572  -23.4182    9.5716 N.am      1 UNK        -0.4461 
      5 CA        -52.0849  -24.4013    8.5087 C.3       1 UNK         0.0864 
      6 C6        -53.3269  -24.4778    7.5823 C.3       14 UNK        -0.0898 
      7 S7        -53.5683  -26.1490    6.9009 S.3       14 UNK        -0.2598 
      8 C8        -54.5319  -26.9439    8.2289 C.3       14 UNK         0.0286 
      9 C9        -53.8476  -28.2195    8.6909 C.ar      14 UNK        -0.0844 
     10 C10       -52.8971  -28.1827    9.7154 C.ar      14 UNK        -0.0881 
     11 C11       -52.2172  -29.3455   10.0935 C.ar      14 UNK        -0.0643 
     12 C12       -52.5372  -30.5590    9.4783 C.ar      14 UNK        -0.0930 
     13 C13       -53.5114  -30.6118    8.4781 C.ar      14 UNK        -0.0827 
     14 C14       -54.1555  -29.4375    8.0810 C.ar      14 UNK        -0.1249 
     15 C15       -53.8522  -31.9299    7.8022 C.3       14 UNK         0.0141 
     16 S16       -55.4850  -32.5488    8.3122 S.3       14 UNK        -0.2313 
     17 C17       -55.1791  -33.0850   10.0290 C.3       14 UNK        -0.0915 
     18 CA        -56.1276  -32.3828   11.0393 C.3       13 UNK         0.0968 
     19 C         -56.1922  -33.1397   12.4011 C.2       13 UNK         0.5732 
     20 N         -56.1064  -32.4846   13.5523 N.am      13 UNK        -0.7310 
     21 O         -56.3420  -34.3594   12.4196 O.2       13 UNK        -0.5035 
     22 N         -55.8280  -30.9447   11.1608 N.am      13 UNK        -0.4233 
     23 C         -56.7412  -29.9951   11.3972 C.2       13 UNK         0.4989 
     24 O         -57.9533  -30.2129   11.4558 O.2       13 UNK        -0.4996 
     25 CA        -56.1992  -28.5687   11.6408 C.3       12 UNK         0.0216 
     26 CB        -57.3110  -27.5639   12.0082 C.3       12 UNK        -0.1964 
     27 N         -55.1204  -28.4997   12.6406 N.am      12 UNK        -0.4276 
     28 C         -55.1304  -29.0134   13.8816 C.2       12 UNK         0.5020 
     29 O         -56.0448  -29.6989   14.3384 O.2       12 UNK        -0.5489 
     30 CA        -53.9066  -28.7348   14.7705 C.3       11 UNK         0.0294 
     31 CB        -52.8672  -29.8567   14.6211 C.3       11 UNK        -0.2019 
     32 N         -53.2725  -27.4351   14.5271 N.am      11 UNK        -0.4493 
     33 C         -53.8173  -26.2541   14.8574 C.2       11 UNK         0.4932 
     34 O         -54.9474  -26.1345   15.3338 O.2       11 UNK        -0.5029 
     35 CA        -52.9395  -25.0055   14.6328 C.3       10 UNK         0.0280 
     36 CB        -53.4691  -23.7515   15.3594 C.3       10 UNK        -0.1976 
     37 N         -51.5194  -25.2194   14.9398 N.am      10 UNK        -0.4242 
     38 C         -50.9869  -25.6061   16.1102 C.2       10 UNK         0.5072 
     39 O         -51.6415  -25.8362   17.1278 O.2       10 UNK        -0.5224 
     40 CA        -49.4590  -25.7823   16.1542 C.3       9 UNK         0.0343 
     41 CB        -49.0628  -27.1755   15.6388 C.3       9 UNK        -0.2003 
     42 N         -48.7208  -24.7564   15.4121 N.am      9 UNK        -0.4272 
     43 C         -48.6441  -23.4656   15.7708 C.2       9 UNK         0.4988 
     44 O         -49.2205  -22.9885   16.7488 O.2       9 UNK        -0.5108 
     45 CA        -47.7595  -22.5535   14.9074 C.3       8 UNK         0.0248 
     46 CB        -46.2766  -22.7261   15.2779 C.3       8 UNK        -0.2001 
     47 N         -47.9434  -22.8241   13.4821 N.am      8 UNK        -0.4140 
     48 C         -48.8434  -22.2050   12.7058 C.2       8 UNK         0.5028 
     49 O         -49.5651  -21.2843   13.0902 O.2       8 UNK        -0.5428 
     50 CA        -48.9736  -22.6930   11.2505 C.3       7 UNK         0.0264 
     51 CB        -48.0497  -21.8800   10.3298 C.3       7 UNK        -0.1988 
     52 N         -48.7052  -24.1214   11.0613 N.am      7 UNK        -0.4454 
     53 C         -49.3406  -25.1250   11.6793 C.2       7 UNK         0.5027 
     54 O         -50.2772  -24.9629   12.4595 O.2       7 UNK        -0.5083 
     55 CA        -48.8043  -26.5520   11.4536 C.3       6 UNK         0.0844 
     56 C56       -49.4704  -27.2222   10.2313 C.3       14 UNK        -0.0967 
     57 S57       -49.4811  -29.0346   10.4051 S.3       14 UNK        -0.2604 
     58 C58       -51.1227  -29.3017   11.1493 C.3       14 UNK         0.0134 
     59 N         -47.3404  -26.6306   11.3990 N.am      6 UNK        -0.4116 
     60 C         -46.4917  -26.1823   12.3320 C.2       5 UNK         0.5034 
     61 O         -46.8564  -25.5994   13.3546 O.2       5 UNK        -0.5045 
     62 CA        -44.9833  -26.3874   12.1022 C.3       5 UNK         0.0224 
     63 CB        -44.4995  -27.6744   12.7973 C.3       5 UNK        -0.1978 
     64 N         -44.5347  -26.3333   10.7007 N.am      5 UNK        -0.4737 
     65 C         -44.7871  -27.1746    9.6893 C.2       4 UNK         0.5027 
     66 O         -45.5404  -28.1446    9.7763 O.2       4 UNK        -0.5211 
     67 CA        -44.1155  -26.8348    8.3444 C.3       4 UNK         0.0297 
     68 CB        -44.1512  -28.0157    7.3567 C.3       4 UNK        -0.1993 
     69 N         -44.7525  -25.6769    7.7177 N.am      4 UNK        -0.4486 
     70 C         -44.6270  -24.4032    8.1139 C.2       3 UNK         0.4961 
     71 O         -43.8610  -24.0425    9.0091 O.2       3 UNK        -0.5105 
     72 CA        -45.5121  -23.3530    7.4130 C.3       3 UNK         0.0299 
     73 CB        -44.6847  -22.5519    6.3950 C.3       3 UNK        -0.1972 
     74 N         -46.7058  -23.8918    6.7455 N.am      3 UNK        -0.4305 
     75 C         -47.7067  -24.5398    7.3571 C.2       2 UNK         0.5006 
     76 O         -47.7031  -24.8243    8.5556 O.2       2 UNK        -0.5106 
     77 CA        -48.8725  -24.9984    6.4631 C.3       2 UNK         0.0296 
     78 CB        -48.5533  -26.3724    5.8505 C.3       2 UNK        -0.2002 
     79 N         -50.1444  -25.0915    7.1859 N.am      2 UNK        -0.4032 
     80 C         -50.7910  -24.0631    7.7513 C.2       1 UNK         0.5000 
     81 O         -50.4166  -22.8880    7.6880 O.2       1 UNK        -0.5238 
     82 H82       -52.1885  -22.7111   12.5320 H         1 UNK         0.0889 
     83 H83       -53.8995  -22.4259   12.1958 H         1 UNK         0.0889 
     84 H84       -52.6643  -21.5540   11.2866 H         1 UNK         0.0889 
     85 H85       -51.7848  -22.5405    9.3923 H         1 UNK         0.3028 
     86 H86       -51.9296  -25.3676    8.9894 H         1 UNK         0.0864 
     87 H87       -54.2347  -24.2014    8.1213 H         1 UNK         0.0720 
     88 H88       -53.2579  -23.7637    6.7592 H         1 UNK         0.0720 
     89 H89       -55.5348  -27.1637    7.8596 H         1 UNK         0.0814 
     90 H90       -54.6632  -26.2700    9.0766 H         1 UNK         0.0814 
     91 H91       -52.6769  -27.2424   10.2000 H         1 UNK         0.1469 
     92 H92       -52.0150  -31.4603    9.7697 H         1 UNK         0.1381 
     93 H93       -54.8943  -29.4732    7.2918 H         1 UNK         0.1206 
     94 H94       -53.0938  -32.6870    8.0077 H         1 UNK         0.0813 
     95 H95       -53.8531  -31.7869    6.7207 H         1 UNK         0.0813 
     96 H96       -54.1363  -32.9214   10.3035 H         1 UNK         0.0638 
     97 H97       -55.3253  -34.1665   10.0388 H         1 UNK         0.0638 
     98 H98       -57.1371  -32.4823   10.6361 H         1 UNK         0.0568 
     99 H99       -56.1594  -33.0100   14.4098 H         1 UNK         0.3450 
    100 H100      -56.0621  -31.4712   13.5937 H         1 UNK         0.3450 
    101 H101      -54.8533  -30.6876   11.1194 H         1 UNK         0.2987 
    102 H102      -55.7706  -28.2440   10.6936 H         1 UNK         0.0766 
    103 H103      -56.9129  -26.5545   12.1131 H         1 UNK         0.0798 
    104 H104      -57.7989  -27.8299   12.9468 H         1 UNK         0.0798 
    105 H105      -58.0811  -27.5290   11.2365 H         1 UNK         0.0798 
    106 H106      -54.3111  -27.9585   12.3730 H         1 UNK         0.3198 
    107 H107      -54.2545  -28.7398   15.8061 H         1 UNK         0.0843 
    108 H108      -52.4959  -29.9327   13.6008 H         1 UNK         0.0831 
    109 H109      -53.3028  -30.8238   14.8772 H         1 UNK         0.0831 
    110 H110      -52.0145  -29.7030   15.2829 H         1 UNK         0.0831 
    111 H111      -52.3329  -27.4387   14.1596 H         1 UNK         0.3133 
    112 H112      -52.9837  -24.8077   13.5638 H         1 UNK         0.0566 
    113 H113      -53.5016  -23.8950   16.4399 H         1 UNK         0.0814 
    114 H114      -52.8436  -22.8824   15.1553 H         1 UNK         0.0814 
    115 H115      -54.4800  -23.5064   15.0316 H         1 UNK         0.0814 
    116 H116      -50.8929  -25.0775   14.1475 H         1 UNK         0.3091 
    117 H117      -49.1518  -25.7136   17.2000 H         1 UNK         0.0702 
    118 H118      -47.9859  -27.3326   15.7047 H         1 UNK         0.0785 
    119 H119      -49.3597  -27.3226   14.6016 H         1 UNK         0.0785 
    120 H120      -49.5418  -27.9588   16.2280 H         1 UNK         0.0785 
    121 H121      -48.1681  -25.0724   14.6200 H         1 UNK         0.2998 
    122 H122      -48.0358  -21.5186   15.1215 H         1 UNK         0.0697 
    123 H123      -45.9251  -23.7429   15.0995 H         1 UNK         0.0825 
    124 H124      -46.1120  -22.5061   16.3335 H         1 UNK         0.0825 
    125 H125      -45.6444  -22.0484   14.7041 H         1 UNK         0.0825 
    126 H126      -47.4285  -23.6087   13.1009 H         1 UNK         0.3029 
    127 H127      -50.0029  -22.5100   10.9438 H         1 UNK         0.0897 
    128 H128      -48.2167  -20.8090   10.4524 H         1 UNK         0.0792 
    129 H129      -48.2312  -22.1138    9.2808 H         1 UNK         0.0792 
    130 H130      -46.9973  -22.0745   10.5403 H         1 UNK         0.0792 
    131 H131      -48.0303  -24.3667   10.3393 H         1 UNK         0.3086 
    132 H132      -49.0993  -27.1104   12.3425 H         1 UNK         0.0583 
    133 H133      -50.4919  -26.8757   10.0943 H         1 UNK         0.1020 
    134 H134      -48.9460  -26.9647    9.3106 H         1 UNK         0.1020 
    135 H135      -51.1005  -30.2467   11.6938 H         1 UNK         0.0694 
    136 H136      -51.3284  -28.5259   11.8881 H         1 UNK         0.0694 
    137 H137      -46.9384  -27.1427   10.6191 H         1 UNK         0.2989 
    138 H138      -44.4911  -25.5477   12.5962 H         1 UNK         0.1055 
    139 H139      -44.7479  -27.6593   13.8596 H         1 UNK         0.0806 
    140 H140      -43.4178  -27.7846   12.7201 H         1 UNK         0.0806 
    141 H141      -44.9596  -28.5667   12.3716 H         1 UNK         0.0806 
    142 H142      -43.9950  -25.5077   10.4563 H         1 UNK         0.3061 
    143 H143      -43.0683  -26.5973    8.5444 H         1 UNK         0.0734 
    144 H144      -43.6124  -27.7819    6.4383 H         1 UNK         0.0832 
    145 H145      -43.6812  -28.8994    7.7905 H         1 UNK         0.0832 
    146 H146      -45.1721  -28.2898    7.0871 H         1 UNK         0.0832 
    147 H147      -45.4280  -25.8740    6.9949 H         1 UNK         0.3156 
    148 H148      -45.8569  -22.6636    8.1862 H         1 UNK         0.0589 
    149 H149      -44.3332  -23.1806    5.5759 H         1 UNK         0.0808 
    150 H150      -45.2635  -21.7329    5.9676 H         1 UNK         0.0808 
    151 H151      -43.8053  -22.1105    6.8666 H         1 UNK         0.0808 
    152 H152      -46.7785  -23.7192    5.7526 H         1 UNK         0.3098 
    153 H153      -49.0006  -24.2718    5.6581 H         1 UNK         0.0720 
    154 H154      -49.3498  -26.7051    5.1843 H         1 UNK         0.0791 
    155 H155      -48.4182  -27.1354    6.6189 H         1 UNK         0.0791 
    156 H156      -47.6366  -26.3386    5.2603 H         1 UNK         0.0791 
    157 H157      -50.5440  -26.0151    7.2656 H         1 UNK         0.3028 
@<TRIPOS>BOND
     1    1    2 1    
     2    1   82 1    
     3    1   83 1    
     4    1   84 1    
     5    2    3 2    
     6    2    4 am   BACKBONE|DICT|INTERRES
     7    4    5 1    
     8    4   85 1    
     9    5    6 1    
    10    5   80 1    
    11    5   86 1    
    12    6    7 1    
    13    6   87 1    
    14    6   88 1    
    15    7    8 1    
    16    8    9 1    
    17    8   89 1    
    18    8   90 1    
    19    9   10 ar   
    20    9   14 ar   
    21   10   11 ar   
    22   10   91 1    
    23   11   12 ar   
    24   11   58 1    
    25   12   13 ar   
    26   12   92 1    
    27   13   14 ar   
    28   13   15 1    
    29   14   93 1    
    30   15   16 1    
    31   15   94 1    
    32   15   95 1    
    33   16   17 1    
    34   17   18 1    
    35   17   96 1    
    36   17   97 1    
    37   18   19 1    
    38   18   22 1    
    39   18   98 1    
    40   19   20 am   BACKBONE|DICT|INTERRES
    41   19   21 2    
    42   20   99 1    
    43   20  100 1    
    44   22   23 am   BACKBONE|DICT|INTERRES
    45   22  101 1    
    46   23   24 2    
    47   23   25 1    
    48   25   26 1    
    49   25   27 1    
    50   25  102 1    
    51   26  103 1    
    52   26  104 1    
    53   26  105 1    
    54   27   28 am   BACKBONE|DICT|INTERRES
    55   27  106 1    
    56   28   29 2    
    57   28   30 1    
    58   30   31 1    
    59   30   32 1    
    60   30  107 1    
    61   31  108 1    
    62   31  109 1    
    63   31  110 1    
    64   32   33 am   BACKBONE|DICT|INTERRES
    65   32  111 1    
    66   33   34 2    
    67   33   35 1    
    68   35   36 1    
    69   35   37 1    
    70   35  112 1    
    71   36  113 1    
    72   36  114 1    
    73   36  115 1    
    74   37   38 am   BACKBONE|DICT|INTERRES
    75   37  116 1    
    76   38   39 2    
    77   38   40 1    
    78   40   41 1    
    79   40   42 1    
    80   40  117 1    
    81   41  118 1    
    82   41  119 1    
    83   41  120 1    
    84   42   43 am   BACKBONE|DICT|INTERRES
    85   42  121 1    
    86   43   44 2    
    87   43   45 1    
    88   45   46 1    
    89   45   47 1    
    90   45  122 1    
    91   46  123 1    
    92   46  124 1    
    93   46  125 1    
    94   47   48 am   BACKBONE|DICT|INTERRES
    95   47  126 1    
    96   48   49 2    
    97   48   50 1    
    98   50   51 1    
    99   50   52 1    
   100   50  127 1    
   101   51  128 1    
   102   51  129 1    
   103   51  130 1    
   104   52   53 am   BACKBONE|DICT|INTERRES
   105   52  131 1    
   106   53   54 2    
   107   53   55 1    
   108   55   56 1    
   109   55   59 1    
   110   55  132 1    
   111   56   57 1    
   112   56  133 1    
   113   56  134 1    
   114   57   58 1    
   115   58  135 1    
   116   58  136 1    
   117   59   60 am   BACKBONE|DICT|INTERRES
   118   59  137 1    
   119   60   61 2    
   120   60   62 1    
   121   62   63 1    
   122   62   64 1    
   123   62  138 1    
   124   63  139 1    
   125   63  140 1    
   126   63  141 1    
   127   64   65 am   BACKBONE|DICT|INTERRES
   128   64  142 1    
   129   65   66 2    
   130   65   67 1    
   131   67   68 1    
   132   67   69 1    
   133   67  143 1    
   134   68  144 1    
   135   68  145 1    
   136   68  146 1    
   137   69   70 am   BACKBONE|DICT|INTERRES
   138   69  147 1    
   139   70   71 2    
   140   70   72 1    
   141   72   73 1    
   142   72   74 1    
   143   72  148 1    
   144   73  149 1    
   145   73  150 1    
   146   73  151 1    
   147   74   75 am   BACKBONE|DICT|INTERRES
   148   74  152 1    
   149   75   76 2    
   150   75   77 1    
   151   77   78 1    
   152   77   79 1    
   153   77  153 1    
   154   78  154 1    
   155   78  155 1    
   156   78  156 1    
   157   79   80 am   BACKBONE|DICT|INTERRES
   158   79  157 1    
   159   80   81 2    
@<TRIPOS>SUBSTRUCTURE
     1 UNK         1 GROUP             0       ****    0 ROOT    
