@<TRIPOS>MOLECULE
3R207
157   159    1
SMALL
USER_CHARGES


@<TRIPOS>ATOM
      1 CA        -44.4254  -28.5520    7.1339 C.3       0 UNK        -0.1975 
      2 C         -45.2869  -28.6986    5.8882 C.2       0 UNK         0.4852 
      3 O         -44.9102  -28.2127    4.8216 O.2       0 UNK        -0.5216 
      4 N         -46.4443  -29.3606    6.0188 N.am      1 UNK        -0.4461 
      5 CA        -47.4385  -29.5698    4.9561 C.3       1 UNK         0.0864 
      6 C6        -48.4435  -30.6944    5.3206 C.3       14 UNK        -0.0898 
      7 S7        -49.1547  -30.5277    6.9937 S.3       14 UNK        -0.2598 
      8 C8        -50.8732  -30.0563    6.6289 C.3       14 UNK         0.0286 
      9 C9        -51.5781  -29.4948    7.8578 C.ar      14 UNK        -0.0844 
     10 C10       -52.1418  -28.2162    7.8181 C.ar      14 UNK        -0.0881 
     11 C11       -52.8028  -27.6920    8.9337 C.ar      14 UNK        -0.0643 
     12 C12       -52.8912  -28.4553   10.1001 C.ar      14 UNK        -0.0930 
     13 C13       -52.3383  -29.7375   10.1536 C.ar      14 UNK        -0.0827 
     14 C14       -51.6873  -30.2532    9.0286 C.ar      14 UNK        -0.1249 
     15 C15       -52.4418  -30.5674   11.4235 C.3       14 UNK         0.0141 
     16 S16       -53.8088  -31.7673   11.3128 S.3       14 UNK        -0.2313 
     17 C17       -54.9137  -31.2290   12.6620 C.3       14 UNK        -0.0915 
     18 CA        -55.9528  -30.1547   12.2232 C.3       13 UNK         0.0968 
     19 C         -57.2120  -30.7286   11.5082 C.2       13 UNK         0.5732 
     20 N         -58.3796  -30.1076   11.6376 N.am      13 UNK        -0.7310 
     21 O         -57.1437  -31.7446   10.8212 O.2       13 UNK        -0.5035 
     22 N         -56.2946  -29.2588   13.3393 N.am      13 UNK        -0.4233 
     23 C         -55.5645  -28.2079   13.7219 C.2       13 UNK         0.4989 
     24 O         -54.5280  -27.8547   13.1572 O.2       13 UNK        -0.4996 
     25 CA        -56.0598  -27.4493   14.9654 C.3       12 UNK         0.0216 
     26 CB        -55.8259  -28.2806   16.2383 C.3       12 UNK        -0.1964 
     27 N         -55.3608  -26.1678   15.0890 N.am      12 UNK        -0.4276 
     28 C         -55.7011  -25.0628   14.4107 C.2       12 UNK         0.5020 
     29 O         -56.7431  -24.9693   13.7582 O.2       12 UNK        -0.5489 
     30 CA        -54.7165  -23.8762   14.4024 C.3       11 UNK         0.0294 
     31 CB        -55.4220  -22.5231   14.6366 C.3       11 UNK        -0.2019 
     32 N         -53.5469  -24.0377   15.2744 N.am      11 UNK        -0.4493 
     33 C         -53.4960  -24.0064   16.6135 C.2       11 UNK         0.4932 
     34 O         -54.4754  -23.8221   17.3375 O.2       11 UNK        -0.5029 
     35 CA        -52.1049  -24.2434   17.2363 C.3       10 UNK         0.0280 
     36 CB        -52.1536  -24.4476   18.7654 C.3       10 UNK        -0.1976 
     37 N         -51.3659  -25.3369   16.5911 N.am      10 UNK        -0.4242 
     38 C         -51.7563  -26.6170   16.4753 C.2       10 UNK         0.5072 
     39 O         -52.8268  -27.0344   16.9166 O.2       10 UNK        -0.5224 
     40 CA        -50.8336  -27.6070   15.7344 C.3       9 UNK         0.0343 
     41 CB        -51.5766  -28.2752   14.5659 C.3       9 UNK        -0.2003 
     42 N         -49.6041  -27.0031   15.2194 N.am      9 UNK        -0.4272 
     43 C         -48.5100  -26.7354   15.9439 C.2       9 UNK         0.4988 
     44 O         -48.3851  -27.0301   17.1328 O.2       9 UNK        -0.5108 
     45 CA        -47.3806  -25.9683   15.2315 C.3       8 UNK         0.0248 
     46 CB        -46.4530  -26.9412   14.4873 C.3       8 UNK        -0.2001 
     47 N         -47.8698  -24.9381   14.3057 N.am      8 UNK        -0.4140 
     48 C         -48.6244  -23.8889   14.6698 C.2       8 UNK         0.5028 
     49 O         -48.9677  -23.6640   15.8305 O.2       8 UNK        -0.5428 
     50 CA        -49.1316  -22.9631   13.5535 C.3       7 UNK         0.0264 
     51 CB        -48.0131  -22.0349   13.0541 C.3       7 UNK        -0.1988 
     52 N         -49.7058  -23.7001   12.4276 N.am      7 UNK        -0.4454 
     53 C         -50.7896  -24.4887   12.4948 C.2       7 UNK         0.5027 
     54 O         -51.4647  -24.6400   13.5126 O.2       7 UNK        -0.5083 
     55 CA        -51.1577  -25.2636   11.2133 C.3       6 UNK         0.0844 
     56 C56       -51.9440  -24.3407   10.2465 C.3       14 UNK        -0.0967 
     57 S57       -52.2182  -25.0105    8.5731 S.3       14 UNK        -0.2604 
     58 C58       -53.4498  -26.3167    8.8589 C.3       14 UNK         0.0134 
     59 N         -49.9726  -25.8858   10.6134 N.am      6 UNK        -0.4116 
     60 C         -49.2022  -26.7981   11.2265 C.2       5 UNK         0.5034 
     61 O         -49.4352  -27.2616   12.3416 O.2       5 UNK        -0.5045 
     62 CA        -47.9139  -27.2157   10.5085 C.3       5 UNK         0.0224 
     63 CB        -48.1914  -28.3417    9.5046 C.3       5 UNK        -0.1978 
     64 N         -47.2838  -26.0789    9.8361 N.am      5 UNK        -0.4737 
     65 C         -46.6313  -25.1003   10.4795 C.2       4 UNK         0.5027 
     66 O         -46.4509  -25.0886   11.6971 O.2       4 UNK        -0.5211 
     67 CA        -46.1329  -23.9161    9.6315 C.3       4 UNK         0.0297 
     68 CB        -44.7488  -24.2254    9.0401 C.3       4 UNK        -0.1993 
     69 N         -47.0552  -23.5505    8.5525 N.am      4 UNK        -0.4486 
     70 C         -48.3067  -23.1093    8.7405 C.2       3 UNK         0.4961 
     71 O         -48.7939  -22.8978    9.8505 O.2       3 UNK        -0.5105 
     72 CA        -49.1816  -22.9048    7.4898 C.3       3 UNK         0.0299 
     73 CB        -49.0711  -21.4521    7.0008 C.3       3 UNK        -0.1972 
     74 N         -48.9181  -23.8160    6.3659 N.am      3 UNK        -0.4305 
     75 C         -48.8342  -25.1544    6.4148 C.2       2 UNK         0.5006 
     76 O         -48.8830  -25.8067    7.4597 O.2       2 UNK        -0.5106 
     77 CA        -48.6301  -25.8858    5.0784 C.3       2 UNK         0.0296 
     78 CB        -47.6493  -25.1475    4.1386 C.3       2 UNK        -0.2002 
     79 N         -48.1411  -27.2354    5.3521 N.am      2 UNK        -0.4032 
     80 C         -48.1492  -28.2718    4.5046 C.2       1 UNK         0.5000 
     81 O         -48.6649  -28.2306    3.3855 O.2       1 UNK        -0.5238 
     82 H82       -44.3329  -27.5006    7.4040 H         1 UNK         0.0889 
     83 H83       -43.4265  -28.9453    6.9477 H         1 UNK         0.0889 
     84 H84       -44.8450  -29.0858    7.9864 H         1 UNK         0.0889 
     85 H85       -46.7002  -29.7534    6.9143 H         1 UNK         0.3028 
     86 H86       -46.8869  -29.9133    4.0780 H         1 UNK         0.0864 
     87 H87       -47.9253  -31.6541    5.2905 H         1 UNK         0.0720 
     88 H88       -49.2382  -30.7749    4.5761 H         1 UNK         0.0720 
     89 H89       -51.4182  -30.9283    6.2650 H         1 UNK         0.0814 
     90 H90       -50.8772  -29.3240    5.8200 H         1 UNK         0.0814 
     91 H91       -52.0708  -27.6216    6.9175 H         1 UNK         0.1469 
     92 H92       -53.3987  -28.0543   10.9644 H         1 UNK         0.1381 
     93 H93       -51.2612  -31.2466    9.0647 H         1 UNK         0.1206 
     94 H94       -51.5076  -31.1060   11.5883 H         1 UNK         0.0813 
     95 H95       -52.5704  -29.9133   12.2868 H         1 UNK         0.0813 
     96 H96       -54.2879  -30.8572   13.4747 H         1 UNK         0.0638 
     97 H97       -55.4176  -32.1061   13.0715 H         1 UNK         0.0638 
     98 H98       -55.4859  -29.5351   11.4554 H         1 UNK         0.0568 
     99 H99       -58.4577  -29.2389   12.1411 H         1 UNK         0.3450 
    100 H100      -59.1871  -30.4890   11.1700 H         1 UNK         0.3450 
    101 H101      -57.1275  -29.5046   13.8554 H         1 UNK         0.2987 
    102 H102      -57.1314  -27.2662   14.8616 H         1 UNK         0.0766 
    103 H103      -56.0557  -27.7080   17.1371 H         1 UNK         0.0798 
    104 H104      -54.7936  -28.6232   16.3145 H         1 UNK         0.0798 
    105 H105      -56.4599  -29.1678   16.2502 H         1 UNK         0.0798 
    106 H106      -54.4742  -26.1861   15.5782 H         1 UNK         0.3198 
    107 H107      -54.3095  -23.8530   13.3903 H         1 UNK         0.0843 
    108 H108      -54.7147  -21.6946   14.6044 H         1 UNK         0.0831 
    109 H109      -55.9353  -22.4920   15.5979 H         1 UNK         0.0831 
    110 H110      -56.1720  -22.3363   13.8672 H         1 UNK         0.0831 
    111 H111      -52.6819  -24.2452   14.7723 H         1 UNK         0.3133 
    112 H112      -51.5298  -23.3365   17.0446 H         1 UNK         0.0566 
    113 H113      -51.1541  -24.5833   19.1786 H         1 UNK         0.0814 
    114 H114      -52.5938  -23.5819   19.2616 H         1 UNK         0.0814 
    115 H115      -52.7512  -25.3177   19.0392 H         1 UNK         0.0814 
    116 H116      -50.4798  -25.0660   16.1777 H         1 UNK         0.3091 
    117 H117      -50.5640  -28.3862   16.4500 H         1 UNK         0.0702 
    118 H118      -50.9489  -29.0144   14.0682 H         1 UNK         0.0785 
    119 H119      -51.8856  -27.5431   13.8184 H         1 UNK         0.0785 
    120 H120      -52.4744  -28.7913   14.9082 H         1 UNK         0.0785 
    121 H121      -49.5932  -26.7922   14.2248 H         1 UNK         0.2998 
    122 H122      -46.7935  -25.4612   15.9999 H         1 UNK         0.0697 
    123 H123      -45.6086  -26.4194   14.0366 H         1 UNK         0.0825 
    124 H124      -46.0457  -27.6900   15.1678 H         1 UNK         0.0825 
    125 H125      -46.9800  -27.4732   13.6951 H         1 UNK         0.0825 
    126 H126      -47.5898  -25.0289   13.3328 H         1 UNK         0.3029 
    127 H127      -49.9240  -22.3415   13.9761 H         1 UNK         0.0897 
    128 H128      -48.3883  -21.3250   12.3165 H         1 UNK         0.0792 
    129 H129      -47.5898  -21.4561   13.8761 H         1 UNK         0.0792 
    130 H130      -47.1977  -22.5928   12.5931 H         1 UNK         0.0792 
    131 H131      -49.2517  -23.5765   11.5242 H         1 UNK         0.3086 
    132 H132      -51.8217  -26.0781   11.5094 H         1 UNK         0.0583 
    133 H133      -52.9123  -24.0830   10.6801 H         1 UNK         0.1020 
    134 H134      -51.4229  -23.3905   10.1144 H         1 UNK         0.1020 
    135 H135      -54.0262  -26.0996    9.7597 H         1 UNK         0.0694 
    136 H136      -54.1614  -26.3108    8.0323 H         1 UNK         0.0694 
    137 H137      -49.7257  -25.5874    9.6787 H         1 UNK         0.2989 
    138 H138      -47.2197  -27.5982   11.2598 H         1 UNK         0.1055 
    139 H139      -48.5898  -29.2221   10.0109 H         1 UNK         0.0806 
    140 H140      -47.2833  -28.6476    8.9870 H         1 UNK         0.0806 
    141 H141      -48.9280  -28.0477    8.7565 H         1 UNK         0.0806 
    142 H142      -47.5034  -25.9589    8.8525 H         1 UNK         0.3061 
    143 H143      -46.0377  -23.0535   10.2944 H         1 UNK         0.0734 
    144 H144      -44.3404  -23.3637    8.5119 H         1 UNK         0.0832 
    145 H145      -44.0394  -24.4864    9.8269 H         1 UNK         0.0832 
    146 H146      -44.7837  -25.0631    8.3426 H         1 UNK         0.0832 
    147 H147      -46.7372  -23.6934    7.6054 H         1 UNK         0.3156 
    148 H148      -50.2144  -23.0722    7.7951 H         1 UNK         0.0589 
    149 H149      -48.0712  -21.2260    6.6281 H         1 UNK         0.0808 
    150 H150      -49.7837  -21.2451    6.2022 H         1 UNK         0.0808 
    151 H151      -49.2838  -20.7505    7.8091 H         1 UNK         0.0808 
    152 H152      -48.8491  -23.3799    5.4580 H         1 UNK         0.3098 
    153 H153      -49.6073  -25.9603    4.5975 H         1 UNK         0.0720 
    154 H154      -46.6793  -24.9926    4.6130 H         1 UNK         0.0791 
    155 H155      -48.0327  -24.1727    3.8364 H         1 UNK         0.0791 
    156 H156      -47.4780  -25.7084    3.2198 H         1 UNK         0.0791 
    157 H157      -47.7893  -27.3721    6.2901 H         1 UNK         0.3028 
@<TRIPOS>BOND
     1    1    2 1    
     2    1   82 1    
     3    1   83 1    
     4    1   84 1    
     5    2    3 2    
     6    2    4 am   BACKBONE|DICT|INTERRES
     7    4    5 1    
     8    4   85 1    
     9    5    6 1    
    10    5   80 1    
    11    5   86 1    
    12    6    7 1    
    13    6   87 1    
    14    6   88 1    
    15    7    8 1    
    16    8    9 1    
    17    8   89 1    
    18    8   90 1    
    19    9   10 ar   
    20    9   14 ar   
    21   10   11 ar   
    22   10   91 1    
    23   11   12 ar   
    24   11   58 1    
    25   12   13 ar   
    26   12   92 1    
    27   13   14 ar   
    28   13   15 1    
    29   14   93 1    
    30   15   16 1    
    31   15   94 1    
    32   15   95 1    
    33   16   17 1    
    34   17   18 1    
    35   17   96 1    
    36   17   97 1    
    37   18   19 1    
    38   18   22 1    
    39   18   98 1    
    40   19   20 am   BACKBONE|DICT|INTERRES
    41   19   21 2    
    42   20   99 1    
    43   20  100 1    
    44   22   23 am   BACKBONE|DICT|INTERRES
    45   22  101 1    
    46   23   24 2    
    47   23   25 1    
    48   25   26 1    
    49   25   27 1    
    50   25  102 1    
    51   26  103 1    
    52   26  104 1    
    53   26  105 1    
    54   27   28 am   BACKBONE|DICT|INTERRES
    55   27  106 1    
    56   28   29 2    
    57   28   30 1    
    58   30   31 1    
    59   30   32 1    
    60   30  107 1    
    61   31  108 1    
    62   31  109 1    
    63   31  110 1    
    64   32   33 am   BACKBONE|DICT|INTERRES
    65   32  111 1    
    66   33   34 2    
    67   33   35 1    
    68   35   36 1    
    69   35   37 1    
    70   35  112 1    
    71   36  113 1    
    72   36  114 1    
    73   36  115 1    
    74   37   38 am   BACKBONE|DICT|INTERRES
    75   37  116 1    
    76   38   39 2    
    77   38   40 1    
    78   40   41 1    
    79   40   42 1    
    80   40  117 1    
    81   41  118 1    
    82   41  119 1    
    83   41  120 1    
    84   42   43 am   BACKBONE|DICT|INTERRES
    85   42  121 1    
    86   43   44 2    
    87   43   45 1    
    88   45   46 1    
    89   45   47 1    
    90   45  122 1    
    91   46  123 1    
    92   46  124 1    
    93   46  125 1    
    94   47   48 am   BACKBONE|DICT|INTERRES
    95   47  126 1    
    96   48   49 2    
    97   48   50 1    
    98   50   51 1    
    99   50   52 1    
   100   50  127 1    
   101   51  128 1    
   102   51  129 1    
   103   51  130 1    
   104   52   53 am   BACKBONE|DICT|INTERRES
   105   52  131 1    
   106   53   54 2    
   107   53   55 1    
   108   55   56 1    
   109   55   59 1    
   110   55  132 1    
   111   56   57 1    
   112   56  133 1    
   113   56  134 1    
   114   57   58 1    
   115   58  135 1    
   116   58  136 1    
   117   59   60 am   BACKBONE|DICT|INTERRES
   118   59  137 1    
   119   60   61 2    
   120   60   62 1    
   121   62   63 1    
   122   62   64 1    
   123   62  138 1    
   124   63  139 1    
   125   63  140 1    
   126   63  141 1    
   127   64   65 am   BACKBONE|DICT|INTERRES
   128   64  142 1    
   129   65   66 2    
   130   65   67 1    
   131   67   68 1    
   132   67   69 1    
   133   67  143 1    
   134   68  144 1    
   135   68  145 1    
   136   68  146 1    
   137   69   70 am   BACKBONE|DICT|INTERRES
   138   69  147 1    
   139   70   71 2    
   140   70   72 1    
   141   72   73 1    
   142   72   74 1    
   143   72  148 1    
   144   73  149 1    
   145   73  150 1    
   146   73  151 1    
   147   74   75 am   BACKBONE|DICT|INTERRES
   148   74  152 1    
   149   75   76 2    
   150   75   77 1    
   151   77   78 1    
   152   77   79 1    
   153   77  153 1    
   154   78  154 1    
   155   78  155 1    
   156   78  156 1    
   157   79   80 am   BACKBONE|DICT|INTERRES
   158   79  157 1    
   159   80   81 2    
@<TRIPOS>SUBSTRUCTURE
     1 UNK         1 GROUP             0       ****    0 ROOT    
