@<TRIPOS>MOLECULE
3R207
157   159    1
SMALL
USER_CHARGES


@<TRIPOS>ATOM
      1 CA        -52.2452  -26.6768    4.1798 C.3       0 UNK        -0.1975 
      2 C         -51.1044  -26.6882    5.1853 C.2       0 UNK         0.4852 
      3 O         -50.0822  -26.0410    4.9562 O.2       0 UNK        -0.5216 
      4 N         -51.2834  -27.3903    6.3157 N.am      1 UNK        -0.4461 
      5 CA        -50.2807  -27.6378    7.3720 C.3       1 UNK         0.0864 
      6 C6        -49.1029  -28.5345    6.8911 C.3       14 UNK        -0.0898 
      7 S7        -49.6774  -30.0605    6.0596 S.3       14 UNK        -0.2598 
      8 C8        -49.2447  -31.3768    7.2440 C.3       14 UNK         0.0286 
      9 C9        -49.8639  -31.1732    8.6211 C.ar      14 UNK        -0.0844 
     10 C10       -49.0377  -31.0975    9.7465 C.ar      14 UNK        -0.0881 
     11 C11       -49.5796  -30.8817   11.0192 C.ar      14 UNK        -0.0643 
     12 C12       -50.9659  -30.7969   11.1572 C.ar      14 UNK        -0.0930 
     13 C13       -51.8066  -30.8836   10.0462 C.ar      14 UNK        -0.0827 
     14 C14       -51.2512  -31.0724    8.7774 C.ar      14 UNK        -0.1249 
     15 C15       -53.3114  -30.7867   10.2408 C.3       14 UNK         0.0141 
     16 S16       -53.8070  -29.1132   10.7580 S.3       14 UNK        -0.2313 
     17 C17       -55.4066  -29.4788   11.5531 C.3       14 UNK        -0.0915 
     18 CA        -56.3684  -28.2623   11.5791 C.3       13 UNK         0.0968 
     19 C         -57.7741  -28.6733   12.1110 C.2       13 UNK         0.5732 
     20 N         -58.2754  -28.1172   13.2093 N.am      13 UNK        -0.7310 
     21 O         -58.4345  -29.5122   11.5024 O.2       13 UNK        -0.5035 
     22 N         -55.7821  -27.1100   12.2802 N.am      13 UNK        -0.4233 
     23 C         -56.1642  -25.8400   12.0854 C.2       13 UNK         0.4989 
     24 O         -56.9570  -25.4987   11.2055 O.2       13 UNK        -0.4996 
     25 CA        -55.5713  -24.7691   13.0253 C.3       12 UNK         0.0216 
     26 CB        -56.4910  -23.5390   13.1827 C.3       12 UNK        -0.1964 
     27 N         -55.1717  -25.2894   14.3395 N.am      12 UNK        -0.4276 
     28 C         -55.9587  -25.8839   15.2475 C.2       12 UNK         0.5020 
     29 O         -57.1667  -26.0668   15.0784 O.2       12 UNK        -0.5489 
     30 CA        -55.2846  -26.3845   16.5443 C.3       11 UNK         0.0294 
     31 CB        -56.1764  -27.3838   17.3109 C.3       11 UNK        -0.2019 
     32 N         -53.9415  -26.9628   16.3844 N.am      11 UNK        -0.4493 
     33 C         -53.5419  -27.9003   15.5135 C.2       11 UNK         0.4932 
     34 O         -54.2263  -28.2922   14.5668 O.2       11 UNK        -0.5029 
     35 CA        -52.1518  -28.5228   15.7675 C.3       10 UNK         0.0280 
     36 CB        -51.7428  -29.5256   14.6757 C.3       10 UNK        -0.1976 
     37 N         -51.0766  -27.5390   15.9315 N.am      10 UNK        -0.4242 
     38 C         -50.8290  -26.8280   17.0410 C.2       10 UNK         0.5072 
     39 O         -51.5435  -26.8602   18.0439 O.2       10 UNK        -0.5224 
     40 CA        -49.5940  -25.9142   17.0197 C.3       9 UNK         0.0343 
     41 CB        -48.2941  -26.7355   17.0611 C.3       9 UNK        -0.2003 
     42 N         -49.6077  -25.0691   15.8283 N.am      9 UNK        -0.4272 
     43 C         -50.2261  -23.8814   15.7531 C.2       9 UNK         0.4988 
     44 O         -50.7083  -23.2939   16.7220 O.2       9 UNK        -0.5108 
     45 CA        -50.3601  -23.2505   14.3534 C.3       8 UNK         0.0248 
     46 CB        -49.1781  -22.3118   14.0628 C.3       8 UNK        -0.2001 
     47 N         -50.4717  -24.2454   13.2827 N.am      8 UNK        -0.4140 
     48 C         -51.4680  -25.1374   13.1762 C.2       8 UNK         0.5028 
     49 O         -52.4406  -25.1600   13.9268 O.2       8 UNK        -0.5428 
     50 CA        -51.3405  -26.2142   12.0854 C.3       7 UNK         0.0264 
     51 CB        -52.1575  -25.8234   10.8473 C.3       7 UNK        -0.1988 
     52 N         -49.9515  -26.4994   11.7033 N.am      7 UNK        -0.4454 
     53 C         -49.0304  -27.0254   12.5272 C.2       7 UNK         0.5027 
     54 O         -49.2567  -27.3113   13.7045 O.2       7 UNK        -0.5083 
     55 CA        -47.6113  -27.1890   11.9553 C.3       6 UNK         0.0844 
     56 C56       -47.4844  -28.4454   11.0636 C.3       14 UNK        -0.0967 
     57 S57       -47.0725  -29.9637   11.9878 S.3       14 UNK        -0.2604 
     58 C58       -48.7063  -30.7325   12.2645 C.3       14 UNK         0.0134 
     59 N         -47.2252  -25.9953   11.2078 N.am      6 UNK        -0.4116 
     60 C         -46.7238  -24.8735   11.7377 C.2       5 UNK         0.5034 
     61 O         -46.6073  -24.6886   12.9494 O.2       5 UNK        -0.5045 
     62 CA        -46.2905  -23.7726   10.7462 C.3       5 UNK         0.0224 
     63 CB        -45.1007  -22.9403   11.2683 C.3       5 UNK        -0.1978 
     64 N         -46.0300  -24.2769    9.3879 N.am      5 UNK        -0.4737 
     65 C         -45.1008  -25.1699    9.0031 C.2       4 UNK         0.5027 
     66 O         -44.2420  -25.6272    9.7569 O.2       4 UNK        -0.5211 
     67 CA        -45.1668  -25.6913    7.5534 C.3       4 UNK         0.0297 
     68 CB        -45.3433  -27.2205    7.5368 C.3       4 UNK        -0.1993 
     69 N         -46.2687  -25.0965    6.7965 N.am      4 UNK        -0.4486 
     70 C         -46.1870  -23.9838    6.0556 C.2       3 UNK         0.4961 
     71 O         -45.1398  -23.3722    5.8445 O.2       3 UNK        -0.5105 
     72 CA        -47.5090  -23.4433    5.4801 C.3       3 UNK         0.0299 
     73 CB        -47.7059  -23.9339    4.0373 C.3       3 UNK        -0.1972 
     74 N         -48.6798  -23.8065    6.2895 N.am      3 UNK        -0.4305 
     75 C         -48.9086  -23.3452    7.5309 C.2       2 UNK         0.5006 
     76 O         -48.1640  -22.5526    8.1060 O.2       2 UNK        -0.5106 
     77 CA        -50.1328  -23.8837    8.2913 C.3       2 UNK         0.0296 
     78 CB        -51.3306  -22.9381    8.1069 C.3       2 UNK        -0.2002 
     79 N         -50.5156  -25.2364    7.8869 N.am      2 UNK        -0.4032 
     80 C         -49.7783  -26.3434    8.0611 C.2       1 UNK         0.5000 
     81 O         -48.7413  -26.3548    8.7312 O.2       1 UNK        -0.5238 
     82 H82       -53.0947  -27.2692    4.5190 H         1 UNK         0.0889 
     83 H83       -51.9060  -27.0843    3.2279 H         1 UNK         0.0889 
     84 H84       -52.5870  -25.6560    4.0113 H         1 UNK         0.0889 
     85 H85       -52.1561  -27.8847    6.4416 H         1 UNK         0.3028 
     86 H86       -50.8054  -28.1878    8.1550 H         1 UNK         0.0864 
     87 H87       -48.4708  -27.9892    6.1880 H         1 UNK         0.0720 
     88 H88       -48.4578  -28.8065    7.7282 H         1 UNK         0.0720 
     89 H89       -48.1574  -31.4408    7.3092 H         1 UNK         0.0814 
     90 H90       -49.5830  -32.3336    6.8443 H         1 UNK         0.0814 
     91 H91       -47.9667  -31.1846    9.6277 H         1 UNK         0.1469 
     92 H92       -51.4017  -30.6555   12.1347 H         1 UNK         0.1381 
     93 H93       -51.8937  -31.1386    7.9099 H         1 UNK         0.1206 
     94 H94       -53.6130  -31.5098   11.0002 H         1 UNK         0.0813 
     95 H95       -53.8445  -31.0537    9.3272 H         1 UNK         0.0813 
     96 H96       -55.2140  -29.8382   12.5653 H         1 UNK         0.0638 
     97 H97       -55.8680  -30.3092   11.0152 H         1 UNK         0.0638 
     98 H98       -56.5280  -27.9668   10.5404 H         1 UNK         0.0568 
     99 H99       -59.1891  -28.3996   13.5249 H         1 UNK         0.3450 
    100 H100      -57.7612  -27.4145   13.7311 H         1 UNK         0.3450 
    101 H101      -55.1522  -27.3354   13.0440 H         1 UNK         0.2987 
    102 H102      -54.6545  -24.4260   12.5457 H         1 UNK         0.0766 
    103 H103      -56.0447  -22.7920   13.8391 H         1 UNK         0.0798 
    104 H104      -57.4633  -23.8107   13.5951 H         1 UNK         0.0798 
    105 H105      -56.6697  -23.0562   12.2212 H         1 UNK         0.0798 
    106 H106      -54.1651  -25.2612   14.5089 H         1 UNK         0.3198 
    107 H107      -55.1615  -25.5015   17.1731 H         1 UNK         0.0843 
    108 H108      -56.3678  -28.2815   16.7214 H         1 UNK         0.0831 
    109 H109      -57.1430  -26.9427   17.5579 H         1 UNK         0.0831 
    110 H110      -55.7153  -27.6905   18.2497 H         1 UNK         0.0831 
    111 H111      -53.2651  -26.7090   17.0995 H         1 UNK         0.3133 
    112 H112      -52.2374  -29.0858   16.6992 H         1 UNK         0.0566 
    113 H113      -51.6156  -29.0324   13.7138 H         1 UNK         0.0814 
    114 H114      -50.8059  -30.0227   14.9264 H         1 UNK         0.0814 
    115 H115      -52.4972  -30.3034   14.5491 H         1 UNK         0.0814 
    116 H116      -50.4420  -27.4373   15.1426 H         1 UNK         0.3091 
    117 H117      -49.6205  -25.2883   17.9144 H         1 UNK         0.0702 
    118 H118      -47.4193  -26.0860   17.0959 H         1 UNK         0.0785 
    119 H119      -48.1899  -27.3869   16.1927 H         1 UNK         0.0785 
    120 H120      -48.2628  -27.3687   17.9488 H         1 UNK         0.0785 
    121 H121      -49.2593  -25.4894   14.9764 H         1 UNK         0.2998 
    122 H122      -51.2773  -22.6577   14.3477 H         1 UNK         0.0697 
    123 H123      -48.2269  -22.8447   14.0654 H         1 UNK         0.0825 
    124 H124      -49.1112  -21.5279   14.8185 H         1 UNK         0.0825 
    125 H125      -49.2870  -21.8189   13.0965 H         1 UNK         0.0825 
    126 H126      -49.7077  -24.2987   12.6270 H         1 UNK         0.3029 
    127 H127      -51.7699  -27.1330   12.4871 H         1 UNK         0.0897 
    128 H128      -53.2146  -25.7314   11.0954 H         1 UNK         0.0792 
    129 H129      -52.0840  -26.5782   10.0651 H         1 UNK         0.0792 
    130 H130      -51.8371  -24.8668   10.4386 H         1 UNK         0.0792 
    131 H131      -49.6781  -26.2924   10.7514 H         1 UNK         0.3086 
    132 H132      -46.9229  -27.2904   12.7977 H         1 UNK         0.0583 
    133 H133      -48.3629  -28.5775   10.4315 H         1 UNK         0.1020 
    134 H134      -46.6586  -28.3124   10.3627 H         1 UNK         0.1020 
    135 H135      -48.5571  -31.7187   12.7055 H         1 UNK         0.0694 
    136 H136      -49.2273  -30.1355   13.0139 H         1 UNK         0.0694 
    137 H137      -47.3562  -26.0373   10.2031 H         1 UNK         0.2989 
    138 H138      -47.1453  -23.0998   10.6601 H         1 UNK         0.1055 
    139 H139      -45.3529  -22.4415   12.2051 H         1 UNK         0.0806 
    140 H140      -44.8173  -22.1646   10.5570 H         1 UNK         0.0806 
    141 H141      -44.2236  -23.5595   11.4581 H         1 UNK         0.0806 
    142 H142      -46.6646  -23.9240    8.6806 H         1 UNK         0.3061 
    143 H143      -44.2154  -25.4502    7.0746 H         1 UNK         0.0734 
    144 H144      -45.3583  -27.6071    6.5177 H         1 UNK         0.0832 
    145 H145      -44.5229  -27.7174    8.0566 H         1 UNK         0.0832 
    146 H146      -46.2696  -27.5254    8.0239 H         1 UNK         0.0832 
    147 H147      -47.1777  -25.5200    6.9225 H         1 UNK         0.3156 
    148 H148      -47.4402  -22.3535    5.4617 H         1 UNK         0.0589 
    149 H149      -47.7570  -25.0222    3.9841 H         1 UNK         0.0808 
    150 H150      -48.6221  -23.5342    3.6023 H         1 UNK         0.0808 
    151 H151      -46.8788  -23.6158    3.4011 H         1 UNK         0.0808 
    152 H152      -49.3143  -24.4890    5.8811 H         1 UNK         0.3098 
    153 H153      -49.8721  -23.9092    9.3512 H         1 UNK         0.0720 
    154 H154      -52.1957  -23.2656    8.6832 H         1 UNK         0.0791 
    155 H155      -51.6330  -22.8688    7.0611 H         1 UNK         0.0791 
    156 H156      -51.0850  -21.9291    8.4416 H         1 UNK         0.0791 
    157 H157      -51.3514  -25.3206    7.3265 H         1 UNK         0.3028 
@<TRIPOS>BOND
     1    1    2 1    
     2    1   82 1    
     3    1   83 1    
     4    1   84 1    
     5    2    3 2    
     6    2    4 am   BACKBONE|DICT|INTERRES
     7    4    5 1    
     8    4   85 1    
     9    5    6 1    
    10    5   80 1    
    11    5   86 1    
    12    6    7 1    
    13    6   87 1    
    14    6   88 1    
    15    7    8 1    
    16    8    9 1    
    17    8   89 1    
    18    8   90 1    
    19    9   10 ar   
    20    9   14 ar   
    21   10   11 ar   
    22   10   91 1    
    23   11   12 ar   
    24   11   58 1    
    25   12   13 ar   
    26   12   92 1    
    27   13   14 ar   
    28   13   15 1    
    29   14   93 1    
    30   15   16 1    
    31   15   94 1    
    32   15   95 1    
    33   16   17 1    
    34   17   18 1    
    35   17   96 1    
    36   17   97 1    
    37   18   19 1    
    38   18   22 1    
    39   18   98 1    
    40   19   20 am   BACKBONE|DICT|INTERRES
    41   19   21 2    
    42   20   99 1    
    43   20  100 1    
    44   22   23 am   BACKBONE|DICT|INTERRES
    45   22  101 1    
    46   23   24 2    
    47   23   25 1    
    48   25   26 1    
    49   25   27 1    
    50   25  102 1    
    51   26  103 1    
    52   26  104 1    
    53   26  105 1    
    54   27   28 am   BACKBONE|DICT|INTERRES
    55   27  106 1    
    56   28   29 2    
    57   28   30 1    
    58   30   31 1    
    59   30   32 1    
    60   30  107 1    
    61   31  108 1    
    62   31  109 1    
    63   31  110 1    
    64   32   33 am   BACKBONE|DICT|INTERRES
    65   32  111 1    
    66   33   34 2    
    67   33   35 1    
    68   35   36 1    
    69   35   37 1    
    70   35  112 1    
    71   36  113 1    
    72   36  114 1    
    73   36  115 1    
    74   37   38 am   BACKBONE|DICT|INTERRES
    75   37  116 1    
    76   38   39 2    
    77   38   40 1    
    78   40   41 1    
    79   40   42 1    
    80   40  117 1    
    81   41  118 1    
    82   41  119 1    
    83   41  120 1    
    84   42   43 am   BACKBONE|DICT|INTERRES
    85   42  121 1    
    86   43   44 2    
    87   43   45 1    
    88   45   46 1    
    89   45   47 1    
    90   45  122 1    
    91   46  123 1    
    92   46  124 1    
    93   46  125 1    
    94   47   48 am   BACKBONE|DICT|INTERRES
    95   47  126 1    
    96   48   49 2    
    97   48   50 1    
    98   50   51 1    
    99   50   52 1    
   100   50  127 1    
   101   51  128 1    
   102   51  129 1    
   103   51  130 1    
   104   52   53 am   BACKBONE|DICT|INTERRES
   105   52  131 1    
   106   53   54 2    
   107   53   55 1    
   108   55   56 1    
   109   55   59 1    
   110   55  132 1    
   111   56   57 1    
   112   56  133 1    
   113   56  134 1    
   114   57   58 1    
   115   58  135 1    
   116   58  136 1    
   117   59   60 am   BACKBONE|DICT|INTERRES
   118   59  137 1    
   119   60   61 2    
   120   60   62 1    
   121   62   63 1    
   122   62   64 1    
   123   62  138 1    
   124   63  139 1    
   125   63  140 1    
   126   63  141 1    
   127   64   65 am   BACKBONE|DICT|INTERRES
   128   64  142 1    
   129   65   66 2    
   130   65   67 1    
   131   67   68 1    
   132   67   69 1    
   133   67  143 1    
   134   68  144 1    
   135   68  145 1    
   136   68  146 1    
   137   69   70 am   BACKBONE|DICT|INTERRES
   138   69  147 1    
   139   70   71 2    
   140   70   72 1    
   141   72   73 1    
   142   72   74 1    
   143   72  148 1    
   144   73  149 1    
   145   73  150 1    
   146   73  151 1    
   147   74   75 am   BACKBONE|DICT|INTERRES
   148   74  152 1    
   149   75   76 2    
   150   75   77 1    
   151   77   78 1    
   152   77   79 1    
   153   77  153 1    
   154   78  154 1    
   155   78  155 1    
   156   78  156 1    
   157   79   80 am   BACKBONE|DICT|INTERRES
   158   79  157 1    
   159   80   81 2    
@<TRIPOS>SUBSTRUCTURE
     1 UNK         1 GROUP             0       ****    0 ROOT    
