@<TRIPOS>MOLECULE
3R207
157   159    1
SMALL
USER_CHARGES


@<TRIPOS>ATOM
      1 CA        -48.0296  -32.2356    5.7429 C.3       0 UNK        -0.1975 
      2 C         -47.5320  -31.4492    6.9531 C.2       0 UNK         0.4852 
      3 O         -47.3344  -32.0437    8.0116 O.2       0 UNK        -0.5216 
      4 N         -47.3062  -30.1339    6.8601 N.am      1 UNK        -0.4461 
      5 CA        -47.4692  -29.2509    5.7051 C.3       1 UNK         0.0864 
      6 C6        -48.9561  -29.0089    5.3152 C.3       14 UNK        -0.0898 
      7 S7        -49.9745  -28.2378    6.6223 S.3       14 UNK        -0.2598 
      8 C8        -51.5219  -27.9892    5.7003 C.3       14 UNK         0.0286 
      9 C9        -52.5640  -27.2977    6.5625 C.ar      14 UNK        -0.0844 
     10 C10       -52.5607  -25.9051    6.6815 C.ar      14 UNK        -0.0881 
     11 C11       -53.4958  -25.2598    7.4944 C.ar      14 UNK        -0.0643 
     12 C12       -54.4661  -26.0168    8.1544 C.ar      14 UNK        -0.0930 
     13 C13       -54.4675  -27.4110    8.0625 C.ar      14 UNK        -0.0827 
     14 C14       -53.5203  -28.0473    7.2546 C.ar      14 UNK        -0.1249 
     15 C15       -55.4770  -28.2231    8.8592 C.3       14 UNK         0.0141 
     16 S16       -55.3209  -27.8902   10.6427 S.3       14 UNK        -0.2313 
     17 C17       -56.4775  -29.1192   11.3360 C.3       14 UNK        -0.0915 
     18 CA        -55.7681  -30.2272   12.1584 C.3       13 UNK         0.0968 
     19 C         -55.0396  -31.2706   11.2598 C.2       13 UNK         0.5732 
     20 N         -53.7516  -31.5327   11.4476 N.am      13 UNK        -0.7310 
     21 O         -55.6619  -31.8658   10.3832 O.2       13 UNK        -0.5035 
     22 N         -54.9460  -29.6364   13.2239 N.am      13 UNK        -0.4233 
     23 C         -54.6222  -30.2237   14.3806 C.2       13 UNK         0.4989 
     24 O         -54.9851  -31.3562   14.7002 O.2       13 UNK        -0.4996 
     25 CA        -53.7402  -29.4154   15.3483 C.3       12 UNK         0.0216 
     26 CB        -52.2901  -29.9161   15.3019 C.3       12 UNK        -0.1964 
     27 N         -53.7614  -27.9715   15.0884 N.am      12 UNK        -0.4276 
     28 C         -54.7691  -27.1593   15.4320 C.2       12 UNK         0.5020 
     29 O         -55.7814  -27.5396   16.0247 O.2       12 UNK        -0.5489 
     30 CA        -54.6060  -25.6783   15.0403 C.3       11 UNK         0.0294 
     31 CB        -55.8085  -24.8059   15.4581 C.3       11 UNK        -0.2019 
     32 N         -53.3494  -25.0926   15.5279 N.am      11 UNK        -0.4493 
     33 C         -52.9304  -25.0084   16.7991 C.2       11 UNK         0.4932 
     34 O         -53.5635  -25.4284   17.7698 O.2       11 UNK        -0.5029 
     35 CA        -51.5651  -24.3247   17.0044 C.3       10 UNK         0.0280 
     36 CB        -51.2622  -24.0163   18.4863 C.3       10 UNK        -0.1976 
     37 N         -50.4571  -25.0729   16.3985 N.am      10 UNK        -0.4242 
     38 C         -50.0762  -26.3346   16.6647 C.2       10 UNK         0.5072 
     39 O         -50.6487  -27.0697   17.4699 O.2       10 UNK        -0.5224 
     40 CA        -48.8381  -26.8877   15.9302 C.3       9 UNK         0.0343 
     41 CB        -49.2000  -28.1071   15.0687 C.3       9 UNK        -0.2003 
     42 N         -48.1729  -25.9005   15.0817 N.am      9 UNK        -0.4272 
     43 C         -47.2719  -25.0082   15.5070 C.2       9 UNK         0.4988 
     44 O         -46.8862  -24.9212   16.6734 O.2       9 UNK        -0.5108 
     45 CA        -46.7170  -24.0357   14.4527 C.3       8 UNK         0.0248 
     46 CB        -45.5627  -24.6881   13.6743 C.3       8 UNK        -0.2001 
     47 N         -47.7179  -23.5241   13.5080 N.am      8 UNK        -0.4140 
     48 C         -48.8234  -22.8430   13.8401 C.2       8 UNK         0.5028 
     49 O         -49.2029  -22.6748   14.9992 O.2       8 UNK        -0.5428 
     50 CA        -49.6200  -22.2124   12.6872 C.3       7 UNK         0.0264 
     51 CB        -48.7145  -21.5032   11.6616 C.3       7 UNK        -0.1988 
     52 N         -50.4872  -23.1752   12.0068 N.am      7 UNK        -0.4454 
     53 C         -51.6501  -23.6168   12.5081 C.2       7 UNK         0.5027 
     54 O         -52.0484  -23.3594   13.6446 O.2       7 UNK        -0.5083 
     55 CA        -52.5389  -24.4836   11.5998 C.3       6 UNK         0.0844 
     56 C56       -53.2768  -23.6584   10.5119 C.3       14 UNK        -0.0967 
     57 S57       -52.3094  -23.2644    9.0122 S.3       14 UNK        -0.2604 
     58 C58       -53.4457  -23.7499    7.6705 C.3       14 UNK         0.0134 
     59 N         -51.8067  -25.6447   11.1001 N.am      6 UNK        -0.4116 
     60 C         -51.6417  -26.7767   11.8000 C.2       5 UNK         0.5034 
     61 O         -52.1657  -26.9981   12.8947 O.2       5 UNK        -0.5045 
     62 CA        -50.7180  -27.8430   11.1893 C.3       5 UNK         0.0224 
     63 CB        -51.4853  -28.7144   10.1871 C.3       5 UNK        -0.1978 
     64 N         -49.5282  -27.2851   10.5408 N.am      5 UNK        -0.4737 
     65 C         -48.5657  -26.6076   11.1819 C.2       4 UNK         0.5027 
     66 O         -48.5870  -26.3617   12.3852 O.2       4 UNK        -0.5211 
     67 CA        -47.3847  -26.0966   10.3440 C.3       4 UNK         0.0297 
     68 CB        -46.2649  -27.1467   10.3068 C.3       4 UNK        -0.1993 
     69 N         -47.7604  -25.7078    8.9819 N.am      4 UNK        -0.4486 
     70 C         -48.5795  -24.6812    8.7024 C.2       3 UNK         0.4961 
     71 O         -49.1255  -24.0110    9.5794 O.2       3 UNK        -0.5105 
     72 CA        -48.8771  -24.3568    7.2242 C.3       3 UNK         0.0299 
     73 CB        -48.9776  -22.8385    6.9654 C.3       3 UNK        -0.1972 
     74 N         -47.9794  -25.0044    6.2601 N.am      3 UNK        -0.4305 
     75 C         -46.6624  -24.8024    6.0919 C.2       2 UNK         0.5006 
     76 O         -46.0121  -23.9534    6.7035 O.2       2 UNK        -0.5106 
     77 CA        -45.9535  -25.7376    5.0845 C.3       2 UNK         0.0296 
     78 CB        -44.4347  -25.8412    5.3432 C.3       2 UNK        -0.2002 
     79 N         -46.5524  -27.0815    5.0022 N.am      2 UNK        -0.4032 
     80 C         -46.7332  -27.9362    6.0220 C.2       1 UNK         0.5000 
     81 O         -46.3945  -27.6946    7.1846 O.2       1 UNK        -0.5238 
     82 H82       -47.7021  -33.2728    5.8107 H         1 UNK         0.0889 
     83 H83       -47.6544  -31.8412    4.8005 H         1 UNK         0.0889 
     84 H84       -49.1187  -32.2325    5.7152 H         1 UNK         0.0889 
     85 H85       -46.9461  -29.6319    7.6635 H         1 UNK         0.3028 
     86 H86       -46.9440  -29.6960    4.8585 H         1 UNK         0.0864 
     87 H87       -49.0120  -28.3846    4.4218 H         1 UNK         0.0720 
     88 H88       -49.4301  -29.9482    5.0320 H         1 UNK         0.0720 
     89 H89       -51.8960  -28.9536    5.3529 H         1 UNK         0.0814 
     90 H90       -51.3258  -27.3933    4.8075 H         1 UNK         0.0814 
     91 H91       -51.8228  -25.3230    6.1493 H         1 UNK         0.1469 
     92 H92       -55.2066  -25.5283    8.7714 H         1 UNK         0.1381 
     93 H93       -53.5117  -29.1262    7.1805 H         1 UNK         0.1206 
     94 H94       -56.4861  -27.9743    8.5280 H         1 UNK         0.0813 
     95 H95       -55.3392  -29.2909    8.6814 H         1 UNK         0.0813 
     96 H96       -57.1724  -28.5814   11.9827 H         1 UNK         0.0638 
     97 H97       -57.0937  -29.5491   10.5442 H         1 UNK         0.0638 
     98 H98       -56.5592  -30.7966   12.6497 H         1 UNK         0.0568 
     99 H99       -53.2367  -31.0696   12.1769 H         1 UNK         0.3450 
    100 H100      -53.2994  -32.2169   10.8627 H         1 UNK         0.3450 
    101 H101      -54.5834  -28.7147   13.0296 H         1 UNK         0.2987 
    102 H102      -54.1240  -29.5909   16.3557 H         1 UNK         0.0766 
    103 H103      -51.7019  -29.4508   16.0921 H         1 UNK         0.0798 
    104 H104      -51.8143  -29.6982   14.3451 H         1 UNK         0.0798 
    105 H105      -52.2388  -30.9946   15.4577 H         1 UNK         0.0798 
    106 H106      -52.9965  -27.5844   14.5396 H         1 UNK         0.3198 
    107 H107      -54.5600  -25.6629   13.9520 H         1 UNK         0.0843 
    108 H108      -55.9428  -24.7912   16.5402 H         1 UNK         0.0831 
    109 H109      -56.7341  -25.1832   15.0216 H         1 UNK         0.0831 
    110 H110      -55.6876  -23.7766   15.1206 H         1 UNK         0.0831 
    111 H111      -52.7611  -24.6609   14.8181 H         1 UNK         0.3133 
    112 H112      -51.6116  -23.3700   16.4781 H         1 UNK         0.0566 
    113 H113      -50.3213  -23.4764   18.5929 H         1 UNK         0.0814 
    114 H114      -52.0447  -23.3937   18.9217 H         1 UNK         0.0814 
    115 H115      -51.1978  -24.9241   19.0871 H         1 UNK         0.0814 
    116 H116      -49.9059  -24.5412   15.7330 H         1 UNK         0.3091 
    117 H117      -48.1319  -27.2198   16.6942 H         1 UNK         0.0702 
    118 H118      -49.5034  -28.9453   15.6948 H         1 UNK         0.0785 
    119 H119      -50.0187  -27.8836   14.3851 H         1 UNK         0.0785 
    120 H120      -48.3503  -28.4444   14.4747 H         1 UNK         0.0785 
    121 H121      -48.3950  -25.9367   14.0854 H         1 UNK         0.2998 
    122 H122      -46.3169  -23.1726   14.9888 H         1 UNK         0.0697 
    123 H123      -45.8985  -25.5582   13.1096 H         1 UNK         0.0825 
    124 H124      -44.7784  -25.0262   14.3530 H         1 UNK         0.0825 
    125 H125      -45.1042  -23.9879   12.9759 H         1 UNK         0.0825 
    126 H126      -47.5169  -23.6447   12.5269 H         1 UNK         0.3029 
    127 H127      -50.2573  -21.4433   13.1302 H         1 UNK         0.0897 
    128 H128      -48.0622  -22.1947   11.1288 H         1 UNK         0.0792 
    129 H129      -48.0776  -20.7641   12.1495 H         1 UNK         0.0792 
    130 H130      -49.3083  -20.9743   10.9157 H         1 UNK         0.0792 
    131 H131      -50.1981  -23.4673   11.0749 H         1 UNK         0.3086 
    132 H132      -53.3348  -24.8587   12.2436 H         1 UNK         0.0583 
    133 H133      -54.1743  -24.2012   10.2234 H         1 UNK         0.1020 
    134 H134      -53.6508  -22.7215   10.9297 H         1 UNK         0.1020 
    135 H135      -54.4417  -23.3498    7.8666 H         1 UNK         0.0694 
    136 H136      -53.1090  -23.2842    6.7431 H         1 UNK         0.0694 
    137 H137      -51.3295  -25.5316   10.2173 H         1 UNK         0.2989 
    138 H138      -50.3799  -28.4831   12.0068 H         1 UNK         0.1055 
    139 H139      -52.3963  -29.1184   10.6297 H         1 UNK         0.0806 
    140 H140      -50.8848  -29.5582    9.8470 H         1 UNK         0.0806 
    141 H141      -51.7779  -28.1376    9.3115 H         1 UNK         0.0806 
    142 H142      -49.4308  -27.4340    9.5462 H         1 UNK         0.3061 
    143 H143      -46.9928  -25.2060   10.8386 H         1 UNK         0.0734 
    144 H144      -45.3985  -26.7855    9.7523 H         1 UNK         0.0832 
    145 H145      -45.9267  -27.3928   11.3142 H         1 UNK         0.0832 
    146 H146      -46.5981  -28.0750    9.8418 H         1 UNK         0.0832 
    147 H147      -47.3416  -26.2397    8.2247 H         1 UNK         0.3156 
    148 H148      -49.8611  -24.7817    7.0375 H         1 UNK         0.0589 
    149 H149      -48.0473  -22.3231    7.2048 H         1 UNK         0.0808 
    150 H150      -49.2225  -22.6278    5.9246 H         1 UNK         0.0808 
    151 H151      -49.7594  -22.3871    7.5769 H         1 UNK         0.0808 
    152 H152      -48.4042  -25.7372    5.7097 H         1 UNK         0.3098 
    153 H153      -46.0902  -25.2793    4.1039 H         1 UNK         0.0720 
    154 H154      -43.9507  -26.4891    4.6124 H         1 UNK         0.0791 
    155 H155      -44.2204  -26.2373    6.3366 H         1 UNK         0.0791 
    156 H156      -43.9562  -24.8636    5.2729 H         1 UNK         0.0791 
    157 H157      -46.8708  -27.3572    4.0829 H         1 UNK         0.3028 
@<TRIPOS>BOND
     1    1    2 1    
     2    1   82 1    
     3    1   83 1    
     4    1   84 1    
     5    2    3 2    
     6    2    4 am   BACKBONE|DICT|INTERRES
     7    4    5 1    
     8    4   85 1    
     9    5    6 1    
    10    5   80 1    
    11    5   86 1    
    12    6    7 1    
    13    6   87 1    
    14    6   88 1    
    15    7    8 1    
    16    8    9 1    
    17    8   89 1    
    18    8   90 1    
    19    9   10 ar   
    20    9   14 ar   
    21   10   11 ar   
    22   10   91 1    
    23   11   12 ar   
    24   11   58 1    
    25   12   13 ar   
    26   12   92 1    
    27   13   14 ar   
    28   13   15 1    
    29   14   93 1    
    30   15   16 1    
    31   15   94 1    
    32   15   95 1    
    33   16   17 1    
    34   17   18 1    
    35   17   96 1    
    36   17   97 1    
    37   18   19 1    
    38   18   22 1    
    39   18   98 1    
    40   19   20 am   BACKBONE|DICT|INTERRES
    41   19   21 2    
    42   20   99 1    
    43   20  100 1    
    44   22   23 am   BACKBONE|DICT|INTERRES
    45   22  101 1    
    46   23   24 2    
    47   23   25 1    
    48   25   26 1    
    49   25   27 1    
    50   25  102 1    
    51   26  103 1    
    52   26  104 1    
    53   26  105 1    
    54   27   28 am   BACKBONE|DICT|INTERRES
    55   27  106 1    
    56   28   29 2    
    57   28   30 1    
    58   30   31 1    
    59   30   32 1    
    60   30  107 1    
    61   31  108 1    
    62   31  109 1    
    63   31  110 1    
    64   32   33 am   BACKBONE|DICT|INTERRES
    65   32  111 1    
    66   33   34 2    
    67   33   35 1    
    68   35   36 1    
    69   35   37 1    
    70   35  112 1    
    71   36  113 1    
    72   36  114 1    
    73   36  115 1    
    74   37   38 am   BACKBONE|DICT|INTERRES
    75   37  116 1    
    76   38   39 2    
    77   38   40 1    
    78   40   41 1    
    79   40   42 1    
    80   40  117 1    
    81   41  118 1    
    82   41  119 1    
    83   41  120 1    
    84   42   43 am   BACKBONE|DICT|INTERRES
    85   42  121 1    
    86   43   44 2    
    87   43   45 1    
    88   45   46 1    
    89   45   47 1    
    90   45  122 1    
    91   46  123 1    
    92   46  124 1    
    93   46  125 1    
    94   47   48 am   BACKBONE|DICT|INTERRES
    95   47  126 1    
    96   48   49 2    
    97   48   50 1    
    98   50   51 1    
    99   50   52 1    
   100   50  127 1    
   101   51  128 1    
   102   51  129 1    
   103   51  130 1    
   104   52   53 am   BACKBONE|DICT|INTERRES
   105   52  131 1    
   106   53   54 2    
   107   53   55 1    
   108   55   56 1    
   109   55   59 1    
   110   55  132 1    
   111   56   57 1    
   112   56  133 1    
   113   56  134 1    
   114   57   58 1    
   115   58  135 1    
   116   58  136 1    
   117   59   60 am   BACKBONE|DICT|INTERRES
   118   59  137 1    
   119   60   61 2    
   120   60   62 1    
   121   62   63 1    
   122   62   64 1    
   123   62  138 1    
   124   63  139 1    
   125   63  140 1    
   126   63  141 1    
   127   64   65 am   BACKBONE|DICT|INTERRES
   128   64  142 1    
   129   65   66 2    
   130   65   67 1    
   131   67   68 1    
   132   67   69 1    
   133   67  143 1    
   134   68  144 1    
   135   68  145 1    
   136   68  146 1    
   137   69   70 am   BACKBONE|DICT|INTERRES
   138   69  147 1    
   139   70   71 2    
   140   70   72 1    
   141   72   73 1    
   142   72   74 1    
   143   72  148 1    
   144   73  149 1    
   145   73  150 1    
   146   73  151 1    
   147   74   75 am   BACKBONE|DICT|INTERRES
   148   74  152 1    
   149   75   76 2    
   150   75   77 1    
   151   77   78 1    
   152   77   79 1    
   153   77  153 1    
   154   78  154 1    
   155   78  155 1    
   156   78  156 1    
   157   79   80 am   BACKBONE|DICT|INTERRES
   158   79  157 1    
   159   80   81 2    
@<TRIPOS>SUBSTRUCTURE
     1 UNK         1 GROUP             0       ****    0 ROOT    
