@<TRIPOS>MOLECULE
3R207
157   159    1
SMALL
USER_CHARGES


@<TRIPOS>ATOM
      1 CA        -49.9547  -31.8649   10.1437 C.3       0 UNK        -0.1975 
      2 C         -49.5863  -30.5721    9.4341 C.2       0 UNK         0.4852 
      3 O         -48.9868  -29.6914   10.0501 O.2       0 UNK        -0.5216 
      4 N         -49.9223  -30.4607    8.1404 N.am      1 UNK        -0.4461 
      5 CA        -49.6675  -29.3276    7.2365 C.3       1 UNK         0.0864 
      6 C6        -50.3360  -28.0047    7.7072 C.3       14 UNK        -0.0898 
      7 S7        -50.6428  -26.8537    6.3250 S.3       14 UNK        -0.2598 
      8 C8        -52.3908  -27.1791    5.9379 C.3       14 UNK         0.0286 
      9 C9        -53.3326  -26.4641    6.8961 C.ar      14 UNK        -0.0844 
     10 C10       -53.5976  -25.1010    6.7296 C.ar      14 UNK        -0.0881 
     11 C11       -54.4857  -24.4372    7.5825 C.ar      14 UNK        -0.0643 
     12 C12       -55.1103  -25.1521    8.6095 C.ar      14 UNK        -0.0930 
     13 C13       -54.8654  -26.5194    8.7767 C.ar      14 UNK        -0.0827 
     14 C14       -53.9721  -27.1690    7.9200 C.ar      14 UNK        -0.1249 
     15 C15       -55.6036  -27.2976    9.8559 C.3       14 UNK         0.0141 
     16 S16       -54.7104  -27.2698   11.4375 S.3       14 UNK        -0.2313 
     17 C17       -53.6540  -28.7540   11.3164 C.3       14 UNK        -0.0915 
     18 CA        -54.1622  -29.9201   12.2050 C.3       13 UNK         0.0968 
     19 C         -53.3330  -31.2177   11.9773 C.2       13 UNK         0.5732 
     20 N         -52.7320  -31.8263   12.9948 N.am      13 UNK        -0.7310 
     21 O         -53.2478  -31.6954   10.8489 O.2       13 UNK        -0.5035 
     22 N         -54.2812  -29.5342   13.6214 N.am      13 UNK        -0.4233 
     23 C         -55.1658  -30.0795   14.4675 C.2       13 UNK         0.4989 
     24 O         -56.0129  -30.9058   14.1214 O.2       13 UNK        -0.4996 
     25 CA        -55.1058  -29.6311   15.9425 C.3       12 UNK         0.0216 
     26 CB        -55.7865  -30.6350   16.8976 C.3       12 UNK        -0.1964 
     27 N         -53.7570  -29.3102   16.4245 N.am      12 UNK        -0.4276 
     28 C         -52.6761  -30.1083   16.4349 C.2       12 UNK         0.5020 
     29 O         -52.6729  -31.2514   15.9744 O.2       12 UNK        -0.5489 
     30 CA        -51.3769  -29.5299   17.0333 C.3       11 UNK         0.0294 
     31 CB        -50.1363  -29.9932   16.2468 C.3       11 UNK        -0.2019 
     32 N         -51.4082  -28.0667   17.0376 N.am      11 UNK        -0.4493 
     33 C         -51.5326  -27.2795   18.1153 C.2       11 UNK         0.4932 
     34 O         -51.5358  -27.6997   19.2722 O.2       11 UNK        -0.5029 
     35 CA        -51.7152  -25.7665   17.8666 C.3       10 UNK         0.0280 
     36 CB        -50.3799  -25.0302   18.0556 C.3       10 UNK        -0.1976 
     37 N         -52.2582  -25.4472   16.5407 N.am      10 UNK        -0.4242 
     38 C         -53.4726  -25.8204   16.1021 C.2       10 UNK         0.5072 
     39 O         -54.3082  -26.3759   16.8153 O.2       10 UNK        -0.5224 
     40 CA        -53.7795  -25.6403   14.6022 C.3       9 UNK         0.0343 
     41 CB        -54.5680  -24.3451   14.3617 C.3       9 UNK        -0.2003 
     42 N         -52.5808  -25.6493   13.7570 N.am      9 UNK        -0.4272 
     43 C         -51.6908  -26.6535   13.6991 C.2       9 UNK         0.4988 
     44 O         -51.9027  -27.7555   14.2053 O.2       9 UNK        -0.5108 
     45 CA        -50.3159  -26.3911   13.0489 C.3       8 UNK         0.0248 
     46 CB        -50.1326  -27.2566   11.7955 C.3       8 UNK        -0.2001 
     47 N         -50.0548  -24.9896   12.7104 N.am      8 UNK        -0.4140 
     48 C         -50.0217  -23.9654   13.5797 C.2       8 UNK         0.5028 
     49 O         -50.0928  -24.1105   14.8013 O.2       8 UNK        -0.5428 
     50 CA        -50.0067  -22.5388   12.9932 C.3       7 UNK         0.0264 
     51 CB        -48.5987  -21.9333   13.0776 C.3       7 UNK        -0.1988 
     52 N         -50.4910  -22.4722   11.6081 N.am      7 UNK        -0.4454 
     53 C         -51.7266  -22.8257   11.2133 C.2       7 UNK         0.5027 
     54 O         -52.6229  -23.1154   12.0062 O.2       7 UNK        -0.5083 
     55 CA        -52.0067  -22.9410    9.6980 C.3       6 UNK         0.0844 
     56 C56       -53.0062  -21.8494    9.2427 C.3       14 UNK        -0.0967 
     57 S57       -53.3483  -21.8865    7.4489 S.3       14 UNK        -0.2604 
     58 C58       -54.8140  -22.9651    7.3592 C.3       14 UNK         0.0134 
     59 N         -50.8027  -22.9807    8.8588 N.am      6 UNK        -0.4116 
     60 C         -49.8489  -23.9202    8.8926 C.2       5 UNK         0.5034 
     61 O         -49.8172  -24.8267    9.7265 O.2       5 UNK        -0.5045 
     62 CA        -48.7335  -23.8311    7.8345 C.3       5 UNK         0.0224 
     63 CB        -48.7665  -22.5517    6.9664 C.3       5 UNK        -0.1978 
     64 N         -47.4080  -24.0219    8.4266 N.am      5 UNK        -0.4737 
     65 C         -46.8176  -23.2720    9.3698 C.2       4 UNK         0.5027 
     66 O         -47.3360  -22.2726    9.8693 O.2       4 UNK        -0.5211 
     67 CA        -45.4142  -23.7032    9.8489 C.3       4 UNK         0.0297 
     68 CB        -45.4959  -24.3224   11.2542 C.3       4 UNK        -0.1993 
     69 N         -44.7540  -24.6583    8.9540 N.am      4 UNK        -0.4486 
     70 C         -44.2913  -24.3811    7.7265 C.2       3 UNK         0.4961 
     71 O         -44.2427  -23.2438    7.2573 O.2       3 UNK        -0.5105 
     72 CA        -43.8278  -25.5717    6.8590 C.3       3 UNK         0.0299 
     73 CB        -42.2922  -25.6236    6.8012 C.3       3 UNK        -0.1972 
     74 N         -44.3363  -26.8894    7.2724 N.am      3 UNK        -0.4305 
     75 C         -45.6277  -27.2365    7.3805 C.2       2 UNK         0.5006 
     76 O         -46.5572  -26.4556    7.1677 O.2       2 UNK        -0.5106 
     77 CA        -45.9081  -28.6733    7.8624 C.3       2 UNK         0.0296 
     78 CB        -45.3107  -28.9153    9.2615 C.3       2 UNK        -0.2002 
     79 N         -47.3397  -28.9648    7.9292 N.am      2 UNK        -0.4032 
     80 C         -48.1691  -29.1483    6.8956 C.2       1 UNK         0.5000 
     81 O         -47.7970  -29.2098    5.7215 O.2       1 UNK        -0.5238 
     82 H82       -50.7202  -32.4211    9.6026 H         1 UNK         0.0889 
     83 H83       -50.3384  -31.6473   11.1398 H         1 UNK         0.0889 
     84 H84       -49.0753  -32.4993   10.2492 H         1 UNK         0.0889 
     85 H85       -50.3844  -31.2453    7.7011 H         1 UNK         0.3028 
     86 H86       -50.1543  -29.6220    6.3050 H         1 UNK         0.0864 
     87 H87       -51.2854  -28.2163    8.2000 H         1 UNK         0.0720 
     88 H88       -49.7286  -27.4954    8.4581 H         1 UNK         0.0720 
     89 H89       -52.5742  -28.2547    5.9395 H         1 UNK         0.0814 
     90 H90       -52.5911  -26.8414    4.9200 H         1 UNK         0.0814 
     91 H91       -53.1166  -24.5552    5.9292 H         1 UNK         0.1469 
     92 H92       -55.8067  -24.6507    9.2676 H         1 UNK         0.1381 
     93 H93       -53.7870  -28.2274    8.0398 H         1 UNK         0.1206 
     94 H94       -55.7793  -28.3271    9.5400 H         1 UNK         0.0813 
     95 H95       -56.5915  -26.8609   10.0100 H         1 UNK         0.0813 
     96 H96       -53.5902  -29.0621   10.2720 H         1 UNK         0.0638 
     97 H97       -52.6421  -28.4799   11.6055 H         1 UNK         0.0638 
     98 H98       -55.1629  -30.1618   11.8419 H         1 UNK         0.0568 
     99 H99       -52.8094  -31.4748   13.9430 H         1 UNK         0.3450 
    100 H100      -52.2169  -32.6734   12.8207 H         1 UNK         0.3450 
    101 H101      -53.5752  -28.8934   13.9678 H         1 UNK         0.2987 
    102 H102      -55.6714  -28.6994   15.9898 H         1 UNK         0.0766 
    103 H103      -55.3036  -31.6124   16.8651 H         1 UNK         0.0798 
    104 H104      -55.7602  -30.2821   17.9286 H         1 UNK         0.0798 
    105 H105      -56.8352  -30.7805   16.6353 H         1 UNK         0.0798 
    106 H106      -53.6563  -28.3718   16.7958 H         1 UNK         0.3198 
    107 H107      -51.2990  -29.9122   18.0530 H         1 UNK         0.0843 
    108 H108      -50.0335  -31.0786   16.2784 H         1 UNK         0.0831 
    109 H109      -49.2219  -29.5712   16.6638 H         1 UNK         0.0831 
    110 H110      -50.1930  -29.7016   15.1972 H         1 UNK         0.0831 
    111 H111      -51.4530  -27.6475   16.1137 H         1 UNK         0.3133 
    112 H112      -52.4204  -25.3940   18.6124 H         1 UNK         0.0566 
    113 H113      -50.5018  -23.9520   17.9490 H         1 UNK         0.0814 
    114 H114      -49.9687  -25.2132   19.0493 H         1 UNK         0.0814 
    115 H115      -49.6344  -25.3551   17.3283 H         1 UNK         0.0814 
    116 H116      -51.6227  -24.9903   15.8923 H         1 UNK         0.3091 
    117 H117      -54.4043  -26.4821   14.2993 H         1 UNK         0.0702 
    118 H118      -54.8783  -24.2619   13.3196 H         1 UNK         0.0785 
    119 H119      -53.9770  -23.4616   14.6064 H         1 UNK         0.0785 
    120 H120      -55.4719  -24.3168   14.9718 H         1 UNK         0.0785 
    121 H121      -52.3795  -24.7878   13.2615 H         1 UNK         0.2998 
    122 H122      -49.5628  -26.6922   13.7795 H         1 UNK         0.0697 
    123 H123      -50.8528  -27.0008   11.0173 H         1 UNK         0.0825 
    124 H124      -50.2601  -28.3145   12.0286 H         1 UNK         0.0825 
    125 H125      -49.1342  -27.1411   11.3728 H         1 UNK         0.0825 
    126 H126      -49.9845  -24.7852   11.7170 H         1 UNK         0.3029 
    127 H127      -50.6772  -21.9326   13.6061 H         1 UNK         0.0897 
    128 H128      -48.5841  -20.9040   12.7186 H         1 UNK         0.0792 
    129 H129      -48.2391  -21.9233   14.1075 H         1 UNK         0.0792 
    130 H130      -47.8829  -22.5046   12.4884 H         1 UNK         0.0792 
    131 H131      -49.8006  -22.2653   10.8981 H         1 UNK         0.3086 
    132 H132      -52.4949  -23.9086    9.5647 H         1 UNK         0.0583 
    133 H133      -53.9477  -21.9422    9.7882 H         1 UNK         0.1020 
    134 H134      -52.6186  -20.8573    9.4830 H         1 UNK         0.1020 
    135 H135      -55.5643  -22.6151    8.0699 H         1 UNK         0.0694 
    136 H136      -55.2609  -22.8581    6.3700 H         1 UNK         0.0694 
    137 H137      -50.7508  -22.2721    8.1419 H         1 UNK         0.2989 
    138 H138      -48.8842  -24.6825    7.1704 H         1 UNK         0.1055 
    139 H139      -47.9532  -22.5553    6.2404 H         1 UNK         0.0806 
    140 H140      -48.6670  -21.6446    7.5638 H         1 UNK         0.0806 
    141 H141      -49.6944  -22.4806    6.3972 H         1 UNK         0.0806 
    142 H142      -46.9229  -24.8537    8.0974 H         1 UNK         0.3061 
    143 H143      -44.7956  -22.8049    9.9024 H         1 UNK         0.0734 
    144 H144      -45.8854  -23.6027   11.9741 H         1 UNK         0.0832 
    145 H145      -46.1527  -25.1934   11.2752 H         1 UNK         0.0832 
    146 H146      -44.5137  -24.6304   11.6129 H         1 UNK         0.0832 
    147 H147      -44.7414  -25.6221    9.2520 H         1 UNK         0.3156 
    148 H148      -44.1995  -25.3885    5.8488 H         1 UNK         0.0589 
    149 H149      -41.8586  -25.8376    7.7789 H         1 UNK         0.0808 
    150 H150      -41.9449  -26.3860    6.1036 H         1 UNK         0.0808 
    151 H151      -41.8807  -24.6708    6.4646 H         1 UNK         0.0808 
    152 H152      -43.6363  -27.5896    7.4736 H         1 UNK         0.3098 
    153 H153      -45.4487  -29.3643    7.1528 H         1 UNK         0.0720 
    154 H154      -45.5247  -29.9257    9.6112 H         1 UNK         0.0791 
    155 H155      -45.7152  -28.2189    9.9977 H         1 UNK         0.0791 
    156 H156      -44.2261  -28.8039    9.2642 H         1 UNK         0.0791 
    157 H157      -47.7644  -28.9842    8.8540 H         1 UNK         0.3028 
@<TRIPOS>BOND
     1    1    2 1    
     2    1   82 1    
     3    1   83 1    
     4    1   84 1    
     5    2    3 2    
     6    2    4 am   BACKBONE|DICT|INTERRES
     7    4    5 1    
     8    4   85 1    
     9    5    6 1    
    10    5   80 1    
    11    5   86 1    
    12    6    7 1    
    13    6   87 1    
    14    6   88 1    
    15    7    8 1    
    16    8    9 1    
    17    8   89 1    
    18    8   90 1    
    19    9   10 ar   
    20    9   14 ar   
    21   10   11 ar   
    22   10   91 1    
    23   11   12 ar   
    24   11   58 1    
    25   12   13 ar   
    26   12   92 1    
    27   13   14 ar   
    28   13   15 1    
    29   14   93 1    
    30   15   16 1    
    31   15   94 1    
    32   15   95 1    
    33   16   17 1    
    34   17   18 1    
    35   17   96 1    
    36   17   97 1    
    37   18   19 1    
    38   18   22 1    
    39   18   98 1    
    40   19   20 am   BACKBONE|DICT|INTERRES
    41   19   21 2    
    42   20   99 1    
    43   20  100 1    
    44   22   23 am   BACKBONE|DICT|INTERRES
    45   22  101 1    
    46   23   24 2    
    47   23   25 1    
    48   25   26 1    
    49   25   27 1    
    50   25  102 1    
    51   26  103 1    
    52   26  104 1    
    53   26  105 1    
    54   27   28 am   BACKBONE|DICT|INTERRES
    55   27  106 1    
    56   28   29 2    
    57   28   30 1    
    58   30   31 1    
    59   30   32 1    
    60   30  107 1    
    61   31  108 1    
    62   31  109 1    
    63   31  110 1    
    64   32   33 am   BACKBONE|DICT|INTERRES
    65   32  111 1    
    66   33   34 2    
    67   33   35 1    
    68   35   36 1    
    69   35   37 1    
    70   35  112 1    
    71   36  113 1    
    72   36  114 1    
    73   36  115 1    
    74   37   38 am   BACKBONE|DICT|INTERRES
    75   37  116 1    
    76   38   39 2    
    77   38   40 1    
    78   40   41 1    
    79   40   42 1    
    80   40  117 1    
    81   41  118 1    
    82   41  119 1    
    83   41  120 1    
    84   42   43 am   BACKBONE|DICT|INTERRES
    85   42  121 1    
    86   43   44 2    
    87   43   45 1    
    88   45   46 1    
    89   45   47 1    
    90   45  122 1    
    91   46  123 1    
    92   46  124 1    
    93   46  125 1    
    94   47   48 am   BACKBONE|DICT|INTERRES
    95   47  126 1    
    96   48   49 2    
    97   48   50 1    
    98   50   51 1    
    99   50   52 1    
   100   50  127 1    
   101   51  128 1    
   102   51  129 1    
   103   51  130 1    
   104   52   53 am   BACKBONE|DICT|INTERRES
   105   52  131 1    
   106   53   54 2    
   107   53   55 1    
   108   55   56 1    
   109   55   59 1    
   110   55  132 1    
   111   56   57 1    
   112   56  133 1    
   113   56  134 1    
   114   57   58 1    
   115   58  135 1    
   116   58  136 1    
   117   59   60 am   BACKBONE|DICT|INTERRES
   118   59  137 1    
   119   60   61 2    
   120   60   62 1    
   121   62   63 1    
   122   62   64 1    
   123   62  138 1    
   124   63  139 1    
   125   63  140 1    
   126   63  141 1    
   127   64   65 am   BACKBONE|DICT|INTERRES
   128   64  142 1    
   129   65   66 2    
   130   65   67 1    
   131   67   68 1    
   132   67   69 1    
   133   67  143 1    
   134   68  144 1    
   135   68  145 1    
   136   68  146 1    
   137   69   70 am   BACKBONE|DICT|INTERRES
   138   69  147 1    
   139   70   71 2    
   140   70   72 1    
   141   72   73 1    
   142   72   74 1    
   143   72  148 1    
   144   73  149 1    
   145   73  150 1    
   146   73  151 1    
   147   74   75 am   BACKBONE|DICT|INTERRES
   148   74  152 1    
   149   75   76 2    
   150   75   77 1    
   151   77   78 1    
   152   77   79 1    
   153   77  153 1    
   154   78  154 1    
   155   78  155 1    
   156   78  156 1    
   157   79   80 am   BACKBONE|DICT|INTERRES
   158   79  157 1    
   159   80   81 2    
@<TRIPOS>SUBSTRUCTURE
     1 UNK         1 GROUP             0       ****    0 ROOT    
