@<TRIPOS>MOLECULE
3R207
157   159    1
SMALL
USER_CHARGES


@<TRIPOS>ATOM
      1 CA        -46.6831  -31.4845    2.1543 C.3       0 UNK        -0.1975 
      2 C         -47.4316  -30.1667    2.2897 C.2       0 UNK         0.4852 
      3 O         -47.0329  -29.1731    1.6812 O.2       0 UNK        -0.5216 
      4 N         -48.5146  -30.1534    3.0802 N.am      1 UNK        -0.4461 
      5 CA        -49.3487  -28.9746    3.3502 C.3       1 UNK         0.0864 
      6 C6        -50.6844  -29.3845    4.0265 C.3       14 UNK        -0.0898 
      7 S7        -52.0683  -28.2357    3.7077 S.3       14 UNK        -0.2598 
      8 C8        -51.9991  -27.0797    5.1161 C.3       14 UNK         0.0286 
      9 C9        -52.3860  -27.7203    6.4413 C.ar      14 UNK        -0.0844 
     10 C10       -51.4017  -28.2669    7.2711 C.ar      14 UNK        -0.0881 
     11 C11       -51.7325  -28.8297    8.5049 C.ar      14 UNK        -0.0643 
     12 C12       -53.0752  -28.8583    8.8931 C.ar      14 UNK        -0.0930 
     13 C13       -54.0652  -28.2734    8.1009 C.ar      14 UNK        -0.0827 
     14 C14       -53.7184  -27.7160    6.8667 C.ar      14 UNK        -0.1249 
     15 C15       -55.4963  -28.2299    8.6118 C.3       14 UNK         0.0141 
     16 S16       -55.5969  -27.2474   10.1468 S.3       14 UNK        -0.2313 
     17 C17       -56.9155  -28.1169   11.0602 C.3       14 UNK        -0.0915 
     18 CA        -56.3978  -29.1576   12.0930 C.3       13 UNK         0.0968 
     19 C         -55.9147  -30.4796   11.4244 C.2       13 UNK         0.5732 
     20 N         -54.6722  -30.9102   11.6090 N.am      13 UNK        -0.7310 
     21 O         -56.6909  -31.1345   10.7329 O.2       13 UNK        -0.5035 
     22 N         -55.4605  -28.5607   13.0609 N.am      13 UNK        -0.4233 
     23 C         -55.2028  -29.0658   14.2747 C.2       13 UNK         0.4989 
     24 O         -55.7426  -30.0813   14.7161 O.2       13 UNK        -0.4996 
     25 CA        -54.1685  -28.3411   15.1578 C.3       12 UNK         0.0216 
     26 CB        -52.8215  -29.0796   15.1190 C.3       12 UNK        -0.1964 
     27 N         -53.9450  -26.9212   14.8625 N.am      12 UNK        -0.4276 
     28 C         -54.8710  -25.9553   14.9246 C.2       12 UNK         0.5020 
     29 O         -56.0689  -26.1559   15.1347 O.2       12 UNK        -0.5489 
     30 CA        -54.3353  -24.5220   14.7599 C.3       11 UNK         0.0294 
     31 CB        -55.4515  -23.4580   14.6942 C.3       11 UNK        -0.2019 
     32 N         -53.3528  -24.1938   15.8024 N.am      11 UNK        -0.4493 
     33 C         -53.5465  -24.1675   17.1303 C.2       11 UNK         0.4932 
     34 O         -54.6244  -24.3951   17.6820 O.2       11 UNK        -0.5029 
     35 CA        -52.3161  -23.7969   17.9762 C.3       10 UNK         0.0280 
     36 CB        -52.5600  -23.8975   19.4980 C.3       10 UNK        -0.1976 
     37 N         -51.1092  -24.5284   17.5766 N.am      10 UNK        -0.4242 
     38 C         -50.8474  -25.8388   17.7088 C.2       10 UNK         0.5072 
     39 O         -51.6505  -26.6482   18.1748 O.2       10 UNK        -0.5224 
     40 CA        -49.4483  -26.3391   17.2739 C.3       9 UNK         0.0343 
     41 CB        -49.5062  -27.7216   16.6021 C.3       9 UNK        -0.2003 
     42 N         -48.7414  -25.4172   16.3819 N.am      9 UNK        -0.4272 
     43 C         -48.0738  -24.3185   16.7580 C.2       9 UNK         0.4988 
     44 O         -47.8894  -23.9977   17.9319 O.2       9 UNK        -0.5108 
     45 CA        -47.5896  -23.3836   15.6352 C.3       8 UNK         0.0248 
     46 CB        -46.1491  -23.7333   15.2304 C.3       8 UNK        -0.2001 
     47 N         -48.4585  -23.3927   14.4500 N.am      8 UNK        -0.4140 
     48 C         -49.7524  -23.0309   14.4457 C.2       8 UNK         0.5028 
     49 O         -50.3511  -22.6156   15.4381 O.2       8 UNK        -0.5428 
     50 CA        -50.5341  -23.2280   13.1372 C.3       7 UNK         0.0264 
     51 CB        -50.1806  -22.1367   12.1157 C.3       7 UNK        -0.1988 
     52 N         -50.3167  -24.5556   12.5577 N.am      7 UNK        -0.4454 
     53 C         -50.6944  -25.7077   13.1332 C.2       7 UNK         0.5027 
     54 O         -51.3626  -25.7657   14.1666 O.2       7 UNK        -0.5083 
     55 CA        -50.2275  -27.0245   12.4851 C.3       6 UNK         0.0844 
     56 C56       -51.2789  -27.5855   11.5048 C.3       14 UNK        -0.0967 
     57 S57       -50.9859  -29.3598   11.1844 S.3       14 UNK        -0.2604 
     58 C58       -50.6184  -29.3804    9.3952 C.3       14 UNK         0.0134 
     59 N         -48.9015  -26.8971   11.8773 N.am      6 UNK        -0.4116 
     60 C         -47.7675  -26.7793   12.5802 C.2       5 UNK         0.5034 
     61 O         -47.7167  -26.7818   13.8103 O.2       5 UNK        -0.5045 
     62 CA        -46.4797  -26.5788   11.7693 C.3       5 UNK         0.0224 
     63 CB        -46.0015  -27.9057   11.1574 C.3       5 UNK        -0.1978 
     64 N         -46.6459  -25.5744   10.7160 N.am      5 UNK        -0.4737 
     65 C         -46.8108  -24.2648   10.9548 C.2       4 UNK         0.5027 
     66 O         -46.8399  -23.7760   12.0828 O.2       4 UNK        -0.5211 
     67 CA        -47.0101  -23.3424    9.7407 C.3       4 UNK         0.0297 
     68 CB        -45.6514  -22.8628    9.2066 C.3       4 UNK        -0.1993 
     69 N         -47.7743  -23.9514    8.6511 N.am      4 UNK        -0.4486 
     70 C         -49.0192  -24.4377    8.7533 C.2       3 UNK         0.4961 
     71 O         -49.6774  -24.4429    9.7929 O.2       3 UNK        -0.5105 
     72 CA        -49.6141  -25.0647    7.4839 C.3       3 UNK         0.0299 
     73 CB        -50.2697  -23.9741    6.6209 C.3       3 UNK        -0.1972 
     74 N         -48.6510  -25.8241    6.6736 N.am      3 UNK        -0.4305 
     75 C         -47.8575  -26.8141    7.1086 C.2       2 UNK         0.5006 
     76 O         -47.8129  -27.1900    8.2814 O.2       2 UNK        -0.5106 
     77 CA        -46.9873  -27.5089    6.0442 C.3       2 UNK         0.0296 
     78 CB        -45.8763  -28.3705    6.6736 C.3       2 UNK        -0.2002 
     79 N         -47.7896  -28.3495    5.1512 N.am      2 UNK        -0.4032 
     80 C         -48.5902  -27.9053    4.1699 C.2       1 UNK         0.5000 
     81 O         -48.7272  -26.7105    3.8969 O.2       1 UNK        -0.5238 
     82 H82       -45.6548  -31.3683    2.4957 H         1 UNK         0.0889 
     83 H83       -46.6624  -31.7984    1.1110 H         1 UNK         0.0889 
     84 H84       -47.1462  -32.2798    2.7381 H         1 UNK         0.0889 
     85 H85       -48.7983  -31.0090    3.5368 H         1 UNK         0.3028 
     86 H86       -49.5808  -28.5285    2.3802 H         1 UNK         0.0864 
     87 H87       -50.5611  -29.5723    5.0918 H         1 UNK         0.0720 
     88 H88       -51.0152  -30.3398    3.6154 H         1 UNK         0.0720 
     89 H89       -52.6670  -26.2424    4.9085 H         1 UNK         0.0814 
     90 H90       -51.0027  -26.6497    5.1860 H         1 UNK         0.0814 
     91 H91       -50.3671  -28.2417    6.9633 H         1 UNK         0.1469 
     92 H92       -53.3575  -29.2949    9.8392 H         1 UNK         0.1381 
     93 H93       -54.4799  -27.2667    6.2438 H         1 UNK         0.1206 
     94 H94       -56.1691  -27.8003    7.8682 H         1 UNK         0.0813 
     95 H95       -55.8358  -29.2514    8.7832 H         1 UNK         0.0813 
     96 H96       -57.6153  -28.5713   10.3564 H         1 UNK         0.0638 
     97 H97       -57.4932  -27.3555   11.5864 H         1 UNK         0.0638 
     98 H98       -57.2751  -29.4588   12.6688 H         1 UNK         0.0568 
     99 H99       -54.0287  -30.3926   12.1838 H         1 UNK         0.3450 
    100 H100      -54.3828  -31.7729   11.1771 H         1 UNK         0.3450 
    101 H101      -54.9842  -27.7240   12.7611 H         1 UNK         0.2987 
    102 H102      -54.5479  -28.3929   16.1805 H         1 UNK         0.0766 
    103 H103      -52.9502  -30.1487   15.2954 H         1 UNK         0.0798 
    104 H104      -52.1568  -28.7091   15.8978 H         1 UNK         0.0798 
    105 H105      -52.3199  -28.9646   14.1578 H         1 UNK         0.0798 
    106 H106      -52.9823  -26.6298   14.7080 H         1 UNK         0.3198 
    107 H107      -53.8044  -24.4946   13.8070 H         1 UNK         0.0843 
    108 H108      -56.0498  -23.4358   15.6055 H         1 UNK         0.0831 
    109 H109      -56.1321  -23.6613   13.8665 H         1 UNK         0.0831 
    110 H110      -55.0400  -22.4608   14.5387 H         1 UNK         0.0831 
    111 H111      -52.4051  -24.0511   15.4754 H         1 UNK         0.3133 
    112 H112      -52.1100  -22.7485   17.7554 H         1 UNK         0.0566 
    113 H113      -52.8336  -24.9083   19.8016 H         1 UNK         0.0814 
    114 H114      -53.3721  -23.2378   19.8059 H         1 UNK         0.0814 
    115 H115      -51.6746  -23.6048   20.0623 H         1 UNK         0.0814 
    116 H116      -50.4115  -23.9578   17.1131 H         1 UNK         0.3091 
    117 H117      -48.8635  -26.4451   18.1898 H         1 UNK         0.0702 
    118 H118      -48.5070  -28.0874   16.3648 H         1 UNK         0.0785 
    119 H119      -50.0745  -27.6878   15.6742 H         1 UNK         0.0785 
    120 H120      -49.9740  -28.4623   17.2517 H         1 UNK         0.0785 
    121 H121      -48.7932  -25.6258   15.3922 H         1 UNK         0.2998 
    122 H122      -47.5935  -22.3672   16.0341 H         1 UNK         0.0697 
    123 H123      -45.7530  -23.0129   14.5146 H         1 UNK         0.0825 
    124 H124      -46.0871  -24.7234   14.7772 H         1 UNK         0.0825 
    125 H125      -45.4855  -23.7269   16.0961 H         1 UNK         0.0825 
    126 H126      -48.0229  -23.6820   13.5767 H         1 UNK         0.3029 
    127 H127      -51.5975  -23.1368   13.3675 H         1 UNK         0.0897 
    128 H128      -49.1265  -22.1649   11.8422 H         1 UNK         0.0792 
    129 H129      -50.3859  -21.1444   12.5194 H         1 UNK         0.0792 
    130 H130      -50.7666  -22.2430   11.2025 H         1 UNK         0.0792 
    131 H131      -49.8563  -24.5859   11.6500 H         1 UNK         0.3086 
    132 H132      -50.1370  -27.7399   13.3051 H         1 UNK         0.0583 
    133 H133      -52.2862  -27.4989   11.9172 H         1 UNK         0.1020 
    134 H134      -51.2851  -27.0140   10.5744 H         1 UNK         0.1020 
    135 H135      -49.6983  -28.8174    9.2340 H         1 UNK         0.0694 
    136 H136      -50.4104  -30.4079    9.0951 H         1 UNK         0.0694 
    137 H137      -48.8559  -26.8604   10.8686 H         1 UNK         0.2989 
    138 H138      -45.7091  -26.2239   12.4578 H         1 UNK         0.1055 
    139 H139      -45.8310  -28.6522   11.9343 H         1 UNK         0.0806 
    140 H140      -45.0623  -27.7787   10.6190 H         1 UNK         0.0806 
    141 H141      -46.7315  -28.3221   10.4622 H         1 UNK         0.0806 
    142 H142      -46.7125  -25.9128    9.7636 H         1 UNK         0.3061 
    143 H143      -47.5683  -22.4680   10.0795 H         1 UNK         0.0734 
    144 H144      -45.0543  -23.6889    8.8182 H         1 UNK         0.0832 
    145 H145      -45.7729  -22.1298    8.4090 H         1 UNK         0.0832 
    146 H146      -45.0700  -22.3846    9.9964 H         1 UNK         0.0832 
    147 H147      -47.3199  -24.0065    7.7514 H         1 UNK         0.3156 
    148 H148      -50.3918  -25.7579    7.8058 H         1 UNK         0.0589 
    149 H149      -50.7859  -24.3932    5.7584 H         1 UNK         0.0808 
    150 H150      -49.5365  -23.2557    6.2522 H         1 UNK         0.0808 
    151 H151      -51.0105  -23.4164    7.1961 H         1 UNK         0.0808 
    152 H152      -48.6510  -25.6434    5.6748 H         1 UNK         0.3098 
    153 H153      -46.5056  -26.7285    5.4511 H         1 UNK         0.0720 
    154 H154      -45.2496  -27.7744    7.3386 H         1 UNK         0.0791 
    155 H155      -45.2237  -28.7957    5.9108 H         1 UNK         0.0791 
    156 H156      -46.2844  -29.1927    7.2631 H         1 UNK         0.0791 
    157 H157      -47.7367  -29.3455    5.3069 H         1 UNK         0.3028 
@<TRIPOS>BOND
     1    1    2 1    
     2    1   82 1    
     3    1   83 1    
     4    1   84 1    
     5    2    3 2    
     6    2    4 am   BACKBONE|DICT|INTERRES
     7    4    5 1    
     8    4   85 1    
     9    5    6 1    
    10    5   80 1    
    11    5   86 1    
    12    6    7 1    
    13    6   87 1    
    14    6   88 1    
    15    7    8 1    
    16    8    9 1    
    17    8   89 1    
    18    8   90 1    
    19    9   10 ar   
    20    9   14 ar   
    21   10   11 ar   
    22   10   91 1    
    23   11   12 ar   
    24   11   58 1    
    25   12   13 ar   
    26   12   92 1    
    27   13   14 ar   
    28   13   15 1    
    29   14   93 1    
    30   15   16 1    
    31   15   94 1    
    32   15   95 1    
    33   16   17 1    
    34   17   18 1    
    35   17   96 1    
    36   17   97 1    
    37   18   19 1    
    38   18   22 1    
    39   18   98 1    
    40   19   20 am   BACKBONE|DICT|INTERRES
    41   19   21 2    
    42   20   99 1    
    43   20  100 1    
    44   22   23 am   BACKBONE|DICT|INTERRES
    45   22  101 1    
    46   23   24 2    
    47   23   25 1    
    48   25   26 1    
    49   25   27 1    
    50   25  102 1    
    51   26  103 1    
    52   26  104 1    
    53   26  105 1    
    54   27   28 am   BACKBONE|DICT|INTERRES
    55   27  106 1    
    56   28   29 2    
    57   28   30 1    
    58   30   31 1    
    59   30   32 1    
    60   30  107 1    
    61   31  108 1    
    62   31  109 1    
    63   31  110 1    
    64   32   33 am   BACKBONE|DICT|INTERRES
    65   32  111 1    
    66   33   34 2    
    67   33   35 1    
    68   35   36 1    
    69   35   37 1    
    70   35  112 1    
    71   36  113 1    
    72   36  114 1    
    73   36  115 1    
    74   37   38 am   BACKBONE|DICT|INTERRES
    75   37  116 1    
    76   38   39 2    
    77   38   40 1    
    78   40   41 1    
    79   40   42 1    
    80   40  117 1    
    81   41  118 1    
    82   41  119 1    
    83   41  120 1    
    84   42   43 am   BACKBONE|DICT|INTERRES
    85   42  121 1    
    86   43   44 2    
    87   43   45 1    
    88   45   46 1    
    89   45   47 1    
    90   45  122 1    
    91   46  123 1    
    92   46  124 1    
    93   46  125 1    
    94   47   48 am   BACKBONE|DICT|INTERRES
    95   47  126 1    
    96   48   49 2    
    97   48   50 1    
    98   50   51 1    
    99   50   52 1    
   100   50  127 1    
   101   51  128 1    
   102   51  129 1    
   103   51  130 1    
   104   52   53 am   BACKBONE|DICT|INTERRES
   105   52  131 1    
   106   53   54 2    
   107   53   55 1    
   108   55   56 1    
   109   55   59 1    
   110   55  132 1    
   111   56   57 1    
   112   56  133 1    
   113   56  134 1    
   114   57   58 1    
   115   58  135 1    
   116   58  136 1    
   117   59   60 am   BACKBONE|DICT|INTERRES
   118   59  137 1    
   119   60   61 2    
   120   60   62 1    
   121   62   63 1    
   122   62   64 1    
   123   62  138 1    
   124   63  139 1    
   125   63  140 1    
   126   63  141 1    
   127   64   65 am   BACKBONE|DICT|INTERRES
   128   64  142 1    
   129   65   66 2    
   130   65   67 1    
   131   67   68 1    
   132   67   69 1    
   133   67  143 1    
   134   68  144 1    
   135   68  145 1    
   136   68  146 1    
   137   69   70 am   BACKBONE|DICT|INTERRES
   138   69  147 1    
   139   70   71 2    
   140   70   72 1    
   141   72   73 1    
   142   72   74 1    
   143   72  148 1    
   144   73  149 1    
   145   73  150 1    
   146   73  151 1    
   147   74   75 am   BACKBONE|DICT|INTERRES
   148   74  152 1    
   149   75   76 2    
   150   75   77 1    
   151   77   78 1    
   152   77   79 1    
   153   77  153 1    
   154   78  154 1    
   155   78  155 1    
   156   78  156 1    
   157   79   80 am   BACKBONE|DICT|INTERRES
   158   79  157 1    
   159   80   81 2    
@<TRIPOS>SUBSTRUCTURE
     1 UNK         1 GROUP             0       ****    0 ROOT    
