@<TRIPOS>MOLECULE
3R207
157   159    1
SMALL
USER_CHARGES


@<TRIPOS>ATOM
      1 CA        -47.6658  -31.4680   12.0690 C.3       0 UNK        -0.1975 
      2 C         -47.7079  -30.3024   11.0931 C.2       0 UNK         0.4852 
      3 O         -47.5879  -29.1492   11.5065 O.2       0 UNK        -0.5216 
      4 N         -47.8605  -30.6051    9.7963 N.am      1 UNK        -0.4461 
      5 CA        -47.9151  -29.6785    8.6570 C.3       1 UNK         0.0864 
      6 C6        -49.0737  -28.6446    8.7498 C.3       14 UNK        -0.0898 
      7 S7        -49.6530  -28.1165    7.1030 S.3       14 UNK        -0.2598 
      8 C8        -51.1611  -29.1141    6.8993 C.3       14 UNK         0.0286 
      9 C9        -52.3663  -28.4820    7.5818 C.ar      14 UNK        -0.0844 
     10 C10       -53.0607  -27.4458    6.9504 C.ar      14 UNK        -0.0881 
     11 C11       -54.1984  -26.8863    7.5407 C.ar      14 UNK        -0.0643 
     12 C12       -54.6480  -27.3817    8.7682 C.ar      14 UNK        -0.0930 
     13 C13       -53.9600  -28.4144    9.4134 C.ar      14 UNK        -0.0827 
     14 C14       -52.8167  -28.9568    8.8176 C.ar      14 UNK        -0.1249 
     15 C15       -54.4795  -28.9854   10.7258 C.3       14 UNK         0.0141 
     16 S16       -53.7387  -28.1833   12.1834 S.3       14 UNK        -0.2313 
     17 C17       -54.6899  -26.6229   12.3058 C.3       14 UNK        -0.0915 
     18 CA        -55.8840  -26.6793   13.2983 C.3       13 UNK         0.0968 
     19 C         -57.1177  -27.4001   12.6780 C.2       13 UNK         0.5732 
     20 N         -57.5293  -28.5684   13.1594 N.am      13 UNK        -0.7310 
     21 O         -57.7154  -26.8823   11.7380 O.2       13 UNK        -0.5035 
     22 N         -55.4621  -27.1961   14.6047 N.am      13 UNK        -0.4233 
     23 C         -56.1524  -27.1083   15.7474 C.2       13 UNK         0.4989 
     24 O         -57.1615  -26.4151   15.8840 O.2       13 UNK        -0.4996 
     25 CA        -55.6242  -27.9468   16.9328 C.3       12 UNK         0.0216 
     26 CB        -56.7578  -28.4194   17.8675 C.3       12 UNK        -0.1964 
     27 N         -54.7773  -29.0826   16.5276 N.am      12 UNK        -0.4276 
     28 C         -55.1209  -30.1124   15.7343 C.2       12 UNK         0.5020 
     29 O         -56.2424  -30.2392   15.2395 O.2       12 UNK        -0.5489 
     30 CA        -54.0137  -31.1234   15.3788 C.3       11 UNK         0.0294 
     31 CB        -54.2958  -31.8495   14.0496 C.3       11 UNK        -0.2019 
     32 N         -52.7149  -30.4535   15.2825 N.am      11 UNK        -0.4493 
     33 C         -51.7164  -30.5593   16.1687 C.2       11 UNK         0.4932 
     34 O         -51.7384  -31.3034   17.1488 O.2       11 UNK        -0.5029 
     35 CA        -50.5025  -29.6410   15.9420 C.3       10 UNK         0.0280 
     36 CB        -49.4783  -30.3198   15.0200 C.3       10 UNK        -0.1976 
     37 N         -50.8628  -28.3359   15.3792 N.am      10 UNK        -0.4242 
     38 C         -51.6343  -27.4118   15.9648 C.2       10 UNK         0.5072 
     39 O         -52.1400  -27.5644   17.0782 O.2       10 UNK        -0.5224 
     40 CA        -51.9259  -26.1284   15.1571 C.3       9 UNK         0.0343 
     41 CB        -52.6761  -25.0636   15.9786 C.3       9 UNK        -0.2003 
     42 N         -50.7492  -25.5024   14.5465 N.am      9 UNK        -0.4272 
     43 C         -50.0365  -25.9723   13.5150 C.2       9 UNK         0.4988 
     44 O         -50.2386  -27.0676   12.9892 O.2       9 UNK        -0.5108 
     45 CA        -48.9456  -25.0363   12.9696 C.3       8 UNK         0.0248 
     46 CB        -47.9092  -25.7814   12.1091 C.3       8 UNK        -0.2001 
     47 N         -49.5699  -23.9722   12.1810 N.am      8 UNK        -0.4140 
     48 C         -50.1575  -22.8854   12.7084 C.2       8 UNK         0.5028 
     49 O         -50.1260  -22.6230   13.9124 O.2       8 UNK        -0.5428 
     50 CA        -50.9297  -21.9393   11.7684 C.3       7 UNK         0.0264 
     51 CB        -50.1289  -20.6551   11.5043 C.3       7 UNK        -0.1988 
     52 N         -51.2942  -22.5588   10.4928 N.am      7 UNK        -0.4454 
     53 C         -52.2709  -23.4690   10.3472 C.2       7 UNK         0.5027 
     54 O         -53.0350  -23.7855   11.2586 O.2       7 UNK        -0.5083 
     55 CA        -52.4307  -24.1477    8.9665 C.3       6 UNK         0.0844 
     56 C56       -53.7257  -23.6525    8.2708 C.3       14 UNK        -0.0967 
     57 S57       -53.9387  -24.2875    6.5702 S.3       14 UNK        -0.2604 
     58 C58       -54.9608  -25.7718    6.8358 C.3       14 UNK         0.0134 
     59 N         -51.2526  -24.0272    8.0986 N.am      6 UNK        -0.4116 
     60 C         -50.0291  -24.4989    8.3683 C.2       5 UNK         0.5034 
     61 O         -49.7265  -25.0269    9.4384 O.2       5 UNK        -0.5045 
     62 CA        -48.9468  -24.3305    7.2877 C.3       5 UNK         0.0224 
     63 CB        -49.4000  -23.5484    6.0328 C.3       5 UNK        -0.1978 
     64 N         -47.7225  -23.7544    7.8491 N.am      5 UNK        -0.4737 
     65 C         -47.5778  -22.5581    8.4400 C.2       4 UNK         0.5027 
     66 O         -48.4998  -21.7522    8.5728 O.2       4 UNK        -0.5211 
     67 CA        -46.1816  -22.1895    8.9890 C.3       4 UNK         0.0297 
     68 CB        -46.2156  -22.0561   10.5207 C.3       4 UNK        -0.1993 
     69 N         -45.1318  -23.1450    8.6201 N.am      4 UNK        -0.4486 
     70 C         -44.5759  -23.2465    7.4046 C.2       3 UNK         0.4961 
     71 O         -44.8074  -22.4639    6.4826 O.2       3 UNK        -0.5105 
     72 CA        -43.6171  -24.4309    7.1580 C.3       3 UNK         0.0299 
     73 CB        -42.1570  -23.9513    7.2030 C.3       3 UNK        -0.1972 
     74 N         -43.7727  -25.5773    8.0672 N.am      3 UNK        -0.4305 
     75 C         -44.8947  -26.2881    8.2552 C.2       2 UNK         0.5006 
     76 O         -45.9691  -26.0092    7.7202 O.2       2 UNK        -0.5106 
     77 CA        -44.7926  -27.4721    9.2378 C.3       2 UNK         0.0296 
     78 CB        -44.4307  -26.9882   10.6540 C.3       2 UNK        -0.2002 
     79 N         -46.0320  -28.2476    9.3206 N.am      2 UNK        -0.4032 
     80 C         -46.5472  -29.0244    8.3593 C.2       1 UNK         0.5000 
     81 O         -45.9768  -29.2653    7.2927 O.2       1 UNK        -0.5238 
     82 H82       -47.1538  -32.3273   11.6364 H         1 UNK         0.0889 
     83 H83       -48.6768  -31.7700   12.3394 H         1 UNK         0.0889 
     84 H84       -47.1369  -31.1858   12.9792 H         1 UNK         0.0889 
     85 H85       -47.9224  -31.5812    9.5405 H         1 UNK         0.3028 
     86 H86       -48.1285  -30.3289    7.8069 H         1 UNK         0.0864 
     87 H87       -49.9174  -29.0704    9.2936 H         1 UNK         0.0720 
     88 H88       -48.7829  -27.7607    9.3200 H         1 UNK         0.0720 
     89 H89       -50.9891  -30.1256    7.2706 H         1 UNK         0.0814 
     90 H90       -51.3670  -29.2180    5.8330 H         1 UNK         0.0814 
     91 H91       -52.7176  -27.0747    5.9942 H         1 UNK         0.1469 
     92 H92       -55.5439  -26.9728    9.2144 H         1 UNK         0.1381 
     93 H93       -52.2904  -29.7640    9.3082 H         1 UNK         0.1206 
     94 H94       -55.5664  -28.9128   10.7681 H         1 UNK         0.0813 
     95 H95       -54.2538  -30.0518   10.7705 H         1 UNK         0.0813 
     96 H96       -53.9948  -25.8525   12.6385 H         1 UNK         0.0638 
     97 H97       -55.0112  -26.2927   11.3188 H         1 UNK         0.0638 
     98 H98       -56.2077  -25.6497   13.4615 H         1 UNK         0.0568 
     99 H99       -57.0440  -29.0295   13.9232 H         1 UNK         0.3450 
    100 H100      -58.3330  -29.0106   12.7443 H         1 UNK         0.3450 
    101 H101      -54.6687  -27.8158   14.5776 H         1 UNK         0.2987 
    102 H102      -54.9805  -27.2802   17.5083 H         1 UNK         0.0766 
    103 H103      -57.4837  -29.0405   17.3416 H         1 UNK         0.0798 
    104 H104      -56.3666  -28.9970   18.7050 H         1 UNK         0.0798 
    105 H105      -57.3004  -27.5716   18.2875 H         1 UNK         0.0798 
    106 H106      -53.8211  -29.0400   16.8628 H         1 UNK         0.3198 
    107 H107      -54.0016  -31.8703   16.1753 H         1 UNK         0.0843 
    108 H108      -55.2238  -32.4204   14.1035 H         1 UNK         0.0831 
    109 H109      -53.4998  -32.5531   13.8054 H         1 UNK         0.0831 
    110 H110      -54.3919  -31.1494   13.2190 H         1 UNK         0.0831 
    111 H111      -52.5926  -29.8188   14.5056 H         1 UNK         0.3133 
    112 H112      -50.0317  -29.4660   16.9115 H         1 UNK         0.0566 
    113 H113      -48.5764  -29.7162   14.9145 H         1 UNK         0.0814 
    114 H114      -49.1752  -31.2903   15.4156 H         1 UNK         0.0814 
    115 H115      -49.8873  -30.4842   14.0226 H         1 UNK         0.0814 
    116 H116      -50.5128  -28.1147   14.4474 H         1 UNK         0.3091 
    117 H117      -52.5834  -26.4334   14.3448 H         1 UNK         0.0702 
    118 H118      -52.9461  -24.2061   15.3616 H         1 UNK         0.0785 
    119 H119      -52.0728  -24.7020   16.8122 H         1 UNK         0.0785 
    120 H120      -53.6022  -25.4603   16.3943 H         1 UNK         0.0785 
    121 H121      -50.5209  -24.5700   14.8714 H         1 UNK         0.2998 
    122 H122      -48.4152  -24.5966   13.8170 H         1 UNK         0.0697 
    123 H123      -48.3698  -26.2890   11.2615 H         1 UNK         0.0825 
    124 H124      -47.3956  -26.5443   12.6955 H         1 UNK         0.0825 
    125 H125      -47.1520  -25.1032   11.7209 H         1 UNK         0.0825 
    126 H126      -49.6809  -24.1675   11.1892 H         1 UNK         0.3029 
    127 H127      -51.8497  -21.6580   12.2859 H         1 UNK         0.0897 
    128 H128      -50.7001  -19.9471   10.9037 H         1 UNK         0.0792 
    129 H129      -49.8736  -20.1545   12.4393 H         1 UNK         0.0792 
    130 H130      -49.1967  -20.8620   10.9811 H         1 UNK         0.0792 
    131 H131      -50.6989  -22.3525    9.7007 H         1 UNK         0.3086 
    132 H132      -52.5483  -25.2141    9.1695 H         1 UNK         0.0583 
    133 H133      -54.6016  -23.9207    8.8652 H         1 UNK         0.1020 
    134 H134      -53.7295  -22.5622    8.2108 H         1 UNK         0.1020 
    135 H135      -55.8595  -25.4957    7.3896 H         1 UNK         0.0694 
    136 H136      -55.3002  -26.1395    5.8666 H         1 UNK         0.0694 
    137 H137      -51.4183  -23.6055    7.1966 H         1 UNK         0.2989 
    138 H138      -48.6817  -25.3394    6.9699 H         1 UNK         0.1055 
    139 H139      -48.5904  -23.4803    5.3059 H         1 UNK         0.0806 
    140 H140      -49.7132  -22.5308    6.2692 H         1 UNK         0.0806 
    141 H141      -50.2304  -24.0485    5.5324 H         1 UNK         0.0806 
    142 H142      -46.9258  -24.3874    7.8392 H         1 UNK         0.3061 
    143 H143      -45.9190  -21.2155    8.5709 H         1 UNK         0.0734 
    144 H144      -46.8972  -21.2627   10.8267 H         1 UNK         0.0832 
    145 H145      -46.5505  -22.9750   11.0006 H         1 UNK         0.0832 
    146 H146      -45.2340  -21.8031   10.9218 H         1 UNK         0.0832 
    147 H147      -44.8775  -23.8319    9.3142 H         1 UNK         0.3156 
    148 H148      -43.8222  -24.7959    6.1495 H         1 UNK         0.0589 
    149 H149      -41.8760  -23.6068    8.1991 H         1 UNK         0.0808 
    150 H150      -41.4674  -24.7444    6.9130 H         1 UNK         0.0808 
    151 H151      -41.9963  -23.1202    6.5144 H         1 UNK         0.0808 
    152 H152      -42.9379  -25.8689    8.5557 H         1 UNK         0.3098 
    153 H153      -44.0039  -28.1369    8.8798 H         1 UNK         0.0720 
    154 H154      -44.3876  -27.8205   11.3572 H         1 UNK         0.0791 
    155 H155      -45.1594  -26.2720   11.0330 H         1 UNK         0.0791 
    156 H156      -43.4541  -26.5038   10.6770 H         1 UNK         0.0791 
    157 H157      -46.5654  -28.1806   10.1832 H         1 UNK         0.3028 
@<TRIPOS>BOND
     1    1    2 1    
     2    1   82 1    
     3    1   83 1    
     4    1   84 1    
     5    2    3 2    
     6    2    4 am   BACKBONE|DICT|INTERRES
     7    4    5 1    
     8    4   85 1    
     9    5    6 1    
    10    5   80 1    
    11    5   86 1    
    12    6    7 1    
    13    6   87 1    
    14    6   88 1    
    15    7    8 1    
    16    8    9 1    
    17    8   89 1    
    18    8   90 1    
    19    9   10 ar   
    20    9   14 ar   
    21   10   11 ar   
    22   10   91 1    
    23   11   12 ar   
    24   11   58 1    
    25   12   13 ar   
    26   12   92 1    
    27   13   14 ar   
    28   13   15 1    
    29   14   93 1    
    30   15   16 1    
    31   15   94 1    
    32   15   95 1    
    33   16   17 1    
    34   17   18 1    
    35   17   96 1    
    36   17   97 1    
    37   18   19 1    
    38   18   22 1    
    39   18   98 1    
    40   19   20 am   BACKBONE|DICT|INTERRES
    41   19   21 2    
    42   20   99 1    
    43   20  100 1    
    44   22   23 am   BACKBONE|DICT|INTERRES
    45   22  101 1    
    46   23   24 2    
    47   23   25 1    
    48   25   26 1    
    49   25   27 1    
    50   25  102 1    
    51   26  103 1    
    52   26  104 1    
    53   26  105 1    
    54   27   28 am   BACKBONE|DICT|INTERRES
    55   27  106 1    
    56   28   29 2    
    57   28   30 1    
    58   30   31 1    
    59   30   32 1    
    60   30  107 1    
    61   31  108 1    
    62   31  109 1    
    63   31  110 1    
    64   32   33 am   BACKBONE|DICT|INTERRES
    65   32  111 1    
    66   33   34 2    
    67   33   35 1    
    68   35   36 1    
    69   35   37 1    
    70   35  112 1    
    71   36  113 1    
    72   36  114 1    
    73   36  115 1    
    74   37   38 am   BACKBONE|DICT|INTERRES
    75   37  116 1    
    76   38   39 2    
    77   38   40 1    
    78   40   41 1    
    79   40   42 1    
    80   40  117 1    
    81   41  118 1    
    82   41  119 1    
    83   41  120 1    
    84   42   43 am   BACKBONE|DICT|INTERRES
    85   42  121 1    
    86   43   44 2    
    87   43   45 1    
    88   45   46 1    
    89   45   47 1    
    90   45  122 1    
    91   46  123 1    
    92   46  124 1    
    93   46  125 1    
    94   47   48 am   BACKBONE|DICT|INTERRES
    95   47  126 1    
    96   48   49 2    
    97   48   50 1    
    98   50   51 1    
    99   50   52 1    
   100   50  127 1    
   101   51  128 1    
   102   51  129 1    
   103   51  130 1    
   104   52   53 am   BACKBONE|DICT|INTERRES
   105   52  131 1    
   106   53   54 2    
   107   53   55 1    
   108   55   56 1    
   109   55   59 1    
   110   55  132 1    
   111   56   57 1    
   112   56  133 1    
   113   56  134 1    
   114   57   58 1    
   115   58  135 1    
   116   58  136 1    
   117   59   60 am   BACKBONE|DICT|INTERRES
   118   59  137 1    
   119   60   61 2    
   120   60   62 1    
   121   62   63 1    
   122   62   64 1    
   123   62  138 1    
   124   63  139 1    
   125   63  140 1    
   126   63  141 1    
   127   64   65 am   BACKBONE|DICT|INTERRES
   128   64  142 1    
   129   65   66 2    
   130   65   67 1    
   131   67   68 1    
   132   67   69 1    
   133   67  143 1    
   134   68  144 1    
   135   68  145 1    
   136   68  146 1    
   137   69   70 am   BACKBONE|DICT|INTERRES
   138   69  147 1    
   139   70   71 2    
   140   70   72 1    
   141   72   73 1    
   142   72   74 1    
   143   72  148 1    
   144   73  149 1    
   145   73  150 1    
   146   73  151 1    
   147   74   75 am   BACKBONE|DICT|INTERRES
   148   74  152 1    
   149   75   76 2    
   150   75   77 1    
   151   77   78 1    
   152   77   79 1    
   153   77  153 1    
   154   78  154 1    
   155   78  155 1    
   156   78  156 1    
   157   79   80 am   BACKBONE|DICT|INTERRES
   158   79  157 1    
   159   80   81 2    
@<TRIPOS>SUBSTRUCTURE
     1 UNK         1 GROUP             0       ****    0 ROOT    
