@<TRIPOS>MOLECULE
3R207
157   159    1
SMALL
USER_CHARGES


@<TRIPOS>ATOM
      1 CA        -45.7036  -29.2971    8.4043 C.3       0 UNK        -0.1975 
      2 C         -46.5982  -29.9144    7.3322 C.2       0 UNK         0.4852 
      3 O         -46.1361  -30.7939    6.6085 O.2       0 UNK        -0.5216 
      4 N         -47.8719  -29.5171    7.1803 N.am      1 UNK        -0.4461 
      5 CA        -48.6084  -28.4525    7.8751 C.3       1 UNK         0.0864 
      6 C6        -48.6643  -28.6364    9.4206 C.3       14 UNK        -0.0898 
      7 S7        -50.0957  -27.8346   10.2116 S.3       14 UNK        -0.2598 
      8 C8        -51.4854  -28.8534    9.6109 C.3       14 UNK         0.0286 
      9 C9        -52.6317  -27.9957    9.0879 C.ar      14 UNK        -0.0844 
     10 C10       -52.3962  -26.9728    8.1622 C.ar      14 UNK        -0.0881 
     11 C11       -53.4401  -26.1615    7.7028 C.ar      14 UNK        -0.0643 
     12 C12       -54.7414  -26.4185    8.1503 C.ar      14 UNK        -0.0930 
     13 C13       -55.0004  -27.4645    9.0425 C.ar      14 UNK        -0.0827 
     14 C14       -53.9392  -28.2442    9.5116 C.ar      14 UNK        -0.1249 
     15 C15       -56.4318  -27.7924    9.4505 C.3       14 UNK         0.0141 
     16 S16       -57.0352  -26.7858   10.8463 S.3       14 UNK        -0.2313 
     17 C17       -56.0920  -27.4553   12.2560 C.3       14 UNK        -0.0915 
     18 CA        -56.8614  -28.4507   13.1650 C.3       13 UNK         0.0968 
     19 C         -57.0387  -29.8378   12.4732 C.2       13 UNK         0.5732 
     20 N         -56.2234  -30.8447   12.7686 N.am      13 UNK        -0.7310 
     21 O         -57.9469  -30.0097   11.6643 O.2       13 UNK        -0.5035 
     22 N         -56.2101  -28.4953   14.4814 N.am      13 UNK        -0.4233 
     23 C         -56.5771  -29.2256   15.5411 C.2       13 UNK         0.4989 
     24 O         -57.6437  -29.8375   15.6225 O.2       13 UNK        -0.4996 
     25 CA        -55.5405  -29.3026   16.6834 C.3       12 UNK         0.0216 
     26 CB        -55.7636  -30.5107   17.6170 C.3       12 UNK        -0.1964 
     27 N         -54.1546  -29.2765   16.1865 N.am      12 UNK        -0.4276 
     28 C         -53.5813  -30.1234   15.3156 C.2       12 UNK         0.5020 
     29 O         -54.1440  -31.1194   14.8590 O.2       12 UNK        -0.5489 
     30 CA        -52.1715  -29.7743   14.8020 C.3       11 UNK         0.0294 
     31 CB        -52.2439  -29.3198   13.3345 C.3       11 UNK        -0.2019 
     32 N         -51.4923  -28.7344   15.5773 N.am      11 UNK        -0.4493 
     33 C         -50.9846  -28.8972   16.8067 C.2       11 UNK         0.4932 
     34 O         -51.0041  -29.9614   17.4249 O.2       11 UNK        -0.5029 
     35 CA        -50.3802  -27.6484   17.4647 C.3       10 UNK         0.0280 
     36 CB        -48.9338  -27.4295   16.9918 C.3       10 UNK        -0.1976 
     37 N         -51.1829  -26.4574   17.1770 N.am      10 UNK        -0.4242 
     38 C         -52.3118  -26.1346   17.8250 C.2       10 UNK         0.5072 
     39 O         -52.7670  -26.7798   18.7697 O.2       10 UNK        -0.5224 
     40 CA        -53.0754  -24.8917   17.3338 C.3       9 UNK         0.0343 
     41 CB        -52.5678  -23.6298   18.0498 C.3       9 UNK        -0.2003 
     42 N         -52.9938  -24.6941   15.8853 N.am      9 UNK        -0.4272 
     43 C         -53.5686  -25.4935   14.9763 C.2       9 UNK         0.4988 
     44 O         -54.2517  -26.4780   15.2559 O.2       9 UNK        -0.5108 
     45 CA        -53.3119  -25.1616   13.4993 C.3       8 UNK         0.0248 
     46 CB        -54.3168  -24.1115   12.9973 C.3       8 UNK        -0.2001 
     47 N         -51.9549  -24.7024   13.2010 N.am      8 UNK        -0.4140 
     48 C         -50.8061  -25.3177   13.5075 C.2       8 UNK         0.5028 
     49 O         -50.7387  -26.3298   14.2083 O.2       8 UNK        -0.5428 
     50 CA        -49.5273  -24.6876   12.9170 C.3       7 UNK         0.0264 
     51 CB        -48.2484  -25.4156   13.3691 C.3       7 UNK        -0.1988 
     52 N         -49.5562  -24.6594   11.4516 N.am      7 UNK        -0.4454 
     53 C         -50.3209  -23.8629   10.6923 C.2       7 UNK         0.5027 
     54 O         -51.0685  -22.9946   11.1498 O.2       7 UNK        -0.5083 
     55 CA        -50.2237  -24.0917    9.1740 C.3       6 UNK         0.0844 
     56 C56       -51.4662  -23.5726    8.4003 C.3       14 UNK        -0.0967 
     57 S57       -51.5410  -24.2726    6.7167 S.3       14 UNK        -0.2604 
     58 C58       -53.2085  -25.0305    6.6962 C.3       14 UNK         0.0134 
     59 N         -48.9426  -23.5858    8.6724 N.am      6 UNK        -0.4116 
     60 C         -48.5212  -22.3106    8.6775 C.2       5 UNK         0.5034 
     61 O         -49.2154  -21.3557    9.0299 O.2       5 UNK        -0.5045 
     62 CA        -47.0785  -22.0544    8.1981 C.3       5 UNK         0.0224 
     63 CB        -46.4932  -20.7264    8.7260 C.3       5 UNK        -0.1978 
     64 N         -46.1655  -23.1725    8.4657 N.am      5 UNK        -0.4737 
     65 C         -45.7968  -23.6722    9.6576 C.2       4 UNK         0.5027 
     66 O         -46.1699  -23.2097   10.7354 O.2       4 UNK        -0.5211 
     67 CA        -44.8760  -24.9099    9.6490 C.3       4 UNK         0.0297 
     68 CB        -45.3359  -25.9573   10.6804 C.3       4 UNK        -0.1993 
     69 N         -44.8453  -25.5353    8.3253 N.am      4 UNK        -0.4486 
     70 C         -43.8474  -25.4353    7.4353 C.2       3 UNK         0.4961 
     71 O         -42.7711  -24.8880    7.6737 O.2       3 UNK        -0.5105 
     72 CA        -44.0933  -26.0159    6.0263 C.3       3 UNK         0.0299 
     73 CB        -43.3506  -27.3499    5.8497 C.3       3 UNK        -0.1972 
     74 N         -45.5119  -26.2029    5.6995 N.am      3 UNK        -0.4305 
     75 C         -46.3984  -25.2079    5.5458 C.2       2 UNK         0.5006 
     76 O         -46.0986  -24.0159    5.5990 O.2       2 UNK        -0.5106 
     77 CA        -47.8767  -25.6017    5.3812 C.3       2 UNK         0.0296 
     78 CB        -48.2464  -25.7037    3.8935 C.3       2 UNK        -0.2002 
     79 N         -48.2413  -26.8489    6.0645 N.am      2 UNK        -0.4032 
     80 C         -48.1627  -27.0583    7.3879 C.2       1 UNK         0.5000 
     81 O         -47.7171  -26.2240    8.1793 O.2       1 UNK        -0.5238 
     82 H82       -44.6594  -29.5431    8.2142 H         1 UNK         0.0889 
     83 H83       -45.9562  -29.6994    9.3845 H         1 UNK         0.0889 
     84 H84       -45.7831  -28.2138    8.4369 H         1 UNK         0.0889 
     85 H85       -48.4102  -29.9936    6.4694 H         1 UNK         0.3028 
     86 H86       -49.6258  -28.5561    7.4994 H         1 UNK         0.0864 
     87 H87       -48.7102  -29.6974    9.6716 H         1 UNK         0.0720 
     88 H88       -47.7649  -28.2544    9.9034 H         1 UNK         0.0720 
     89 H89       -51.8214  -29.4869   10.4320 H         1 UNK         0.0814 
     90 H90       -51.1673  -29.5353    8.8229 H         1 UNK         0.0814 
     91 H91       -51.3909  -26.8048    7.8071 H         1 UNK         0.1469 
     92 H92       -55.5626  -25.8161    7.7859 H         1 UNK         0.1381 
     93 H93       -54.1345  -29.0579   10.1968 H         1 UNK         0.1206 
     94 H94       -57.0943  -27.6297    8.5992 H         1 UNK         0.0813 
     95 H95       -56.5210  -28.8515    9.6931 H         1 UNK         0.0813 
     96 H96       -55.8225  -26.5823   12.8469 H         1 UNK         0.0638 
     97 H97       -55.1455  -27.8806   11.9254 H         1 UNK         0.0638 
     98 H98       -57.8636  -28.0546   13.3368 H         1 UNK         0.0568 
     99 H99       -56.3667  -31.7322   12.3151 H         1 UNK         0.3450 
    100 H100      -55.5065  -30.7608   13.4820 H         1 UNK         0.3450 
    101 H101      -55.3551  -27.9565   14.5720 H         1 UNK         0.2987 
    102 H102      -55.6705  -28.3945   17.2741 H         1 UNK         0.0766 
    103 H103      -56.7465  -30.4660   18.0876 H         1 UNK         0.0798 
    104 H104      -55.0231  -30.5348   18.4165 H         1 UNK         0.0798 
    105 H105      -55.7045  -31.4558   17.0762 H         1 UNK         0.0798 
    106 H106      -53.6255  -28.4495   16.4304 H         1 UNK         0.3198 
    107 H107      -51.5720  -30.6856   14.8521 H         1 UNK         0.0843 
    108 H108      -52.8340  -28.4101   13.2224 H         1 UNK         0.0831 
    109 H109      -52.7030  -30.0861   12.7086 H         1 UNK         0.0831 
    110 H110      -51.2502  -29.1225   12.9317 H         1 UNK         0.0831 
    111 H111      -51.3562  -27.8360   15.1152 H         1 UNK         0.3133 
    112 H112      -50.3599  -27.8089   18.5449 H         1 UNK         0.0566 
    113 H113      -48.4911  -26.5501   17.4597 H         1 UNK         0.0814 
    114 H114      -48.8737  -27.3016   15.9107 H         1 UNK         0.0814 
    115 H115      -48.3081  -28.2844   17.2513 H         1 UNK         0.0814 
    116 H116      -50.9222  -25.9253   16.3562 H         1 UNK         0.3091 
    117 H117      -54.1274  -25.0296   17.5934 H         1 UNK         0.0702 
    118 H118      -53.1565  -22.7541   17.7757 H         1 UNK         0.0785 
    119 H119      -51.5236  -23.4215   17.8130 H         1 UNK         0.0785 
    120 H120      -52.6405  -23.7405   19.1328 H         1 UNK         0.0785 
    121 H121      -52.4516  -23.9081   15.5575 H         1 UNK         0.2998 
    122 H122      -53.4629  -26.0799   12.9301 H         1 UNK         0.0697 
    123 H123      -54.1181  -23.1275   13.4234 H         1 UNK         0.0825 
    124 H124      -55.3409  -24.3745   13.2643 H         1 UNK         0.0825 
    125 H125      -54.2807  -24.0197   11.9113 H         1 UNK         0.0825 
    126 H126      -51.8780  -23.8962   12.5854 H         1 UNK         0.3029 
    127 H127      -49.4737  -23.6593   13.2807 H         1 UNK         0.0897 
    128 H128      -48.2378  -26.4557   13.0398 H         1 UNK         0.0792 
    129 H129      -48.1618  -25.4141   14.4561 H         1 UNK         0.0792 
    130 H130      -47.3567  -24.9276   12.9751 H         1 UNK         0.0792 
    131 H131      -49.0030  -25.3664   10.9874 H         1 UNK         0.3086 
    132 H132      -50.1880  -25.1715    9.0379 H         1 UNK         0.0583 
    133 H133      -52.3819  -23.8409    8.9308 H         1 UNK         0.1020 
    134 H134      -51.4723  -22.4838    8.3377 H         1 UNK         0.1020 
    135 H135      -53.9414  -24.2378    6.8552 H         1 UNK         0.0694 
    136 H136      -53.3929  -25.4225    5.6953 H         1 UNK         0.0694 
    137 H137      -48.2840  -24.3070    8.3985 H         1 UNK         0.2989 
    138 H138      -47.1431  -21.9706    7.1120 H         1 UNK         0.1055 
    139 H139      -46.4690  -20.6986    9.8158 H         1 UNK         0.0806 
    140 H140      -47.0897  -19.8758    8.3939 H         1 UNK         0.0806 
    141 H141      -45.4778  -20.5680    8.3629 H         1 UNK         0.0806 
    142 H142      -45.8084  -23.6261    7.6318 H         1 UNK         0.3061 
    143 H143      -43.8776  -24.5701    9.9313 H         1 UNK         0.0734 
    144 H144      -46.3715  -26.2573   10.5191 H         1 UNK         0.0832 
    145 H145      -44.7158  -26.8529   10.6421 H         1 UNK         0.0832 
    146 H146      -45.2666  -25.5623   11.6945 H         1 UNK         0.0832 
    147 H147      -45.7217  -25.9567    8.0371 H         1 UNK         0.3156 
    148 H148      -43.6796  -25.3032    5.3096 H         1 UNK         0.0589 
    149 H149      -43.7268  -28.1177    6.5246 H         1 UNK         0.0808 
    150 H150      -42.2851  -27.2329    6.0533 H         1 UNK         0.0808 
    151 H151      -43.4427  -27.7241    4.8299 H         1 UNK         0.0808 
    152 H152      -45.8393  -27.1538    5.6144 H         1 UNK         0.3098 
    153 H153      -48.4741  -24.8014    5.8235 H         1 UNK         0.0720 
    154 H154      -48.0039  -24.7794    3.3670 H         1 UNK         0.0791 
    155 H155      -49.3149  -25.8762    3.7620 H         1 UNK         0.0791 
    156 H156      -47.7098  -26.5128    3.3962 H         1 UNK         0.0791 
    157 H157      -48.5961  -27.5911    5.4785 H         1 UNK         0.3028 
@<TRIPOS>BOND
     1    1    2 1    
     2    1   82 1    
     3    1   83 1    
     4    1   84 1    
     5    2    3 2    
     6    2    4 am   BACKBONE|DICT|INTERRES
     7    4    5 1    
     8    4   85 1    
     9    5    6 1    
    10    5   80 1    
    11    5   86 1    
    12    6    7 1    
    13    6   87 1    
    14    6   88 1    
    15    7    8 1    
    16    8    9 1    
    17    8   89 1    
    18    8   90 1    
    19    9   10 ar   
    20    9   14 ar   
    21   10   11 ar   
    22   10   91 1    
    23   11   12 ar   
    24   11   58 1    
    25   12   13 ar   
    26   12   92 1    
    27   13   14 ar   
    28   13   15 1    
    29   14   93 1    
    30   15   16 1    
    31   15   94 1    
    32   15   95 1    
    33   16   17 1    
    34   17   18 1    
    35   17   96 1    
    36   17   97 1    
    37   18   19 1    
    38   18   22 1    
    39   18   98 1    
    40   19   20 am   BACKBONE|DICT|INTERRES
    41   19   21 2    
    42   20   99 1    
    43   20  100 1    
    44   22   23 am   BACKBONE|DICT|INTERRES
    45   22  101 1    
    46   23   24 2    
    47   23   25 1    
    48   25   26 1    
    49   25   27 1    
    50   25  102 1    
    51   26  103 1    
    52   26  104 1    
    53   26  105 1    
    54   27   28 am   BACKBONE|DICT|INTERRES
    55   27  106 1    
    56   28   29 2    
    57   28   30 1    
    58   30   31 1    
    59   30   32 1    
    60   30  107 1    
    61   31  108 1    
    62   31  109 1    
    63   31  110 1    
    64   32   33 am   BACKBONE|DICT|INTERRES
    65   32  111 1    
    66   33   34 2    
    67   33   35 1    
    68   35   36 1    
    69   35   37 1    
    70   35  112 1    
    71   36  113 1    
    72   36  114 1    
    73   36  115 1    
    74   37   38 am   BACKBONE|DICT|INTERRES
    75   37  116 1    
    76   38   39 2    
    77   38   40 1    
    78   40   41 1    
    79   40   42 1    
    80   40  117 1    
    81   41  118 1    
    82   41  119 1    
    83   41  120 1    
    84   42   43 am   BACKBONE|DICT|INTERRES
    85   42  121 1    
    86   43   44 2    
    87   43   45 1    
    88   45   46 1    
    89   45   47 1    
    90   45  122 1    
    91   46  123 1    
    92   46  124 1    
    93   46  125 1    
    94   47   48 am   BACKBONE|DICT|INTERRES
    95   47  126 1    
    96   48   49 2    
    97   48   50 1    
    98   50   51 1    
    99   50   52 1    
   100   50  127 1    
   101   51  128 1    
   102   51  129 1    
   103   51  130 1    
   104   52   53 am   BACKBONE|DICT|INTERRES
   105   52  131 1    
   106   53   54 2    
   107   53   55 1    
   108   55   56 1    
   109   55   59 1    
   110   55  132 1    
   111   56   57 1    
   112   56  133 1    
   113   56  134 1    
   114   57   58 1    
   115   58  135 1    
   116   58  136 1    
   117   59   60 am   BACKBONE|DICT|INTERRES
   118   59  137 1    
   119   60   61 2    
   120   60   62 1    
   121   62   63 1    
   122   62   64 1    
   123   62  138 1    
   124   63  139 1    
   125   63  140 1    
   126   63  141 1    
   127   64   65 am   BACKBONE|DICT|INTERRES
   128   64  142 1    
   129   65   66 2    
   130   65   67 1    
   131   67   68 1    
   132   67   69 1    
   133   67  143 1    
   134   68  144 1    
   135   68  145 1    
   136   68  146 1    
   137   69   70 am   BACKBONE|DICT|INTERRES
   138   69  147 1    
   139   70   71 2    
   140   70   72 1    
   141   72   73 1    
   142   72   74 1    
   143   72  148 1    
   144   73  149 1    
   145   73  150 1    
   146   73  151 1    
   147   74   75 am   BACKBONE|DICT|INTERRES
   148   74  152 1    
   149   75   76 2    
   150   75   77 1    
   151   77   78 1    
   152   77   79 1    
   153   77  153 1    
   154   78  154 1    
   155   78  155 1    
   156   78  156 1    
   157   79   80 am   BACKBONE|DICT|INTERRES
   158   79  157 1    
   159   80   81 2    
@<TRIPOS>SUBSTRUCTURE
     1 UNK         1 GROUP             0       ****    0 ROOT    
