@<TRIPOS>MOLECULE
3R207
157   159    1
SMALL
USER_CHARGES


@<TRIPOS>ATOM
      1 CA        -43.5188  -31.3959    6.0257 C.3       0 UNK        -0.1975 
      2 C         -44.9639  -31.0137    5.7415 C.2       0 UNK         0.4852 
      3 O         -45.3398  -30.8727    4.5773 O.2       0 UNK        -0.5216 
      4 N         -45.7747  -30.8498    6.7967 N.am      1 UNK        -0.4461 
      5 CA        -47.1888  -30.4587    6.7237 C.3       1 UNK         0.0864 
      6 C6        -47.8909  -30.6955    8.0843 C.3       14 UNK        -0.0898 
      7 S7        -49.7080  -30.7265    7.9515 S.3       14 UNK        -0.2598 
      8 C8        -50.1636  -29.5033    9.2169 C.3       14 UNK         0.0286 
      9 C9        -51.6335  -29.1341    9.1170 C.ar      14 UNK        -0.0844 
     10 C10       -52.0044  -27.9031    8.5716 C.ar      14 UNK        -0.0881 
     11 C11       -53.3512  -27.5411    8.4950 C.ar      14 UNK        -0.0643 
     12 C12       -54.3310  -28.4361    8.9319 C.ar      14 UNK        -0.0930 
     13 C13       -53.9749  -29.6715    9.4808 C.ar      14 UNK        -0.0827 
     14 C14       -52.6213  -30.0120    9.5758 C.ar      14 UNK        -0.1249 
     15 C15       -55.0479  -30.6503    9.9424 C.3       14 UNK         0.0141 
     16 S16       -55.7258  -30.2304   11.5830 S.3       14 UNK        -0.2313 
     17 C17       -56.9510  -28.9350   11.1809 C.3       14 UNK        -0.0915 
     18 CA        -56.5238  -27.5289   11.7033 C.3       13 UNK         0.0968 
     19 C         -57.3723  -26.3426   11.1472 C.2       13 UNK         0.5732 
     20 N         -57.9368  -26.4546    9.9509 N.am      13 UNK        -0.7310 
     21 O         -57.4870  -25.2873   11.7684 O.2       13 UNK        -0.5035 
     22 N         -56.3789  -27.5050   13.1674 N.am      13 UNK        -0.4233 
     23 C         -57.3668  -27.5967   14.0711 C.2       13 UNK         0.4989 
     24 O         -58.5572  -27.7147   13.7753 O.2       13 UNK        -0.4996 
     25 CA        -56.9835  -27.5872   15.5661 C.3       12 UNK         0.0216 
     26 CB        -57.2018  -28.9793   16.1835 C.3       12 UNK        -0.1964 
     27 N         -55.6013  -27.1747   15.8159 N.am      12 UNK        -0.4276 
     28 C         -55.1489  -25.9152   15.7593 C.2       12 UNK         0.5020 
     29 O         -55.8792  -24.9339   15.6166 O.2       12 UNK        -0.5489 
     30 CA        -53.6240  -25.7133   15.8680 C.3       11 UNK         0.0294 
     31 CB        -53.2433  -25.2081   17.2687 C.3       11 UNK        -0.2019 
     32 N         -52.8164  -26.9000   15.5537 N.am      11 UNK        -0.4493 
     33 C         -52.8037  -27.5563   14.3850 C.2       11 UNK         0.4932 
     34 O         -53.5505  -27.2892   13.4456 O.2       11 UNK        -0.5029 
     35 CA        -51.7958  -28.7096   14.2617 C.3       10 UNK         0.0280 
     36 CB        -51.8320  -29.3759   12.8746 C.3       10 UNK        -0.1976 
     37 N         -50.4377  -28.2360   14.5140 N.am      10 UNK        -0.4242 
     38 C         -49.8629  -28.1052   15.7135 C.2       10 UNK         0.5072 
     39 O         -50.4448  -28.3306   16.7756 O.2       10 UNK        -0.5224 
     40 CA        -48.4104  -27.6215   15.7279 C.3       9 UNK         0.0343 
     41 CB        -47.4950  -28.5014   14.8549 C.3       9 UNK        -0.2003 
     42 N         -48.3227  -26.2273   15.2905 N.am      9 UNK        -0.4272 
     43 C         -47.5736  -25.2999   15.9026 C.2       9 UNK         0.4988 
     44 O         -46.9156  -25.5194   16.9211 O.2       9 UNK        -0.5108 
     45 CA        -47.4991  -23.8936   15.2829 C.3       8 UNK         0.0248 
     46 CB        -46.1627  -23.7061   14.5446 C.3       8 UNK        -0.2001 
     47 N         -48.5962  -23.5527   14.3749 N.am      8 UNK        -0.4140 
     48 C         -49.8390  -23.2418   14.7698 C.2       8 UNK         0.5028 
     49 O         -50.2319  -23.3402   15.9321 O.2       8 UNK        -0.5428 
     50 CA        -50.7979  -22.7092   13.6962 C.3       7 UNK         0.0264 
     51 CB        -50.4718  -21.2442   13.3606 C.3       7 UNK        -0.1988 
     52 N         -50.7210  -23.5119   12.4759 N.am      7 UNK        -0.4454 
     53 C         -51.6984  -24.3160   12.0310 C.2       7 UNK         0.5027 
     54 O         -52.8054  -24.3829   12.5630 O.2       7 UNK        -0.5083 
     55 CA        -51.4013  -25.1853   10.7828 C.3       6 UNK         0.0844 
     56 C56       -52.0253  -24.5566    9.5064 C.3       14 UNK        -0.0967 
     57 S57       -53.7979  -24.9352    9.2826 S.3       14 UNK        -0.2604 
     58 C58       -53.7528  -26.1793    7.9538 C.3       14 UNK         0.0134 
     59 N         -49.9661  -25.4374   10.5910 N.am      6 UNK        -0.4116 
     60 C         -49.1553  -26.0758   11.4483 C.2       5 UNK         0.5034 
     61 O         -49.5407  -26.6440   12.4667 O.2       5 UNK        -0.5045 
     62 CA        -47.6416  -26.0012   11.1869 C.3       5 UNK         0.0224 
     63 CB        -47.1001  -27.3294   10.6345 C.3       5 UNK        -0.1978 
     64 N         -47.2503  -24.8901   10.3128 N.am      5 UNK        -0.4737 
     65 C         -47.3645  -23.5923   10.6335 C.2       4 UNK         0.5027 
     66 O         -47.8269  -23.1982   11.7044 O.2       4 UNK        -0.5211 
     67 CA        -46.9548  -22.5710    9.5602 C.3       4 UNK         0.0297 
     68 CB        -45.4394  -22.3221    9.6073 C.3       4 UNK        -0.1993 
     69 N         -47.3463  -22.9904    8.2114 N.am      4 UNK        -0.4486 
     70 C         -48.6160  -23.1055    7.7933 C.2       3 UNK         0.4961 
     71 O         -49.5883  -22.7905    8.4766 O.2       3 UNK        -0.5105 
     72 CA        -48.8443  -23.7201    6.4000 C.3       3 UNK         0.0299 
     73 CB        -48.8908  -22.6210    5.3271 C.3       3 UNK        -0.1972 
     74 N         -47.8353  -24.7217    6.0368 N.am      3 UNK        -0.4305 
     75 C         -47.6408  -25.8759    6.6902 C.2       2 UNK         0.5006 
     76 O         -48.3201  -26.2387    7.6528 O.2       2 UNK        -0.5106 
     77 CA        -46.4246  -26.7035    6.2392 C.3       2 UNK         0.0296 
     78 CB        -45.1298  -26.0908    6.8024 C.3       2 UNK        -0.2002 
     79 N         -46.4878  -28.1061    6.6537 N.am      2 UNK        -0.4032 
     80 C         -47.3672  -29.0126    6.2028 C.2       1 UNK         0.5000 
     81 O         -48.2444  -28.7640    5.3726 O.2       1 UNK        -0.5238 
     82 H82       -43.2815  -32.3463    5.5484 H         1 UNK         0.0889 
     83 H83       -43.3244  -31.4955    7.0935 H         1 UNK         0.0889 
     84 H84       -42.8453  -30.6372    5.6280 H         1 UNK         0.0889 
     85 H85       -45.4061  -30.9995    7.7254 H         1 UNK         0.3028 
     86 H86       -47.6557  -31.1190    5.9890 H         1 UNK         0.0864 
     87 H87       -47.5963  -31.6657    8.4879 H         1 UNK         0.0720 
     88 H88       -47.5698  -29.9591    8.8229 H         1 UNK         0.0720 
     89 H89       -49.5476  -28.6111    9.0957 H         1 UNK         0.0814 
     90 H90       -49.9461  -29.9013   10.2092 H         1 UNK         0.0814 
     91 H91       -51.2417  -27.2213    8.2208 H         1 UNK         0.1469 
     92 H92       -55.3716  -28.1605    8.8506 H         1 UNK         0.1381 
     93 H93       -52.3327  -30.9650    9.9978 H         1 UNK         0.1206 
     94 H94       -54.6299  -31.6567    9.9960 H         1 UNK         0.0813 
     95 H95       -55.8507  -30.7039    9.2059 H         1 UNK         0.0813 
     96 H96       -57.1066  -28.9339   10.1032 H         1 UNK         0.0638 
     97 H97       -57.9099  -29.2265   11.6113 H         1 UNK         0.0638 
     98 H98       -55.5203  -27.3307   11.3256 H         1 UNK         0.0568 
     99 H99       -57.8628  -27.3009    9.4113 H         1 UNK         0.3450 
    100 H100      -58.4652  -25.6759    9.5902 H         1 UNK         0.3450 
    101 H101      -55.4207  -27.3864   13.4847 H         1 UNK         0.2987 
    102 H102      -57.6505  -26.8825   16.0673 H         1 UNK         0.0766 
    103 H103      -56.9925  -28.9777   17.2535 H         1 UNK         0.0798 
    104 H104      -56.5663  -29.7326   15.7157 H         1 UNK         0.0798 
    105 H105      -58.2358  -29.3043   16.0591 H         1 UNK         0.0798 
    106 H106      -54.9225  -27.9105   15.9461 H         1 UNK         0.3198 
    107 H107      -53.3557  -24.9412   15.1442 H         1 UNK         0.0843 
    108 H108      -53.4534  -25.9523   18.0378 H         1 UNK         0.0831 
    109 H109      -53.8024  -24.3068   17.5243 H         1 UNK         0.0831 
    110 H110      -52.1842  -24.9541   17.3240 H         1 UNK         0.0831 
    111 H111      -52.1609  -27.2104   16.2632 H         1 UNK         0.3133 
    112 H112      -52.0619  -29.4644   15.0044 H         1 UNK         0.0566 
    113 H113      -51.1235  -30.2013   12.8080 H         1 UNK         0.0814 
    114 H114      -52.8219  -29.7802   12.6596 H         1 UNK         0.0814 
    115 H115      -51.5944  -28.6638   12.0829 H         1 UNK         0.0814 
    116 H116      -49.9439  -27.8768   13.6987 H         1 UNK         0.3091 
    117 H117      -48.0713  -27.7165   16.7618 H         1 UNK         0.0702 
    118 H118      -47.5908  -29.5542   15.1240 H         1 UNK         0.0785 
    119 H119      -46.4481  -28.2282   14.9877 H         1 UNK         0.0785 
    120 H120      -47.7273  -28.4109   13.7936 H         1 UNK         0.0785 
    121 H121      -48.8598  -25.9723   14.4710 H         1 UNK         0.2998 
    122 H122      -47.5224  -23.1816   16.1108 H         1 UNK         0.0697 
    123 H123      -46.0646  -24.3905   13.7021 H         1 UNK         0.0825 
    124 H124      -45.3182  -23.8881   15.2108 H         1 UNK         0.0825 
    125 H125      -46.0587  -22.6902   14.1629 H         1 UNK         0.0825 
    126 H126      -48.3388  -23.4110   13.3992 H         1 UNK         0.3029 
    127 H127      -51.8053  -22.7395   14.1174 H         1 UNK         0.0897 
    128 H128      -51.1913  -20.8337   12.6519 H         1 UNK         0.0792 
    129 H129      -49.4771  -21.1367   12.9255 H         1 UNK         0.0792 
    130 H130      -50.5071  -20.6213   14.2554 H         1 UNK         0.0792 
    131 H131      -49.8366  -23.4936   11.9801 H         1 UNK         0.3086 
    132 H132      -51.8624  -26.1603   10.9570 H         1 UNK         0.0583 
    133 H133      -51.9077  -23.4710    9.5064 H         1 UNK         0.1020 
    134 H134      -51.4914  -24.8919    8.6166 H         1 UNK         0.1020 
    135 H135      -54.7429  -26.2388    7.4992 H         1 UNK         0.0694 
    136 H136      -53.0749  -25.8627    7.1597 H         1 UNK         0.0694 
    137 H137      -49.5409  -25.0042    9.7829 H         1 UNK         0.2989 
    138 H138      -47.1706  -25.8362   12.1577 H         1 UNK         0.1055 
    139 H139      -47.3690  -28.1627   11.2850 H         1 UNK         0.0806 
    140 H140      -46.0124  -27.3141   10.5652 H         1 UNK         0.0806 
    141 H141      -47.4937  -27.5536    9.6455 H         1 UNK         0.0806 
    142 H142      -46.9306  -25.1344    9.3868 H         1 UNK         0.3061 
    143 H143      -47.4643  -21.6315    9.7855 H         1 UNK         0.0734 
    144 H144      -45.1432  -21.5424    8.9053 H         1 UNK         0.0832 
    145 H145      -45.1305  -21.9942   10.6010 H         1 UNK         0.0832 
    146 H146      -44.8706  -23.2222    9.3706 H         1 UNK         0.0832 
    147 H147      -46.6064  -23.2489    7.5758 H         1 UNK         0.3156 
    148 H148      -49.8153  -24.2200    6.4180 H         1 UNK         0.0589 
    149 H149      -47.9384  -22.0962    5.2413 H         1 UNK         0.0808 
    150 H150      -49.1386  -23.0315    4.3480 H         1 UNK         0.0808 
    151 H151      -49.6521  -21.8766    5.5654 H         1 UNK         0.0808 
    152 H152      -47.2331  -24.4959    5.2575 H         1 UNK         0.3098 
    153 H153      -46.3813  -26.6805    5.1482 H         1 UNK         0.0720 
    154 H154      -44.2515  -26.6380    6.4586 H         1 UNK         0.0791 
    155 H155      -45.1201  -26.0963    7.8933 H         1 UNK         0.0791 
    156 H156      -45.0041  -25.0567    6.4794 H         1 UNK         0.0791 
    157 H157      -45.8023  -28.4070    7.3295 H         1 UNK         0.3028 
@<TRIPOS>BOND
     1    1    2 1    
     2    1   82 1    
     3    1   83 1    
     4    1   84 1    
     5    2    3 2    
     6    2    4 am   BACKBONE|DICT|INTERRES
     7    4    5 1    
     8    4   85 1    
     9    5    6 1    
    10    5   80 1    
    11    5   86 1    
    12    6    7 1    
    13    6   87 1    
    14    6   88 1    
    15    7    8 1    
    16    8    9 1    
    17    8   89 1    
    18    8   90 1    
    19    9   10 ar   
    20    9   14 ar   
    21   10   11 ar   
    22   10   91 1    
    23   11   12 ar   
    24   11   58 1    
    25   12   13 ar   
    26   12   92 1    
    27   13   14 ar   
    28   13   15 1    
    29   14   93 1    
    30   15   16 1    
    31   15   94 1    
    32   15   95 1    
    33   16   17 1    
    34   17   18 1    
    35   17   96 1    
    36   17   97 1    
    37   18   19 1    
    38   18   22 1    
    39   18   98 1    
    40   19   20 am   BACKBONE|DICT|INTERRES
    41   19   21 2    
    42   20   99 1    
    43   20  100 1    
    44   22   23 am   BACKBONE|DICT|INTERRES
    45   22  101 1    
    46   23   24 2    
    47   23   25 1    
    48   25   26 1    
    49   25   27 1    
    50   25  102 1    
    51   26  103 1    
    52   26  104 1    
    53   26  105 1    
    54   27   28 am   BACKBONE|DICT|INTERRES
    55   27  106 1    
    56   28   29 2    
    57   28   30 1    
    58   30   31 1    
    59   30   32 1    
    60   30  107 1    
    61   31  108 1    
    62   31  109 1    
    63   31  110 1    
    64   32   33 am   BACKBONE|DICT|INTERRES
    65   32  111 1    
    66   33   34 2    
    67   33   35 1    
    68   35   36 1    
    69   35   37 1    
    70   35  112 1    
    71   36  113 1    
    72   36  114 1    
    73   36  115 1    
    74   37   38 am   BACKBONE|DICT|INTERRES
    75   37  116 1    
    76   38   39 2    
    77   38   40 1    
    78   40   41 1    
    79   40   42 1    
    80   40  117 1    
    81   41  118 1    
    82   41  119 1    
    83   41  120 1    
    84   42   43 am   BACKBONE|DICT|INTERRES
    85   42  121 1    
    86   43   44 2    
    87   43   45 1    
    88   45   46 1    
    89   45   47 1    
    90   45  122 1    
    91   46  123 1    
    92   46  124 1    
    93   46  125 1    
    94   47   48 am   BACKBONE|DICT|INTERRES
    95   47  126 1    
    96   48   49 2    
    97   48   50 1    
    98   50   51 1    
    99   50   52 1    
   100   50  127 1    
   101   51  128 1    
   102   51  129 1    
   103   51  130 1    
   104   52   53 am   BACKBONE|DICT|INTERRES
   105   52  131 1    
   106   53   54 2    
   107   53   55 1    
   108   55   56 1    
   109   55   59 1    
   110   55  132 1    
   111   56   57 1    
   112   56  133 1    
   113   56  134 1    
   114   57   58 1    
   115   58  135 1    
   116   58  136 1    
   117   59   60 am   BACKBONE|DICT|INTERRES
   118   59  137 1    
   119   60   61 2    
   120   60   62 1    
   121   62   63 1    
   122   62   64 1    
   123   62  138 1    
   124   63  139 1    
   125   63  140 1    
   126   63  141 1    
   127   64   65 am   BACKBONE|DICT|INTERRES
   128   64  142 1    
   129   65   66 2    
   130   65   67 1    
   131   67   68 1    
   132   67   69 1    
   133   67  143 1    
   134   68  144 1    
   135   68  145 1    
   136   68  146 1    
   137   69   70 am   BACKBONE|DICT|INTERRES
   138   69  147 1    
   139   70   71 2    
   140   70   72 1    
   141   72   73 1    
   142   72   74 1    
   143   72  148 1    
   144   73  149 1    
   145   73  150 1    
   146   73  151 1    
   147   74   75 am   BACKBONE|DICT|INTERRES
   148   74  152 1    
   149   75   76 2    
   150   75   77 1    
   151   77   78 1    
   152   77   79 1    
   153   77  153 1    
   154   78  154 1    
   155   78  155 1    
   156   78  156 1    
   157   79   80 am   BACKBONE|DICT|INTERRES
   158   79  157 1    
   159   80   81 2    
@<TRIPOS>SUBSTRUCTURE
     1 UNK         1 GROUP             0       ****    0 ROOT    
