@<TRIPOS>MOLECULE
3R207
157   159    1
SMALL
USER_CHARGES


@<TRIPOS>ATOM
      1 CA        -47.5822  -25.2284    3.4479 C.3       0 UNK        -0.1975 
      2 C         -48.0122  -25.4299    4.8922 C.2       0 UNK         0.4852 
      3 O         -47.2327  -25.9457    5.6943 O.2       0 UNK        -0.5216 
      4 N         -49.2325  -24.9976    5.2433 N.am      1 UNK        -0.4461 
      5 CA        -49.8749  -25.1777    6.5572 C.3       1 UNK         0.0864 
      6 C6        -50.3606  -26.6375    6.7725 C.3       14 UNK        -0.0898 
      7 S7        -51.7692  -27.0048    5.6708 S.3       14 UNK        -0.2598 
      8 C8        -52.0894  -28.7655    6.0124 C.3       14 UNK         0.0286 
      9 C9        -52.4164  -29.0296    7.4762 C.ar      14 UNK        -0.0844 
     10 C10       -51.5776  -29.8439    8.2406 C.ar      14 UNK        -0.0881 
     11 C11       -51.8548  -30.0833    9.5887 C.ar      14 UNK        -0.0643 
     12 C12       -52.9682  -29.4834   10.1816 C.ar      14 UNK        -0.0930 
     13 C13       -53.8241  -28.6775    9.4235 C.ar      14 UNK        -0.0827 
     14 C14       -53.5527  -28.4674    8.0675 C.ar      14 UNK        -0.1249 
     15 C15       -55.0167  -28.0068   10.0856 C.3       14 UNK         0.0141 
     16 S16       -56.2699  -29.2198   10.6017 S.3       14 UNK        -0.2313 
     17 C17       -57.3641  -28.1833   11.6350 C.3       14 UNK        -0.0915 
     18 CA        -56.7372  -27.7564   12.9974 C.3       13 UNK         0.0968 
     19 C         -57.6836  -26.8768   13.8686 C.2       13 UNK         0.5732 
     20 N         -57.4390  -26.7460   15.1677 N.am      13 UNK        -0.7310 
     21 O         -58.6361  -26.2842   13.3665 O.2       13 UNK        -0.5035 
     22 N         -56.1129  -28.8727   13.7220 N.am      13 UNK        -0.4233 
     23 C         -56.7255  -29.9160   14.2936 C.2       13 UNK         0.4989 
     24 O         -57.9441  -30.0934   14.2782 O.2       13 UNK        -0.4996 
     25 CA        -55.8332  -30.9315   15.0383 C.3       12 UNK         0.0216 
     26 CB        -55.4137  -32.0881   14.1085 C.3       12 UNK        -0.1964 
     27 N         -54.6771  -30.3254   15.7233 N.am      12 UNK        -0.4276 
     28 C         -53.6011  -29.7417   15.1780 C.2       12 UNK         0.5020 
     29 O         -53.3669  -29.7120   13.9683 O.2       12 UNK        -0.5489 
     30 CA        -52.6959  -28.9529   16.1300 C.3       11 UNK         0.0294 
     31 CB        -51.2421  -29.4472   16.0740 C.3       11 UNK        -0.2019 
     32 N         -52.7440  -27.5440   15.7478 N.am      11 UNK        -0.4493 
     33 C         -53.7584  -26.7091   16.0096 C.2       11 UNK         0.4932 
     34 O         -54.7579  -27.0370   16.6524 O.2       11 UNK        -0.5029 
     35 CA        -53.6509  -25.2846   15.4270 C.3       10 UNK         0.0280 
     36 CB        -54.4958  -24.2515   16.2008 C.3       10 UNK        -0.1976 
     37 N         -52.2642  -24.8281   15.2673 N.am      10 UNK        -0.4242 
     38 C         -51.3420  -24.6251   16.2220 C.2       10 UNK         0.5072 
     39 O         -51.5666  -24.7168   17.4294 O.2       10 UNK        -0.5224 
     40 CA        -49.9087  -24.2937   15.7560 C.3       9 UNK         0.0343 
     41 CB        -49.0019  -25.5241   15.9193 C.3       9 UNK        -0.2003 
     42 N         -49.8344  -23.8292   14.3672 N.am      9 UNK        -0.4272 
     43 C         -50.2478  -22.6244   13.9481 C.2       9 UNK         0.4988 
     44 O         -50.6551  -21.7382   14.6996 O.2       9 UNK        -0.5108 
     45 CA        -50.2455  -22.3838   12.4300 C.3       8 UNK         0.0248 
     46 CB        -48.8744  -21.8823   11.9514 C.3       8 UNK        -0.2001 
     47 N         -50.6397  -23.5815   11.6806 N.am      8 UNK        -0.4140 
     48 C         -51.8902  -24.0673   11.6564 C.2       8 UNK         0.5028 
     49 O         -52.8456  -23.5256   12.2117 O.2       8 UNK        -0.5428 
     50 CA        -52.1151  -25.3981   10.9238 C.3       7 UNK         0.0264 
     51 CB        -52.4062  -25.1442    9.4392 C.3       7 UNK        -0.1988 
     52 N         -50.9967  -26.3355   11.1011 N.am      7 UNK        -0.4454 
     53 C         -50.7895  -26.9823   12.2609 C.2       7 UNK         0.5027 
     54 O         -51.5366  -26.8655   13.2322 O.2       7 UNK        -0.5083 
     55 CA        -49.5233  -27.8453   12.4399 C.3       6 UNK         0.0844 
     56 C56       -49.8069  -29.3724   12.3938 C.3       14 UNK        -0.0967 
     57 S57       -49.3889  -30.2038   10.8222 S.3       14 UNK        -0.2604 
     58 C58       -50.9560  -31.0109   10.3863 C.3       14 UNK         0.0134 
     59 N         -48.3689  -27.4414   11.6369 N.am      6 UNK        -0.4116 
     60 C         -47.7569  -26.2531   11.6898 C.2       5 UNK         0.5034 
     61 O         -48.1676  -25.3109   12.3713 O.2       5 UNK        -0.5045 
     62 CA        -46.4610  -26.1165   10.8709 C.3       5 UNK         0.0224 
     63 CB        -45.5755  -24.9764   11.4051 C.3       5 UNK        -0.1978 
     64 N         -45.6853  -27.3612   10.9202 N.am      5 UNK        -0.4737 
     65 C         -45.3882  -28.2571    9.9638 C.2       4 UNK         0.5027 
     66 O         -44.7802  -29.2850   10.2544 O.2       4 UNK        -0.5211 
     67 CA        -45.7862  -28.0622    8.4816 C.3       4 UNK         0.0297 
     68 CB        -47.2564  -28.4423    8.2422 C.3       4 UNK        -0.1993 
     69 N         -45.5137  -26.7549    7.8843 N.am      4 UNK        -0.4486 
     70 C         -44.3560  -26.0782    7.9049 C.2       3 UNK         0.4961 
     71 O         -43.3213  -26.4861    8.4320 O.2       3 UNK        -0.5105 
     72 CA        -44.3580  -24.7007    7.2203 C.3       3 UNK         0.0299 
     73 CB        -43.9682  -24.8311    5.7385 C.3       3 UNK        -0.1972 
     74 N         -45.6747  -24.0641    7.3294 N.am      3 UNK        -0.4305 
     75 C         -46.0156  -23.1986    8.2951 C.2       2 UNK         0.5006 
     76 O         -45.2092  -22.7292    9.0979 O.2       2 UNK        -0.5106 
     77 CA        -47.4922  -22.7745    8.4087 C.3       2 UNK         0.0296 
     78 CB        -47.6426  -21.2587    8.1930 C.3       2 UNK        -0.2002 
     79 N         -48.3761  -23.4733    7.4747 N.am      2 UNK        -0.4032 
     80 C         -49.0329  -24.6146    7.7287 C.2       1 UNK         0.5000 
     81 O         -48.9957  -25.1997    8.8141 O.2       1 UNK        -0.5238 
     82 H82       -46.6917  -24.6018    3.4058 H         1 UNK         0.0889 
     83 H83       -48.3618  -24.7542    2.8521 H         1 UNK         0.0889 
     84 H84       -47.3443  -26.1895    2.9932 H         1 UNK         0.0889 
     85 H85       -49.8191  -24.5722    4.5383 H         1 UNK         0.3028 
     86 H86       -50.7605  -24.5401    6.5444 H         1 UNK         0.0864 
     87 H87       -50.6844  -26.8104    7.7986 H         1 UNK         0.0720 
     88 H88       -49.5573  -27.3502    6.5841 H         1 UNK         0.0720 
     89 H89       -51.2238  -29.3481    5.6930 H         1 UNK         0.0814 
     90 H90       -52.9260  -29.0979    5.3966 H         1 UNK         0.0814 
     91 H91       -50.7041  -30.2952    7.7902 H         1 UNK         0.1469 
     92 H92       -53.1780  -29.6503   11.2301 H         1 UNK         0.1381 
     93 H93       -54.2046  -27.8384    7.4767 H         1 UNK         0.1206 
     94 H94       -55.4754  -27.2738    9.4201 H         1 UNK         0.0813 
     95 H95       -54.6561  -27.4576   10.9533 H         1 UNK         0.0813 
     96 H96       -58.2840  -28.7446   11.8067 H         1 UNK         0.0638 
     97 H97       -57.6494  -27.3049   11.0535 H         1 UNK         0.0638 
     98 H98       -55.9140  -27.0804   12.7708 H         1 UNK         0.0568 
     99 H99       -58.0548  -26.1745   15.7232 H         1 UNK         0.3450 
    100 H100      -56.6307  -27.1758   15.5980 H         1 UNK         0.3450 
    101 H101      -55.0980  -28.8770   13.7462 H         1 UNK         0.2987 
    102 H102      -56.4494  -31.3590   15.8310 H         1 UNK         0.0766 
    103 H103      -54.8050  -32.8222   14.6363 H         1 UNK         0.0798 
    104 H104      -54.8457  -31.7368   13.2464 H         1 UNK         0.0798 
    105 H105      -56.2902  -32.6097   13.7221 H         1 UNK         0.0798 
    106 H106      -54.7873  -30.2365   16.7249 H         1 UNK         0.3198 
    107 H107      -53.0561  -29.0567   17.1559 H         1 UNK         0.0843 
    108 H108      -50.8147  -29.3297   15.0796 H         1 UNK         0.0831 
    109 H109      -51.1787  -30.5042   16.3354 H         1 UNK         0.0831 
    110 H110      -50.6114  -28.8995   16.7745 H         1 UNK         0.0831 
    111 H111      -52.0658  -27.2412   15.0542 H         1 UNK         0.3133 
    112 H112      -54.0572  -25.3469   14.4164 H         1 UNK         0.0566 
    113 H113      -54.4048  -23.2578   15.7623 H         1 UNK         0.0814 
    114 H114      -55.5533  -24.5175   16.1804 H         1 UNK         0.0814 
    115 H115      -54.1984  -24.1866   17.2477 H         1 UNK         0.0814 
    116 H116      -51.9523  -24.7588   14.3079 H         1 UNK         0.3091 
    117 H117      -49.5269  -23.4998   16.4014 H         1 UNK         0.0702 
    118 H118      -47.9866  -25.3226   15.5766 H         1 UNK         0.0785 
    119 H119      -49.3834  -26.3792   15.3629 H         1 UNK         0.0785 
    120 H120      -48.9385  -25.8233   16.9664 H         1 UNK         0.0785 
    121 H121      -49.4341  -24.4660   13.6845 H         1 UNK         0.2998 
    122 H122      -50.9766  -21.5989   12.2237 H         1 UNK         0.0697 
    123 H123      -48.1032  -22.6472   12.0430 H         1 UNK         0.0825 
    124 H124      -48.5486  -21.0209   12.5360 H         1 UNK         0.0825 
    125 H125      -48.9178  -21.5622   10.9114 H         1 UNK         0.0825 
    126 H126      -49.9011  -24.1135   11.2387 H         1 UNK         0.3029 
    127 H127      -53.0071  -25.8560   11.3553 H         1 UNK         0.0897 
    128 H128      -52.5525  -26.0739    8.8950 H         1 UNK         0.0792 
    129 H129      -51.6069  -24.5848    8.9589 H         1 UNK         0.0792 
    130 H130      -53.3191  -24.5591    9.3218 H         1 UNK         0.0792 
    131 H131      -50.3277  -26.4219   10.3463 H         1 UNK         0.3086 
    132 H132      -49.2167  -27.6443   13.4674 H         1 UNK         0.0583 
    133 H133      -49.2052  -29.8621   13.1611 H         1 UNK         0.1020 
    134 H134      -50.8404  -29.5923   12.6714 H         1 UNK         0.1020 
    135 H135      -50.7354  -31.8949    9.7862 H         1 UNK         0.0694 
    136 H136      -51.4596  -31.3753   11.2833 H         1 UNK         0.0694 
    137 H137      -47.9771  -28.1665   11.0537 H         1 UNK         0.2989 
    138 H138      -46.7687  -25.8700    9.8591 H         1 UNK         0.1055 
    139 H139      -46.0932  -24.0180   11.3567 H         1 UNK         0.0806 
    140 H140      -44.6607  -24.8780   10.8205 H         1 UNK         0.0806 
    141 H141      -45.2911  -25.1384   12.4454 H         1 UNK         0.0806 
    142 H142      -45.3743  -27.6010   11.8510 H         1 UNK         0.3061 
    143 H143      -45.1809  -28.7700    7.9116 H         1 UNK         0.0734 
    144 H144      -47.4820  -28.4802    7.1764 H         1 UNK         0.0832 
    145 H145      -47.4749  -29.4308    8.6472 H         1 UNK         0.0832 
    146 H146      -47.9461  -27.7358    8.7028 H         1 UNK         0.0832 
    147 H147      -46.2617  -26.3748    7.3122 H         1 UNK         0.3156 
    148 H148      -43.6017  -24.0832    7.7096 H         1 UNK         0.0589 
    149 H149      -44.6530  -25.4781    5.1896 H         1 UNK         0.0808 
    150 H150      -43.9565  -23.8593    5.2449 H         1 UNK         0.0808 
    151 H151      -42.9695  -25.2578    5.6374 H         1 UNK         0.0808 
    152 H152      -46.3950  -24.4286    6.7166 H         1 UNK         0.3098 
    153 H153      -47.8020  -23.0063    9.4288 H         1 UNK         0.0720 
    154 H154      -48.6771  -20.9403    8.3229 H         1 UNK         0.0791 
    155 H155      -47.3209  -20.9582    7.1951 H         1 UNK         0.0791 
    156 H156      -47.0423  -20.6986    8.9115 H         1 UNK         0.0791 
    157 H157      -48.4750  -23.0642    6.5562 H         1 UNK         0.3028 
@<TRIPOS>BOND
     1    1    2 1    
     2    1   82 1    
     3    1   83 1    
     4    1   84 1    
     5    2    3 2    
     6    2    4 am   BACKBONE|DICT|INTERRES
     7    4    5 1    
     8    4   85 1    
     9    5    6 1    
    10    5   80 1    
    11    5   86 1    
    12    6    7 1    
    13    6   87 1    
    14    6   88 1    
    15    7    8 1    
    16    8    9 1    
    17    8   89 1    
    18    8   90 1    
    19    9   10 ar   
    20    9   14 ar   
    21   10   11 ar   
    22   10   91 1    
    23   11   12 ar   
    24   11   58 1    
    25   12   13 ar   
    26   12   92 1    
    27   13   14 ar   
    28   13   15 1    
    29   14   93 1    
    30   15   16 1    
    31   15   94 1    
    32   15   95 1    
    33   16   17 1    
    34   17   18 1    
    35   17   96 1    
    36   17   97 1    
    37   18   19 1    
    38   18   22 1    
    39   18   98 1    
    40   19   20 am   BACKBONE|DICT|INTERRES
    41   19   21 2    
    42   20   99 1    
    43   20  100 1    
    44   22   23 am   BACKBONE|DICT|INTERRES
    45   22  101 1    
    46   23   24 2    
    47   23   25 1    
    48   25   26 1    
    49   25   27 1    
    50   25  102 1    
    51   26  103 1    
    52   26  104 1    
    53   26  105 1    
    54   27   28 am   BACKBONE|DICT|INTERRES
    55   27  106 1    
    56   28   29 2    
    57   28   30 1    
    58   30   31 1    
    59   30   32 1    
    60   30  107 1    
    61   31  108 1    
    62   31  109 1    
    63   31  110 1    
    64   32   33 am   BACKBONE|DICT|INTERRES
    65   32  111 1    
    66   33   34 2    
    67   33   35 1    
    68   35   36 1    
    69   35   37 1    
    70   35  112 1    
    71   36  113 1    
    72   36  114 1    
    73   36  115 1    
    74   37   38 am   BACKBONE|DICT|INTERRES
    75   37  116 1    
    76   38   39 2    
    77   38   40 1    
    78   40   41 1    
    79   40   42 1    
    80   40  117 1    
    81   41  118 1    
    82   41  119 1    
    83   41  120 1    
    84   42   43 am   BACKBONE|DICT|INTERRES
    85   42  121 1    
    86   43   44 2    
    87   43   45 1    
    88   45   46 1    
    89   45   47 1    
    90   45  122 1    
    91   46  123 1    
    92   46  124 1    
    93   46  125 1    
    94   47   48 am   BACKBONE|DICT|INTERRES
    95   47  126 1    
    96   48   49 2    
    97   48   50 1    
    98   50   51 1    
    99   50   52 1    
   100   50  127 1    
   101   51  128 1    
   102   51  129 1    
   103   51  130 1    
   104   52   53 am   BACKBONE|DICT|INTERRES
   105   52  131 1    
   106   53   54 2    
   107   53   55 1    
   108   55   56 1    
   109   55   59 1    
   110   55  132 1    
   111   56   57 1    
   112   56  133 1    
   113   56  134 1    
   114   57   58 1    
   115   58  135 1    
   116   58  136 1    
   117   59   60 am   BACKBONE|DICT|INTERRES
   118   59  137 1    
   119   60   61 2    
   120   60   62 1    
   121   62   63 1    
   122   62   64 1    
   123   62  138 1    
   124   63  139 1    
   125   63  140 1    
   126   63  141 1    
   127   64   65 am   BACKBONE|DICT|INTERRES
   128   64  142 1    
   129   65   66 2    
   130   65   67 1    
   131   67   68 1    
   132   67   69 1    
   133   67  143 1    
   134   68  144 1    
   135   68  145 1    
   136   68  146 1    
   137   69   70 am   BACKBONE|DICT|INTERRES
   138   69  147 1    
   139   70   71 2    
   140   70   72 1    
   141   72   73 1    
   142   72   74 1    
   143   72  148 1    
   144   73  149 1    
   145   73  150 1    
   146   73  151 1    
   147   74   75 am   BACKBONE|DICT|INTERRES
   148   74  152 1    
   149   75   76 2    
   150   75   77 1    
   151   77   78 1    
   152   77   79 1    
   153   77  153 1    
   154   78  154 1    
   155   78  155 1    
   156   78  156 1    
   157   79   80 am   BACKBONE|DICT|INTERRES
   158   79  157 1    
   159   80   81 2    
@<TRIPOS>SUBSTRUCTURE
     1 UNK         1 GROUP             0       ****    0 ROOT    
