@<TRIPOS>MOLECULE
3R207
157   159    1
SMALL
USER_CHARGES


@<TRIPOS>ATOM
      1 CA        -53.8496  -23.4648   11.4487 C.3       0 UNK        -0.1975 
      2 C         -53.4150  -23.7130   10.0122 C.2       0 UNK         0.4852 
      3 O         -53.7311  -22.9135    9.1298 O.2       0 UNK        -0.5216 
      4 N         -52.7000  -24.8219    9.7836 N.am      1 UNK        -0.4461 
      5 CA        -52.1347  -25.2456    8.4968 C.3       1 UNK         0.0864 
      6 C6        -53.2289  -25.6432    7.4648 C.3       14 UNK        -0.0898 
      7 S7        -52.6910  -26.9653    6.3204 S.3       14 UNK        -0.2598 
      8 C8        -53.8962  -28.3015    6.6466 C.3       14 UNK         0.0286 
      9 C9        -53.3964  -29.4087    7.5765 C.ar      14 UNK        -0.0844 
     10 C10       -52.5310  -29.1575    8.6489 C.ar      14 UNK        -0.0881 
     11 C11       -52.0908  -30.1932    9.4802 C.ar      14 UNK        -0.0643 
     12 C12       -52.5269  -31.4965    9.2309 C.ar      14 UNK        -0.0930 
     13 C13       -53.4086  -31.7628    8.1803 C.ar      14 UNK        -0.0827 
     14 C14       -53.8387  -30.7172    7.3600 C.ar      14 UNK        -0.1249 
     15 C15       -53.8835  -33.1845    7.9247 C.3       14 UNK         0.0141 
     16 S16       -54.8975  -33.8227    9.2941 S.3       14 UNK        -0.2313 
     17 C17       -56.4432  -32.8573    9.1365 C.3       14 UNK        -0.0915 
     18 CA        -56.7674  -31.9461   10.3535 C.3       13 UNK         0.0968 
     19 C         -56.8884  -32.7512   11.6842 C.2       13 UNK         0.5732 
     20 N         -56.0012  -32.5691   12.6555 N.am      13 UNK        -0.7310 
     21 O         -57.8121  -33.5473   11.8371 O.2       13 UNK        -0.5035 
     22 N         -55.9078  -30.7487   10.3915 N.am      13 UNK        -0.4233 
     23 C         -56.1529  -29.6702   11.1485 C.2       13 UNK         0.4989 
     24 O         -57.1046  -29.5715   11.9267 O.2       13 UNK        -0.4996 
     25 CA        -55.1951  -28.4847   11.0111 C.3       12 UNK         0.0216 
     26 CB        -55.8023  -27.3810   10.1265 C.3       12 UNK        -0.1964 
     27 N         -54.9111  -27.9740   12.3460 N.am      12 UNK        -0.4276 
     28 C         -53.8637  -27.2166   12.6831 C.2       12 UNK         0.5020 
     29 O         -53.0361  -26.7774   11.8796 O.2       12 UNK        -0.5489 
     30 CA        -53.6954  -26.9517   14.1816 C.3       11 UNK         0.0294 
     31 CB        -52.9717  -28.1346   14.8479 C.3       11 UNK        -0.2019 
     32 N         -52.8997  -25.7477   14.3989 N.am      11 UNK        -0.4493 
     33 C         -53.2590  -24.7099   15.1636 C.2       11 UNK         0.4932 
     34 O         -54.3579  -24.6035   15.7116 O.2       11 UNK        -0.5029 
     35 CA        -52.1764  -23.6349   15.3780 C.3       10 UNK         0.0280 
     36 CB        -52.5778  -22.5497   16.3986 C.3       10 UNK        -0.1976 
     37 N         -50.8892  -24.2443   15.7297 N.am      10 UNK        -0.4242 
     38 C         -50.6094  -25.0306   16.7817 C.2       10 UNK         0.5072 
     39 O         -51.3856  -25.2475   17.7132 O.2       10 UNK        -0.5224 
     40 CA        -49.2367  -25.7295   16.7846 C.3       9 UNK         0.0343 
     41 CB        -49.3884  -27.1841   16.3096 C.3       9 UNK        -0.2003 
     42 N         -48.2361  -25.0579   15.9513 N.am      9 UNK        -0.4272 
     43 C         -47.6654  -23.8828   16.2522 C.2       9 UNK         0.4988 
     44 O         -47.8594  -23.2755   17.3060 O.2       9 UNK        -0.5108 
     45 CA        -46.7429  -23.2669   15.1876 C.3       8 UNK         0.0248 
     46 CB        -45.3361  -23.8807   15.2707 C.3       8 UNK        -0.2001 
     47 N         -47.2678  -23.4022   13.8246 N.am      8 UNK        -0.4140 
     48 C         -48.4017  -22.8349   13.3830 C.2       8 UNK         0.5028 
     49 O         -49.1186  -22.1080   14.0702 O.2       8 UNK        -0.5428 
     50 CA        -48.8304  -23.1571   11.9430 C.3       7 UNK         0.0264 
     51 CB        -47.9940  -22.3509   10.9357 C.3       7 UNK        -0.1988 
     52 N         -48.7344  -24.5841   11.6365 N.am      7 UNK        -0.4454 
     53 C         -49.4493  -25.5523   12.2276 C.2       7 UNK         0.5027 
     54 O         -50.3244  -25.3436   13.0685 O.2       7 UNK        -0.5083 
     55 CA        -49.0957  -27.0045   11.8516 C.3       6 UNK         0.0844 
     56 C56       -49.8189  -27.4367   10.5557 C.3       14 UNK        -0.0967 
     57 S57       -49.5746  -29.2062   10.1821 S.3       14 UNK        -0.2604 
     58 C58       -51.1823  -29.9120   10.6727 C.3       14 UNK         0.0134 
     59 N         -47.6467  -27.1952   11.7622 N.am      6 UNK        -0.4116 
     60 C         -46.7925  -27.1196   12.7902 C.2       5 UNK         0.5034 
     61 O         -47.1280  -26.8927   13.9523 O.2       5 UNK        -0.5045 
     62 CA        -45.3031  -27.2845   12.4480 C.3       5 UNK         0.0224 
     63 CB        -44.9418  -28.7698   12.2874 C.3       5 UNK        -0.1978 
     64 N         -44.9199  -26.5479   11.2390 N.am      5 UNK        -0.4737 
     65 C         -44.9266  -25.2111   11.1462 C.2       4 UNK         0.5027 
     66 O         -45.2333  -24.4638   12.0738 O.2       4 UNK        -0.5211 
     67 CA        -44.5700  -24.6039    9.7796 C.3       4 UNK         0.0297 
     68 CB        -43.0447  -24.5384    9.6017 C.3       4 UNK        -0.1993 
     69 N         -45.1739  -25.2858    8.6277 N.am      4 UNK        -0.4486 
     70 C         -46.4858  -25.4961    8.4555 C.2       3 UNK         0.4961 
     71 O         -47.3399  -25.2771    9.3150 O.2       3 UNK        -0.5105 
     72 CA        -46.9236  -26.0735    7.1013 C.3       3 UNK         0.0299 
     73 CB        -47.1279  -27.5931    7.2074 C.3       3 UNK        -0.1972 
     74 N         -48.1686  -25.4489    6.6484 N.am      3 UNK        -0.4305 
     75 C         -48.2892  -24.1667    6.2698 C.2       2 UNK         0.5006 
     76 O         -47.3357  -23.3952    6.1540 O.2       2 UNK        -0.5106 
     77 CA        -49.7059  -23.6531    5.9522 C.3       2 UNK         0.0296 
     78 CB        -49.9693  -23.7038    4.4382 C.3       2 UNK        -0.2002 
     79 N         -50.7588  -24.3978    6.6468 N.am      2 UNK        -0.4032 
     80 C         -51.0614  -24.2748    7.9466 C.2       1 UNK         0.5000 
     81 O         -50.4998  -23.4773    8.6999 O.2       1 UNK        -0.5238 
     82 H82       -53.8224  -22.3998   11.6773 H         1 UNK         0.0889 
     83 H83       -53.1910  -23.9743   12.1509 H         1 UNK         0.0889 
     84 H84       -54.8656  -23.8261   11.6041 H         1 UNK         0.0889 
     85 H85       -52.5557  -25.4636   10.5612 H         1 UNK         0.3028 
     86 H86       -51.5650  -26.1365    8.7382 H         1 UNK         0.0864 
     87 H87       -54.1186  -25.9884    7.9897 H         1 UNK         0.0720 
     88 H88       -53.5614  -24.7778    6.8880 H         1 UNK         0.0720 
     89 H89       -54.1469  -28.7371    5.6781 H         1 UNK         0.0814 
     90 H90       -54.8299  -27.8947    7.0335 H         1 UNK         0.0814 
     91 H91       -52.2064  -28.1538    8.8548 H         1 UNK         0.1469 
     92 H92       -52.1965  -32.3079    9.8654 H         1 UNK         0.1381 
     93 H93       -54.5176  -30.9248    6.5438 H         1 UNK         0.1206 
     94 H94       -54.4479  -33.2534    6.9934 H         1 UNK         0.0813 
     95 H95       -53.0133  -33.8308    7.8018 H         1 UNK         0.0813 
     96 H96       -57.2563  -33.5697    8.9870 H         1 UNK         0.0638 
     97 H97       -56.4131  -32.2611    8.2234 H         1 UNK         0.0638 
     98 H98       -57.7747  -31.5642   10.1760 H         1 UNK         0.0568 
     99 H99       -56.0932  -33.0919   13.5117 H         1 UNK         0.3450 
    100 H100      -55.2356  -31.9276   12.5333 H         1 UNK         0.3450 
    101 H101      -55.0964  -30.7684    9.7890 H         1 UNK         0.2987 
    102 H102      -54.2626  -28.8342   10.5759 H         1 UNK         0.0766 
    103 H103      -55.1239  -26.5354   10.0243 H         1 UNK         0.0798 
    104 H104      -56.7388  -27.0054   10.5406 H         1 UNK         0.0798 
    105 H105      -56.0147  -27.7556    9.1252 H         1 UNK         0.0798 
    106 H106      -55.5485  -28.3047   13.0604 H         1 UNK         0.3198 
    107 H107      -54.6874  -26.8422   14.6251 H         1 UNK         0.0843 
    108 H108      -51.9887  -28.3045   14.4060 H         1 UNK         0.0831 
    109 H109      -53.5419  -29.0583   14.7424 H         1 UNK         0.0831 
    110 H110      -52.8314  -27.9609   15.9152 H         1 UNK         0.0831 
    111 H111      -52.0096  -25.7107   13.9043 H         1 UNK         0.3133 
    112 H112      -52.0284  -23.1456   14.4141 H         1 UNK         0.0566 
    113 H113      -51.7903  -21.8046   16.5117 H         1 UNK         0.0814 
    114 H114      -53.4774  -22.0250   16.0746 H         1 UNK         0.0814 
    115 H115      -52.7849  -22.9718   17.3824 H         1 UNK         0.0814 
    116 H116      -50.1824  -24.1771   15.0080 H         1 UNK         0.3091 
    117 H117      -48.8735  -25.7405   17.8144 H         1 UNK         0.0702 
    118 H118      -48.4430  -27.7232   16.3740 H         1 UNK         0.0785 
    119 H119      -49.7320  -27.2342   15.2755 H         1 UNK         0.0785 
    120 H120      -50.1127  -27.7238   16.9212 H         1 UNK         0.0785 
    121 H121      -47.9603  -25.5350   15.0971 H         1 UNK         0.2998 
    122 H122      -46.6594  -22.1995   15.4022 H         1 UNK         0.0697 
    123 H123      -45.3431  -24.9420   15.0201 H         1 UNK         0.0825 
    124 H124      -44.9251  -23.7840   16.2764 H         1 UNK         0.0825 
    125 H125      -44.6461  -23.3820   14.5898 H         1 UNK         0.0825 
    126 H126      -46.7003  -23.9382   13.1714 H         1 UNK         0.3029 
    127 H127      -49.8772  -22.8669   11.8283 H         1 UNK         0.0897 
    128 H128      -48.3115  -22.5439    9.9110 H         1 UNK         0.0792 
    129 H129      -48.0983  -21.2797   11.1118 H         1 UNK         0.0792 
    130 H130      -46.9333  -22.5922   11.0032 H         1 UNK         0.0792 
    131 H131      -48.0873  -24.8450   10.8927 H         1 UNK         0.3086 
    132 H132      -49.4586  -27.6383   12.6639 H         1 UNK         0.0583 
    133 H133      -50.8852  -27.2347   10.6384 H         1 UNK         0.1020 
    134 H134      -49.4637  -26.8538    9.7047 H         1 UNK         0.1020 
    135 H135      -50.9844  -30.8338   11.2216 H         1 UNK         0.0694 
    136 H136      -51.6947  -29.2547   11.3763 H         1 UNK         0.0694 
    137 H137      -47.2735  -27.3392   10.8361 H         1 UNK         0.2989 
    138 H138      -44.7289  -26.8812   13.2854 H         1 UNK         0.1055 
    139 H139      -45.2067  -29.3334   13.1833 H         1 UNK         0.0806 
    140 H140      -43.8714  -28.9024   12.1290 H         1 UNK         0.0806 
    141 H141      -45.4655  -29.2286   11.4477 H         1 UNK         0.0806 
    142 H142      -44.6571  -27.0868   10.4264 H         1 UNK         0.3061 
    143 H143      -44.9516  -23.5809    9.7762 H         1 UNK         0.0734 
    144 H144      -42.7724  -23.9933    8.6978 H         1 UNK         0.0832 
    145 H145      -42.5764  -24.0215   10.4408 H         1 UNK         0.0832 
    146 H146      -42.5998  -25.5324    9.5428 H         1 UNK         0.0832 
    147 H147      -44.5490  -25.5200    7.8693 H         1 UNK         0.3156 
    148 H148      -46.1492  -25.8735    6.3577 H         1 UNK         0.0589 
    149 H149      -47.9058  -27.8489    7.9275 H         1 UNK         0.0808 
    150 H150      -47.4079  -28.0241    6.2460 H         1 UNK         0.0808 
    151 H151      -46.2116  -28.0903    7.5285 H         1 UNK         0.0808 
    152 H152      -49.0064  -26.0039    6.7267 H         1 UNK         0.3098 
    153 H153      -49.7555  -22.6099    6.2723 H         1 UNK         0.0720 
    154 H154      -49.9453  -24.7255    4.0568 H         1 UNK         0.0791 
    155 H155      -49.2160  -23.1341    3.8920 H         1 UNK         0.0791 
    156 H156      -50.9403  -23.2747    4.1899 H         1 UNK         0.0791 
    157 H157      -51.2728  -25.0815    6.1048 H         1 UNK         0.3028 
@<TRIPOS>BOND
     1    1    2 1    
     2    1   82 1    
     3    1   83 1    
     4    1   84 1    
     5    2    3 2    
     6    2    4 am   BACKBONE|DICT|INTERRES
     7    4    5 1    
     8    4   85 1    
     9    5    6 1    
    10    5   80 1    
    11    5   86 1    
    12    6    7 1    
    13    6   87 1    
    14    6   88 1    
    15    7    8 1    
    16    8    9 1    
    17    8   89 1    
    18    8   90 1    
    19    9   10 ar   
    20    9   14 ar   
    21   10   11 ar   
    22   10   91 1    
    23   11   12 ar   
    24   11   58 1    
    25   12   13 ar   
    26   12   92 1    
    27   13   14 ar   
    28   13   15 1    
    29   14   93 1    
    30   15   16 1    
    31   15   94 1    
    32   15   95 1    
    33   16   17 1    
    34   17   18 1    
    35   17   96 1    
    36   17   97 1    
    37   18   19 1    
    38   18   22 1    
    39   18   98 1    
    40   19   20 am   BACKBONE|DICT|INTERRES
    41   19   21 2    
    42   20   99 1    
    43   20  100 1    
    44   22   23 am   BACKBONE|DICT|INTERRES
    45   22  101 1    
    46   23   24 2    
    47   23   25 1    
    48   25   26 1    
    49   25   27 1    
    50   25  102 1    
    51   26  103 1    
    52   26  104 1    
    53   26  105 1    
    54   27   28 am   BACKBONE|DICT|INTERRES
    55   27  106 1    
    56   28   29 2    
    57   28   30 1    
    58   30   31 1    
    59   30   32 1    
    60   30  107 1    
    61   31  108 1    
    62   31  109 1    
    63   31  110 1    
    64   32   33 am   BACKBONE|DICT|INTERRES
    65   32  111 1    
    66   33   34 2    
    67   33   35 1    
    68   35   36 1    
    69   35   37 1    
    70   35  112 1    
    71   36  113 1    
    72   36  114 1    
    73   36  115 1    
    74   37   38 am   BACKBONE|DICT|INTERRES
    75   37  116 1    
    76   38   39 2    
    77   38   40 1    
    78   40   41 1    
    79   40   42 1    
    80   40  117 1    
    81   41  118 1    
    82   41  119 1    
    83   41  120 1    
    84   42   43 am   BACKBONE|DICT|INTERRES
    85   42  121 1    
    86   43   44 2    
    87   43   45 1    
    88   45   46 1    
    89   45   47 1    
    90   45  122 1    
    91   46  123 1    
    92   46  124 1    
    93   46  125 1    
    94   47   48 am   BACKBONE|DICT|INTERRES
    95   47  126 1    
    96   48   49 2    
    97   48   50 1    
    98   50   51 1    
    99   50   52 1    
   100   50  127 1    
   101   51  128 1    
   102   51  129 1    
   103   51  130 1    
   104   52   53 am   BACKBONE|DICT|INTERRES
   105   52  131 1    
   106   53   54 2    
   107   53   55 1    
   108   55   56 1    
   109   55   59 1    
   110   55  132 1    
   111   56   57 1    
   112   56  133 1    
   113   56  134 1    
   114   57   58 1    
   115   58  135 1    
   116   58  136 1    
   117   59   60 am   BACKBONE|DICT|INTERRES
   118   59  137 1    
   119   60   61 2    
   120   60   62 1    
   121   62   63 1    
   122   62   64 1    
   123   62  138 1    
   124   63  139 1    
   125   63  140 1    
   126   63  141 1    
   127   64   65 am   BACKBONE|DICT|INTERRES
   128   64  142 1    
   129   65   66 2    
   130   65   67 1    
   131   67   68 1    
   132   67   69 1    
   133   67  143 1    
   134   68  144 1    
   135   68  145 1    
   136   68  146 1    
   137   69   70 am   BACKBONE|DICT|INTERRES
   138   69  147 1    
   139   70   71 2    
   140   70   72 1    
   141   72   73 1    
   142   72   74 1    
   143   72  148 1    
   144   73  149 1    
   145   73  150 1    
   146   73  151 1    
   147   74   75 am   BACKBONE|DICT|INTERRES
   148   74  152 1    
   149   75   76 2    
   150   75   77 1    
   151   77   78 1    
   152   77   79 1    
   153   77  153 1    
   154   78  154 1    
   155   78  155 1    
   156   78  156 1    
   157   79   80 am   BACKBONE|DICT|INTERRES
   158   79  157 1    
   159   80   81 2    
@<TRIPOS>SUBSTRUCTURE
     1 UNK         1 GROUP             0       ****    0 ROOT    
