@<TRIPOS>MOLECULE
3R207
157   159    1
SMALL
USER_CHARGES


@<TRIPOS>ATOM
      1 CA        -50.0789  -28.7317   -0.7442 C.3       0 UNK        -0.1975 
      2 C         -50.3797  -28.1594    0.6334 C.2       0 UNK         0.4852 
      3 O         -51.0804  -27.1513    0.7371 O.2       0 UNK        -0.5216 
      4 N         -49.8633  -28.7986    1.6912 N.am      1 UNK        -0.4461 
      5 CA        -49.9899  -28.3501    3.0805 C.3       1 UNK         0.0864 
      6 C6        -49.6396  -29.4931    4.0658 C.3       14 UNK        -0.0898 
      7 S7        -50.2443  -29.1711    5.7562 S.3       14 UNK        -0.2598 
      8 C8        -50.8189  -30.8265    6.2437 C.3       14 UNK         0.0286 
      9 C9        -51.2480  -30.8365    7.7014 C.ar      14 UNK        -0.0844 
     10 C10       -50.2881  -30.9566    8.7102 C.ar      14 UNK        -0.0881 
     11 C11       -50.6651  -30.9256   10.0558 C.ar      14 UNK        -0.0643 
     12 C12       -52.0157  -30.7922   10.3891 C.ar      14 UNK        -0.0930 
     13 C13       -52.9852  -30.6785    9.3890 C.ar      14 UNK        -0.0827 
     14 C14       -52.5969  -30.7062    8.0457 C.ar      14 UNK        -0.1249 
     15 C15       -54.4490  -30.5125    9.7633 C.3       14 UNK         0.0141 
     16 S16       -55.0016  -28.8028    9.4874 S.3       14 UNK        -0.2313 
     17 C17       -56.6050  -28.8114   10.3568 C.3       14 UNK        -0.0915 
     18 CA        -56.6795  -27.7264   11.4698 C.3       13 UNK         0.0968 
     19 C         -58.0989  -27.6035   12.1072 C.2       13 UNK         0.5732 
     20 N         -58.2303  -27.2255   13.3744 N.am      13 UNK        -0.7310 
     21 O         -59.1055  -27.8204   11.4360 O.2       13 UNK        -0.5035 
     22 N         -55.5804  -27.8053   12.4478 N.am      13 UNK        -0.4233 
     23 C         -55.3625  -28.7901   13.3308 C.2       13 UNK         0.4989 
     24 O         -55.9825  -29.8539   13.3475 O.2       13 UNK        -0.4996 
     25 CA        -54.2867  -28.5356   14.4082 C.3       12 UNK         0.0216 
     26 CB        -52.9877  -29.2696   14.0434 C.3       12 UNK        -0.1964 
     27 N         -53.9921  -27.1159   14.6653 N.am      12 UNK        -0.4276 
     28 C         -54.8949  -26.2105   15.0744 C.2       12 UNK         0.5020 
     29 O         -56.0849  -26.4766   15.2630 O.2       12 UNK        -0.5489 
     30 CA        -54.3918  -24.7675   15.2636 C.3       11 UNK         0.0294 
     31 CB        -55.5432  -23.7405   15.3045 C.3       11 UNK        -0.2019 
     32 N         -53.5208  -24.6019   16.4326 N.am      11 UNK        -0.4493 
     33 C         -53.8056  -24.9001   17.7108 C.2       11 UNK         0.4932 
     34 O         -54.8684  -25.3999   18.0834 O.2       11 UNK        -0.5029 
     35 CA        -52.7328  -24.5428   18.7607 C.3       10 UNK         0.0280 
     36 CB        -52.9781  -25.2241   20.1245 C.3       10 UNK        -0.1976 
     37 N         -51.3547  -24.7772   18.3175 N.am      10 UNK        -0.4242 
     38 C         -50.8018  -25.9287   17.9124 C.2       10 UNK         0.5072 
     39 O         -51.4245  -26.9861   17.7988 O.2       10 UNK        -0.5224 
     40 CA        -49.2893  -25.8843   17.6004 C.3       9 UNK         0.0343 
     41 CB        -48.7527  -27.2424   17.1101 C.3       9 UNK        -0.2003 
     42 N         -48.9354  -24.8538   16.6191 N.am      9 UNK        -0.4272 
     43 C         -48.9154  -23.5297   16.8284 C.2       9 UNK         0.4988 
     44 O         -49.1494  -23.0102   17.9207 O.2       9 UNK        -0.5108 
     45 CA        -48.6465  -22.6291   15.6092 C.3       8 UNK         0.0248 
     46 CB        -47.1366  -22.4565   15.3819 C.3       8 UNK        -0.2001 
     47 N         -49.2803  -23.1106   14.3774 N.am      8 UNK        -0.4140 
     48 C         -50.6007  -23.2863   14.2087 C.2       8 UNK         0.5028 
     49 O         -51.4469  -23.0453   15.0707 O.2       8 UNK        -0.5428 
     50 CA        -51.0447  -23.8832   12.8651 C.3       7 UNK         0.0264 
     51 CB        -51.0261  -22.8297   11.7455 C.3       7 UNK        -0.1988 
     52 N         -50.2079  -25.0288   12.5074 N.am      7 UNK        -0.4454 
     53 C         -50.3350  -26.2438   13.0638 C.2       7 UNK         0.5027 
     54 O         -51.2465  -26.5379   13.8398 O.2       7 UNK        -0.5083 
     55 CA        -49.2661  -27.3032   12.7119 C.3       6 UNK         0.0844 
     56 C56       -49.7520  -28.2135   11.5612 C.3       14 UNK        -0.0967 
     57 S57       -48.5498  -29.5351   11.1765 S.3       14 UNK        -0.2604 
     58 C58       -49.6098  -31.0145   11.1482 C.3       14 UNK         0.0134 
     59 N         -47.9656  -26.7050   12.4010 N.am      6 UNK        -0.4116 
     60 C         -47.1639  -26.0862   13.2751 C.2       5 UNK         0.5034 
     61 O         -47.4222  -25.9518   14.4684 O.2       5 UNK        -0.5045 
     62 CA        -45.8855  -25.4568   12.6987 C.3       5 UNK         0.0224 
     63 CB        -44.7501  -26.4905   12.6459 C.3       5 UNK        -0.1978 
     64 N         -46.0862  -24.8816   11.3645 N.am      5 UNK        -0.4737 
     65 C         -46.9482  -23.9025   11.0666 C.2       4 UNK         0.5027 
     66 O         -47.6673  -23.3612   11.9066 O.2       4 UNK        -0.5211 
     67 CA        -47.0775  -23.4959    9.5882 C.3       4 UNK         0.0297 
     68 CB        -45.9176  -22.5757    9.1626 C.3       4 UNK        -0.1993 
     69 N         -47.2496  -24.6230    8.6551 N.am      4 UNK        -0.4486 
     70 C         -46.3816  -25.5942    8.3281 C.2       3 UNK         0.4961 
     71 O         -45.2578  -25.7070    8.8193 O.2       3 UNK        -0.5105 
     72 CA        -46.8470  -26.6375    7.2946 C.3       3 UNK         0.0299 
     73 CB        -47.3332  -27.9117    8.0054 C.3       3 UNK        -0.1972 
     74 N         -47.8970  -26.1680    6.3839 N.am      3 UNK        -0.4305 
     75 C         -47.7457  -25.2130    5.4531 C.2       2 UNK         0.5006 
     76 O         -46.6982  -24.5880    5.2772 O.2       2 UNK        -0.5106 
     77 CA        -48.9817  -24.9219    4.5765 C.3       2 UNK         0.0296 
     78 CB        -48.6820  -23.9678    3.3993 C.3       2 UNK        -0.2002 
     79 N         -49.6410  -26.1491    4.1077 N.am      2 UNK        -0.4032 
     80 C         -49.1099  -27.1061    3.3296 C.2       1 UNK         0.5000 
     81 O         -47.9743  -27.0623    2.8470 O.2       1 UNK        -0.5238 
     82 H82       -49.4627  -29.6289   -0.6877 H         1 UNK         0.0889 
     83 H83       -49.5503  -27.9950   -1.3486 H         1 UNK         0.0889 
     84 H84       -51.0067  -28.9894   -1.2543 H         1 UNK         0.0889 
     85 H85       -49.2669  -29.6000    1.5419 H         1 UNK         0.3028 
     86 H86       -51.0363  -28.0748    3.2332 H         1 UNK         0.0864 
     87 H87       -50.0908  -30.4235    3.7165 H         1 UNK         0.0720 
     88 H88       -48.5636  -29.6767    4.0996 H         1 UNK         0.0720 
     89 H89       -50.0184  -31.5519    6.0895 H         1 UNK         0.0814 
     90 H90       -51.6449  -31.1313    5.5991 H         1 UNK         0.0814 
     91 H91       -49.2419  -31.0449    8.4499 H         1 UNK         0.1469 
     92 H92       -52.3119  -30.7659   11.4283 H         1 UNK         0.1381 
     93 H93       -53.3445  -30.6048    7.2705 H         1 UNK         0.1206 
     94 H94       -55.0632  -31.1933    9.1721 H         1 UNK         0.0813 
     95 H95       -54.6057  -30.7805   10.8097 H         1 UNK         0.0813 
     96 H96       -57.3759  -28.6383    9.6040 H         1 UNK         0.0638 
     97 H97       -56.8070  -29.8005   10.7702 H         1 UNK         0.0638 
     98 H98       -56.5371  -26.7657   10.9741 H         1 UNK         0.0568 
     99 H99       -59.1551  -27.1407   13.7642 H         1 UNK         0.3450 
    100 H100      -57.4214  -27.0235   13.9552 H         1 UNK         0.3450 
    101 H101      -55.0083  -26.9783   12.5203 H         1 UNK         0.2987 
    102 H102      -54.6642  -28.9565   15.3422 H         1 UNK         0.0766 
    103 H103      -53.1607  -30.3406   13.9296 H         1 UNK         0.0798 
    104 H104      -52.2262  -29.1426   14.8135 H         1 UNK         0.0798 
    105 H105      -52.5813  -28.9016   13.1026 H         1 UNK         0.0798 
    106 H106      -53.0262  -26.8255   14.5219 H         1 UNK         0.3198 
    107 H107      -53.7866  -24.5327   14.3898 H         1 UNK         0.0843 
    108 H108      -56.1637  -23.8145   14.4105 H         1 UNK         0.0831 
    109 H109      -55.1618  -22.7204   15.3509 H         1 UNK         0.0831 
    110 H110      -56.1955  -23.8941   16.1649 H         1 UNK         0.0831 
    111 H111      -52.6220  -24.1721   16.2285 H         1 UNK         0.3133 
    112 H112      -52.8164  -23.4661   18.9148 H         1 UNK         0.0566 
    113 H113      -52.2269  -24.9293   20.8571 H         1 UNK         0.0814 
    114 H114      -52.9573  -26.3114   20.0411 H         1 UNK         0.0814 
    115 H115      -53.9508  -24.9475   20.5332 H         1 UNK         0.0814 
    116 H116      -50.7378  -23.9681   18.3378 H         1 UNK         0.3091 
    117 H117      -48.7806  -25.6484   18.5373 H         1 UNK         0.0702 
    118 H118      -47.6742  -27.2102   16.9546 H         1 UNK         0.0785 
    119 H119      -49.2181  -27.5400   16.1695 H         1 UNK         0.0785 
    120 H120      -48.9497  -28.0304   17.8381 H         1 UNK         0.0785 
    121 H121      -48.6537  -25.1942   15.7036 H         1 UNK         0.2998 
    122 H122      -49.0715  -21.6472   15.8270 H         1 UNK         0.0697 
    123 H123      -46.6471  -23.4094   15.1816 H         1 UNK         0.0825 
    124 H124      -46.6580  -22.0243   16.2616 H         1 UNK         0.0825 
    125 H125      -46.9333  -21.7920   14.5418 H         1 UNK         0.0825 
    126 H126      -48.6652  -23.3023   13.5913 H         1 UNK         0.3029 
    127 H127      -52.0740  -24.2276   12.9674 H         1 UNK         0.0897 
    128 H128      -50.0385  -22.3925   11.6020 H         1 UNK         0.0792 
    129 H129      -51.7085  -22.0109   11.9772 H         1 UNK         0.0792 
    130 H130      -51.3453  -23.2563   10.7945 H         1 UNK         0.0792 
    131 H131      -49.4068  -24.8386   11.9214 H         1 UNK         0.3086 
    132 H132      -49.1359  -27.9250   13.6004 H         1 UNK         0.0583 
    133 H133      -50.7086  -28.6648   11.8222 H         1 UNK         0.1020 
    134 H134      -49.9315  -27.6368   10.6517 H         1 UNK         0.1020 
    135 H135      -48.9873  -31.8937   10.9766 H         1 UNK         0.0694 
    136 H136      -50.0682  -31.1477   12.1295 H         1 UNK         0.0694 
    137 H137      -47.6519  -26.7882   11.4459 H         1 UNK         0.2989 
    138 H138      -45.5858  -24.6478   13.3677 H         1 UNK         0.1055 
    139 H139      -44.9799  -27.3105   11.9641 H         1 UNK         0.0806 
    140 H140      -43.8151  -26.0353   12.3186 H         1 UNK         0.0806 
    141 H141      -44.5708  -26.9242   13.6308 H         1 UNK         0.0806 
    142 H142      -45.5531  -25.2771   10.5919 H         1 UNK         0.3061 
    143 H143      -47.9957  -22.9110    9.5107 H         1 UNK         0.0734 
    144 H144      -44.9508  -23.0757    9.2270 H         1 UNK         0.0832 
    145 H145      -46.0455  -22.2265    8.1380 H         1 UNK         0.0832 
    146 H146      -45.8676  -21.6935    9.8023 H         1 UNK         0.0832 
    147 H147      -48.1513  -24.6608    8.2010 H         1 UNK         0.3156 
    148 H148      -45.9769  -26.8989    6.6888 H         1 UNK         0.0589 
    149 H149      -47.5347  -28.7114    7.2924 H         1 UNK         0.0808 
    150 H150      -46.5814  -28.2868    8.7015 H         1 UNK         0.0808 
    151 H151      -48.2460  -27.7358    8.5755 H         1 UNK         0.0808 
    152 H152      -48.7853  -26.6462    6.4383 H         1 UNK         0.3098 
    153 H153      -49.6992  -24.4185    5.2262 H         1 UNK         0.0720 
    154 H154      -48.3108  -23.0078    3.7601 H         1 UNK         0.0791 
    155 H155      -49.5787  -23.7679    2.8128 H         1 UNK         0.0791 
    156 H156      -47.9260  -24.3750    2.7272 H         1 UNK         0.0791 
    157 H157      -50.5780  -26.2967    4.4580 H         1 UNK         0.3028 
@<TRIPOS>BOND
     1    1    2 1    
     2    1   82 1    
     3    1   83 1    
     4    1   84 1    
     5    2    3 2    
     6    2    4 am   BACKBONE|DICT|INTERRES
     7    4    5 1    
     8    4   85 1    
     9    5    6 1    
    10    5   80 1    
    11    5   86 1    
    12    6    7 1    
    13    6   87 1    
    14    6   88 1    
    15    7    8 1    
    16    8    9 1    
    17    8   89 1    
    18    8   90 1    
    19    9   10 ar   
    20    9   14 ar   
    21   10   11 ar   
    22   10   91 1    
    23   11   12 ar   
    24   11   58 1    
    25   12   13 ar   
    26   12   92 1    
    27   13   14 ar   
    28   13   15 1    
    29   14   93 1    
    30   15   16 1    
    31   15   94 1    
    32   15   95 1    
    33   16   17 1    
    34   17   18 1    
    35   17   96 1    
    36   17   97 1    
    37   18   19 1    
    38   18   22 1    
    39   18   98 1    
    40   19   20 am   BACKBONE|DICT|INTERRES
    41   19   21 2    
    42   20   99 1    
    43   20  100 1    
    44   22   23 am   BACKBONE|DICT|INTERRES
    45   22  101 1    
    46   23   24 2    
    47   23   25 1    
    48   25   26 1    
    49   25   27 1    
    50   25  102 1    
    51   26  103 1    
    52   26  104 1    
    53   26  105 1    
    54   27   28 am   BACKBONE|DICT|INTERRES
    55   27  106 1    
    56   28   29 2    
    57   28   30 1    
    58   30   31 1    
    59   30   32 1    
    60   30  107 1    
    61   31  108 1    
    62   31  109 1    
    63   31  110 1    
    64   32   33 am   BACKBONE|DICT|INTERRES
    65   32  111 1    
    66   33   34 2    
    67   33   35 1    
    68   35   36 1    
    69   35   37 1    
    70   35  112 1    
    71   36  113 1    
    72   36  114 1    
    73   36  115 1    
    74   37   38 am   BACKBONE|DICT|INTERRES
    75   37  116 1    
    76   38   39 2    
    77   38   40 1    
    78   40   41 1    
    79   40   42 1    
    80   40  117 1    
    81   41  118 1    
    82   41  119 1    
    83   41  120 1    
    84   42   43 am   BACKBONE|DICT|INTERRES
    85   42  121 1    
    86   43   44 2    
    87   43   45 1    
    88   45   46 1    
    89   45   47 1    
    90   45  122 1    
    91   46  123 1    
    92   46  124 1    
    93   46  125 1    
    94   47   48 am   BACKBONE|DICT|INTERRES
    95   47  126 1    
    96   48   49 2    
    97   48   50 1    
    98   50   51 1    
    99   50   52 1    
   100   50  127 1    
   101   51  128 1    
   102   51  129 1    
   103   51  130 1    
   104   52   53 am   BACKBONE|DICT|INTERRES
   105   52  131 1    
   106   53   54 2    
   107   53   55 1    
   108   55   56 1    
   109   55   59 1    
   110   55  132 1    
   111   56   57 1    
   112   56  133 1    
   113   56  134 1    
   114   57   58 1    
   115   58  135 1    
   116   58  136 1    
   117   59   60 am   BACKBONE|DICT|INTERRES
   118   59  137 1    
   119   60   61 2    
   120   60   62 1    
   121   62   63 1    
   122   62   64 1    
   123   62  138 1    
   124   63  139 1    
   125   63  140 1    
   126   63  141 1    
   127   64   65 am   BACKBONE|DICT|INTERRES
   128   64  142 1    
   129   65   66 2    
   130   65   67 1    
   131   67   68 1    
   132   67   69 1    
   133   67  143 1    
   134   68  144 1    
   135   68  145 1    
   136   68  146 1    
   137   69   70 am   BACKBONE|DICT|INTERRES
   138   69  147 1    
   139   70   71 2    
   140   70   72 1    
   141   72   73 1    
   142   72   74 1    
   143   72  148 1    
   144   73  149 1    
   145   73  150 1    
   146   73  151 1    
   147   74   75 am   BACKBONE|DICT|INTERRES
   148   74  152 1    
   149   75   76 2    
   150   75   77 1    
   151   77   78 1    
   152   77   79 1    
   153   77  153 1    
   154   78  154 1    
   155   78  155 1    
   156   78  156 1    
   157   79   80 am   BACKBONE|DICT|INTERRES
   158   79  157 1    
   159   80   81 2    
@<TRIPOS>SUBSTRUCTURE
     1 UNK         1 GROUP             0       ****    0 ROOT    
