@<TRIPOS>MOLECULE
3R207
157   159    1
SMALL
USER_CHARGES


@<TRIPOS>ATOM
      1 CA        -45.2076  -30.9746    7.6832 C.3       0 UNK        -0.1975 
      2 C         -46.2325  -30.8977    6.5609 C.2       0 UNK         0.4852 
      3 O         -46.6796  -31.9351    6.0698 O.2       0 UNK        -0.5216 
      4 N         -46.5982  -29.6788    6.1504 N.am      1 UNK        -0.4461 
      5 CA        -47.5647  -29.4035    5.0848 C.3       1 UNK         0.0864 
      6 C6        -49.0369  -29.7387    5.4547 C.3       14 UNK        -0.0898 
      7 S7        -49.6199  -28.9878    7.0137 S.3       14 UNK        -0.2598 
      8 C8        -51.3417  -29.5608    7.0232 C.3       14 UNK         0.0286 
      9 C9        -52.1212  -28.9055    8.1501 C.ar      14 UNK        -0.0844 
     10 C10       -52.6255  -27.6129    7.9864 C.ar      14 UNK        -0.0881 
     11 C11       -53.3512  -26.9994    9.0107 C.ar      14 UNK        -0.0643 
     12 C12       -53.5846  -27.6953   10.2002 C.ar      14 UNK        -0.0930 
     13 C13       -53.0740  -28.9842   10.3800 C.ar      14 UNK        -0.0827 
     14 C14       -52.3397  -29.5838    9.3524 C.ar      14 UNK        -0.1249 
     15 C15       -53.2897  -29.7188   11.6940 C.3       14 UNK         0.0141 
     16 S16       -54.4624  -31.1015   11.5368 S.3       14 UNK        -0.2313 
     17 C17       -56.0518  -30.2566   11.2138 C.3       14 UNK        -0.0915 
     18 CA        -56.9983  -30.1915   12.4418 C.3       13 UNK         0.0968 
     19 C         -57.4752  -31.6030   12.9012 C.2       13 UNK         0.5732 
     20 N         -57.1363  -32.0650   14.0992 N.am      13 UNK        -0.7310 
     21 O         -58.1772  -32.2847   12.1576 O.2       13 UNK        -0.5035 
     22 N         -56.4508  -29.3206   13.4945 N.am      13 UNK        -0.4233 
     23 C         -57.1559  -28.8094   14.5115 C.2       13 UNK         0.4989 
     24 O         -58.3536  -29.0263   14.6998 O.2       13 UNK        -0.4996 
     25 CA        -56.3982  -27.8852   15.4793 C.3       12 UNK         0.0216 
     26 CB        -55.6547  -28.7102   16.5419 C.3       12 UNK        -0.1964 
     27 N         -55.4617  -26.9645   14.8222 N.am      12 UNK        -0.4276 
     28 C         -55.8235  -25.9898   13.9694 C.2       12 UNK         0.5020 
     29 O         -56.9817  -25.8289   13.5798 O.2       12 UNK        -0.5489 
     30 CA        -54.7222  -25.0224   13.4778 C.3       11 UNK         0.0294 
     31 CB        -55.2814  -23.6529   13.0401 C.3       11 UNK        -0.2019 
     32 N         -53.6185  -24.8420   14.4260 N.am      11 UNK        -0.4493 
     33 C         -53.6898  -24.4469   15.7070 C.2       11 UNK         0.4932 
     34 O         -54.7276  -24.0646   16.2500 O.2       11 UNK        -0.5029 
     35 CA        -52.3850  -24.5242   16.5280 C.3       10 UNK         0.0280 
     36 CB        -52.6499  -24.7399   18.0329 C.3       10 UNK        -0.1976 
     37 N         -51.4259  -25.5233   16.0341 N.am      10 UNK        -0.4242 
     38 C         -51.6281  -26.8417   15.8661 C.2       10 UNK         0.5072 
     39 O         -52.7024  -27.3952   16.1075 O.2       10 UNK        -0.5224 
     40 CA        -50.4770  -27.6906   15.2866 C.3       9 UNK         0.0343 
     41 CB        -50.9525  -28.4774   14.0539 C.3       9 UNK        -0.2003 
     42 N         -49.2989  -26.9063   14.9119 N.am      9 UNK        -0.4272 
     43 C         -48.3421  -26.4959   15.7547 C.2       9 UNK         0.4988 
     44 O         -48.2998  -26.8023   16.9463 O.2       9 UNK        -0.5108 
     45 CA        -47.2787  -25.5410   15.1813 C.3       8 UNK         0.0248 
     46 CB        -46.1224  -26.3346   14.5535 C.3       8 UNK        -0.2001 
     47 N         -47.8212  -24.5885   14.2034 N.am      8 UNK        -0.4140 
     48 C         -48.7665  -23.6764   14.4786 C.2       8 UNK         0.5028 
     49 O         -49.2492  -23.5143   15.5992 O.2       8 UNK        -0.5428 
     50 CA        -49.3087  -22.8384   13.3094 C.3       7 UNK         0.0264 
     51 CB        -48.3504  -21.6864   12.9692 C.3       7 UNK        -0.1988 
     52 N         -49.5820  -23.6310   12.1087 N.am      7 UNK        -0.4454 
     53 C         -50.4769  -24.6287   12.0336 C.2       7 UNK         0.5027 
     54 O         -51.1899  -24.9816   12.9741 O.2       7 UNK        -0.5083 
     55 CA        -50.5481  -25.4016   10.6980 C.3       6 UNK         0.0844 
     56 C56       -51.3065  -24.6078    9.6029 C.3       14 UNK        -0.0967 
     57 S57       -53.0844  -24.4043    9.9766 S.3       14 UNK        -0.2604 
     58 C58       -53.8728  -25.5812    8.8319 C.3       14 UNK         0.0134 
     59 N         -49.2148  -25.8194   10.2525 N.am      6 UNK        -0.4116 
     60 C         -48.3770  -26.5932   10.9607 C.2       5 UNK         0.5034 
     61 O         -48.6682  -27.1291   12.0294 O.2       5 UNK        -0.5045 
     62 CA        -46.9431  -26.7319   10.4269 C.3       5 UNK         0.0224 
     63 CB        -46.8381  -27.8512    9.3807 C.3       5 UNK        -0.1978 
     64 N         -46.4453  -25.4711    9.8706 N.am      5 UNK        -0.4737 
     65 C         -46.1211  -24.4030   10.6134 C.2       4 UNK         0.5027 
     66 O         -46.1614  -24.3912   11.8427 O.2       4 UNK        -0.5211 
     67 CA        -45.7251  -23.1222    9.8592 C.3       4 UNK         0.0297 
     68 CB        -44.2400  -23.1644    9.4666 C.3       4 UNK        -0.1993 
     69 N         -46.5438  -22.8905    8.6664 N.am      4 UNK        -0.4486 
     70 C         -47.8602  -22.6362    8.6880 C.2       3 UNK         0.4961 
     71 O         -48.5137  -22.5086    9.7219 O.2       3 UNK        -0.5105 
     72 CA        -48.5822  -22.5656    7.3297 C.3       3 UNK         0.0299 
     73 CB        -48.5700  -21.1273    6.7894 C.3       3 UNK        -0.1972 
     74 N         -48.0314  -23.4776    6.3196 N.am      3 UNK        -0.4305 
     75 C         -47.9580  -24.8090    6.4519 C.2       2 UNK         0.5006 
     76 O         -48.3580  -25.4220    7.4463 O.2       2 UNK        -0.5106 
     77 CA        -47.2688  -25.5702    5.3135 C.3       2 UNK         0.0296 
     78 CB        -45.7592  -25.2568    5.2749 C.3       2 UNK        -0.2002 
     79 N         -47.4703  -27.0000    5.5224 N.am      2 UNK        -0.4032 
     80 C         -47.3746  -27.9587    4.5941 C.2       1 UNK         0.5000 
     81 O         -47.1004  -27.7459    3.4115 O.2       1 UNK        -0.5238 
     82 H82       -44.7679  -30.0021    7.9025 H         1 UNK         0.0889 
     83 H83       -44.4006  -31.6539    7.4097 H         1 UNK         0.0889 
     84 H84       -45.6764  -31.3500    8.5924 H         1 UNK         0.0889 
     85 H85       -46.1593  -28.8635    6.5539 H         1 UNK         0.3028 
     86 H86       -47.2944  -30.0407    4.2395 H         1 UNK         0.0864 
     87 H87       -49.7067  -29.4417    4.6455 H         1 UNK         0.0720 
     88 H88       -49.1497  -30.8200    5.5457 H         1 UNK         0.0720 
     89 H89       -51.8125  -29.3264    6.0672 H         1 UNK         0.0814 
     90 H90       -51.3622  -30.6473    7.1216 H         1 UNK         0.0814 
     91 H91       -52.4415  -27.0826    7.0619 H         1 UNK         0.1469 
     92 H92       -54.1486  -27.2219   10.9906 H         1 UNK         0.1381 
     93 H93       -51.9423  -30.5803    9.4895 H         1 UNK         0.1206 
     94 H94       -53.6286  -29.0350   12.4728 H         1 UNK         0.0813 
     95 H95       -52.3331  -30.1176   12.0337 H         1 UNK         0.0813 
     96 H96       -56.5432  -30.7796   10.3915 H         1 UNK         0.0638 
     97 H97       -55.8655  -29.2501   10.8394 H         1 UNK         0.0638 
     98 H98       -57.9072  -29.6956   12.0955 H         1 UNK         0.0568 
     99 H99       -56.5599  -31.5151   14.7143 H         1 UNK         0.3450 
    100 H100      -57.4561  -32.9767   14.3848 H         1 UNK         0.3450 
    101 H101      -55.4680  -29.1098   13.4332 H         1 UNK         0.2987 
    102 H102      -57.1440  -27.2739   15.9920 H         1 UNK         0.0766 
    103 H103      -55.2087  -28.0661   17.3004 H         1 UNK         0.0798 
    104 H104      -54.8555  -29.3100   16.1044 H         1 UNK         0.0798 
    105 H105      -56.3335  -29.3918   17.0564 H         1 UNK         0.0798 
    106 H106      -54.4942  -27.0096   15.1299 H         1 UNK         0.3198 
    107 H107      -54.2816  -25.4919   12.5985 H         1 UNK         0.0843 
    108 H108      -54.4878  -23.0010   12.6750 H         1 UNK         0.0831 
    109 H109      -55.7875  -23.1426   13.8601 H         1 UNK         0.0831 
    110 H110      -56.0021  -23.7646   12.2292 H         1 UNK         0.0831 
    111 H111      -52.6947  -25.0633   14.0550 H         1 UNK         0.3133 
    112 H112      -51.8992  -23.5548   16.4117 H         1 UNK         0.0566 
    113 H113      -51.7185  -24.7763   18.5978 H         1 UNK         0.0814 
    114 H114      -53.2465  -23.9269   18.4484 H         1 UNK         0.0814 
    115 H115      -53.1914  -25.6685   18.2174 H         1 UNK         0.0814 
    116 H116      -50.5241  -25.1418   15.7687 H         1 UNK         0.3091 
    117 H117      -50.1907  -28.4098   16.0565 H         1 UNK         0.0702 
    118 H118      -51.7789  -29.1415   14.3092 H         1 UNK         0.0785 
    119 H119      -50.1540  -29.0979   13.6466 H         1 UNK         0.0785 
    120 H120      -51.2942  -27.8116   13.2600 H         1 UNK         0.0785 
    121 H121      -49.2223  -26.6553   13.9306 H         1 UNK         0.2998 
    122 H122      -46.8773  -24.9589   16.0134 H         1 UNK         0.0697 
    123 H123      -46.4588  -26.9357   13.7088 H         1 UNK         0.0825 
    124 H124      -45.6764  -27.0148   15.2802 H         1 UNK         0.0825 
    125 H125      -45.3311  -25.6730   14.2007 H         1 UNK         0.0825 
    126 H126      -47.4223  -24.6155   13.2677 H         1 UNK         0.3029 
    127 H127      -50.2574  -22.4043   13.6325 H         1 UNK         0.0897 
    128 H128      -48.7689  -21.0377   12.1994 H         1 UNK         0.0792 
    129 H129      -48.1574  -21.0668   13.8460 H         1 UNK         0.0792 
    130 H130      -47.3886  -22.0523   12.6094 H         1 UNK         0.0792 
    131 H131      -49.0722  -23.3675   11.2673 H         1 UNK         0.3086 
    132 H132      -51.1021  -26.3229   10.8886 H         1 UNK         0.0583 
    133 H133      -50.8743  -23.6160    9.4700 H         1 UNK         0.1020 
    134 H134      -51.1989  -25.1056    8.6379 H         1 UNK         0.1020 
    135 H135      -54.9502  -25.5718    9.0026 H         1 UNK         0.0694 
    136 H136      -53.7207  -25.2346    7.8085 H         1 UNK         0.0694 
    137 H137      -48.8973  -25.4696    9.3541 H         1 UNK         0.2989 
    138 H138      -46.3049  -27.0045   11.2703 H         1 UNK         0.1055 
    139 H139      -47.1769  -28.8028    9.7930 H         1 UNK         0.0806 
    140 H140      -45.8085  -27.9872    9.0513 H         1 UNK         0.0806 
    141 H141      -47.4499  -27.6437    8.5054 H         1 UNK         0.0806 
    142 H142      -46.4540  -25.3791    8.8651 H         1 UNK         0.3061 
    143 H143      -45.8749  -22.2793   10.5373 H         1 UNK         0.0734 
    144 H144      -43.9242  -22.2284    9.0056 H         1 UNK         0.0832 
    145 H145      -43.6107  -23.3190   10.3444 H         1 UNK         0.0832 
    146 H146      -44.0266  -23.9736    8.7670 H         1 UNK         0.0832 
    147 H147      -46.0851  -22.9664    7.7706 H         1 UNK         0.3156 
    148 H148      -49.6213  -22.8555    7.4962 H         1 UNK         0.0589 
    149 H149      -47.5581  -20.7852    6.5683 H         1 UNK         0.0808 
    150 H150      -49.1619  -21.0398    5.8781 H         1 UNK         0.0808 
    151 H151      -48.9961  -20.4346    7.5168 H         1 UNK         0.0808 
    152 H152      -47.6794  -23.0541    5.4725 H         1 UNK         0.3098 
    153 H153      -47.7365  -25.2751    4.3719 H         1 UNK         0.0720 
    154 H154      -45.2622  -25.7956    4.4680 H         1 UNK         0.0791 
    155 H155      -45.2668  -25.5311    6.2088 H         1 UNK         0.0791 
    156 H156      -45.5750  -24.1955    5.1057 H         1 UNK         0.0791 
    157 H157      -47.8311  -27.2340    6.4408 H         1 UNK         0.3028 
@<TRIPOS>BOND
     1    1    2 1    
     2    1   82 1    
     3    1   83 1    
     4    1   84 1    
     5    2    3 2    
     6    2    4 am   BACKBONE|DICT|INTERRES
     7    4    5 1    
     8    4   85 1    
     9    5    6 1    
    10    5   80 1    
    11    5   86 1    
    12    6    7 1    
    13    6   87 1    
    14    6   88 1    
    15    7    8 1    
    16    8    9 1    
    17    8   89 1    
    18    8   90 1    
    19    9   10 ar   
    20    9   14 ar   
    21   10   11 ar   
    22   10   91 1    
    23   11   12 ar   
    24   11   58 1    
    25   12   13 ar   
    26   12   92 1    
    27   13   14 ar   
    28   13   15 1    
    29   14   93 1    
    30   15   16 1    
    31   15   94 1    
    32   15   95 1    
    33   16   17 1    
    34   17   18 1    
    35   17   96 1    
    36   17   97 1    
    37   18   19 1    
    38   18   22 1    
    39   18   98 1    
    40   19   20 am   BACKBONE|DICT|INTERRES
    41   19   21 2    
    42   20   99 1    
    43   20  100 1    
    44   22   23 am   BACKBONE|DICT|INTERRES
    45   22  101 1    
    46   23   24 2    
    47   23   25 1    
    48   25   26 1    
    49   25   27 1    
    50   25  102 1    
    51   26  103 1    
    52   26  104 1    
    53   26  105 1    
    54   27   28 am   BACKBONE|DICT|INTERRES
    55   27  106 1    
    56   28   29 2    
    57   28   30 1    
    58   30   31 1    
    59   30   32 1    
    60   30  107 1    
    61   31  108 1    
    62   31  109 1    
    63   31  110 1    
    64   32   33 am   BACKBONE|DICT|INTERRES
    65   32  111 1    
    66   33   34 2    
    67   33   35 1    
    68   35   36 1    
    69   35   37 1    
    70   35  112 1    
    71   36  113 1    
    72   36  114 1    
    73   36  115 1    
    74   37   38 am   BACKBONE|DICT|INTERRES
    75   37  116 1    
    76   38   39 2    
    77   38   40 1    
    78   40   41 1    
    79   40   42 1    
    80   40  117 1    
    81   41  118 1    
    82   41  119 1    
    83   41  120 1    
    84   42   43 am   BACKBONE|DICT|INTERRES
    85   42  121 1    
    86   43   44 2    
    87   43   45 1    
    88   45   46 1    
    89   45   47 1    
    90   45  122 1    
    91   46  123 1    
    92   46  124 1    
    93   46  125 1    
    94   47   48 am   BACKBONE|DICT|INTERRES
    95   47  126 1    
    96   48   49 2    
    97   48   50 1    
    98   50   51 1    
    99   50   52 1    
   100   50  127 1    
   101   51  128 1    
   102   51  129 1    
   103   51  130 1    
   104   52   53 am   BACKBONE|DICT|INTERRES
   105   52  131 1    
   106   53   54 2    
   107   53   55 1    
   108   55   56 1    
   109   55   59 1    
   110   55  132 1    
   111   56   57 1    
   112   56  133 1    
   113   56  134 1    
   114   57   58 1    
   115   58  135 1    
   116   58  136 1    
   117   59   60 am   BACKBONE|DICT|INTERRES
   118   59  137 1    
   119   60   61 2    
   120   60   62 1    
   121   62   63 1    
   122   62   64 1    
   123   62  138 1    
   124   63  139 1    
   125   63  140 1    
   126   63  141 1    
   127   64   65 am   BACKBONE|DICT|INTERRES
   128   64  142 1    
   129   65   66 2    
   130   65   67 1    
   131   67   68 1    
   132   67   69 1    
   133   67  143 1    
   134   68  144 1    
   135   68  145 1    
   136   68  146 1    
   137   69   70 am   BACKBONE|DICT|INTERRES
   138   69  147 1    
   139   70   71 2    
   140   70   72 1    
   141   72   73 1    
   142   72   74 1    
   143   72  148 1    
   144   73  149 1    
   145   73  150 1    
   146   73  151 1    
   147   74   75 am   BACKBONE|DICT|INTERRES
   148   74  152 1    
   149   75   76 2    
   150   75   77 1    
   151   77   78 1    
   152   77   79 1    
   153   77  153 1    
   154   78  154 1    
   155   78  155 1    
   156   78  156 1    
   157   79   80 am   BACKBONE|DICT|INTERRES
   158   79  157 1    
   159   80   81 2    
@<TRIPOS>SUBSTRUCTURE
     1 UNK         1 GROUP             0       ****    0 ROOT    
