@<TRIPOS>MOLECULE
3R207
157   159    1
SMALL
USER_CHARGES


@<TRIPOS>ATOM
      1 CA        -54.6545  -27.6094    7.8398 C.3       0 UNK        -0.1975 
      2 C         -53.2941  -27.3141    7.2284 C.2       0 UNK         0.4852 
      3 O         -53.2149  -26.6656    6.1844 O.2       0 UNK        -0.5216 
      4 N         -52.2197  -27.7719    7.8847 N.am      1 UNK        -0.4461 
      5 CA        -50.8037  -27.6682    7.4957 C.3       1 UNK         0.0864 
      6 C6        -50.4916  -28.3968    6.1613 C.3       14 UNK        -0.0898 
      7 S7        -48.7891  -29.0490    6.0832 S.3       14 UNK        -0.2598 
      8 C8        -48.9800  -30.7142    6.8089 C.3       14 UNK         0.0286 
      9 C9        -49.2289  -30.6506    8.3101 C.ar      14 UNK        -0.0844 
     10 C10       -48.1753  -30.3573    9.1814 C.ar      14 UNK        -0.0881 
     11 C11       -48.4009  -30.2216   10.5563 C.ar      14 UNK        -0.0643 
     12 C12       -49.6939  -30.4054   11.0562 C.ar      14 UNK        -0.0930 
     13 C13       -50.7514  -30.7230   10.1989 C.ar      14 UNK        -0.0827 
     14 C14       -50.5131  -30.8513    8.8272 C.ar      14 UNK        -0.1249 
     15 C15       -52.1527  -30.9084   10.7578 C.3       14 UNK         0.0141 
     16 S16       -53.0298  -29.3209   10.8074 S.3       14 UNK        -0.2313 
     17 C17       -54.5759  -29.7986   11.6429 C.3       14 UNK        -0.0915 
     18 CA        -55.6482  -28.6819   11.5748 C.3       13 UNK         0.0968 
     19 C         -56.9806  -29.1543   12.2145 C.2       13 UNK         0.5732 
     20 N         -57.2023  -28.9292   13.5032 N.am      13 UNK        -0.7310 
     21 O         -57.8249  -29.7272   11.5298 O.2       13 UNK        -0.5035 
     22 N         -55.1581  -27.4106   12.1277 N.am      13 UNK        -0.4233 
     23 C         -55.6372  -26.2071   11.7902 C.2       13 UNK         0.4989 
     24 O         -56.5346  -26.0325   10.9635 O.2       13 UNK        -0.4996 
     25 CA        -54.9733  -24.9998   12.4777 C.3       12 UNK         0.0216 
     26 CB        -55.6652  -23.6538   12.1701 C.3       12 UNK        -0.1964 
     27 N         -54.8076  -25.2083   13.9202 N.am      12 UNK        -0.4276 
     28 C         -55.7735  -25.3302   14.8434 C.2       12 UNK         0.5020 
     29 O         -56.9762  -25.2138   14.6014 O.2       12 UNK        -0.5489 
     30 CA        -55.3100  -25.6355   16.2835 C.3       11 UNK         0.0294 
     31 CB        -56.4560  -26.1445   17.1843 C.3       11 UNK        -0.2019 
     32 N         -54.1610  -26.5479   16.3546 N.am      11 UNK        -0.4493 
     33 C         -54.0825  -27.8004   15.8751 C.2       11 UNK         0.4932 
     34 O         -54.9956  -28.3515   15.2593 O.2       11 UNK        -0.5029 
     35 CA        -52.7573  -28.5568   16.0941 C.3       10 UNK         0.0280 
     36 CB        -52.3976  -29.4343   14.8805 C.3       10 UNK        -0.1976 
     37 N         -51.6521  -27.6308   16.3453 N.am      10 UNK        -0.4242 
     38 C         -51.0489  -27.4193   17.5231 C.2       10 UNK         0.5072 
     39 O         -51.3415  -28.0187   18.5582 O.2       10 UNK        -0.5224 
     40 CA        -49.9366  -26.3526   17.5682 C.3       9 UNK         0.0343 
     41 CB        -48.5566  -27.0183   17.6963 C.3       9 UNK        -0.2003 
     42 N         -49.9380  -25.4688   16.3981 N.am      9 UNK        -0.4272 
     43 C         -50.8004  -24.4563   16.2147 C.2       9 UNK         0.4988 
     44 O         -51.6512  -24.1286   17.0420 O.2       9 UNK        -0.5108 
     45 CA        -50.7514  -23.7238   14.8586 C.3       8 UNK         0.0248 
     46 CB        -49.7706  -22.5429   14.9193 C.3       8 UNK        -0.2001 
     47 N         -50.3940  -24.5964   13.7354 N.am      8 UNK        -0.4140 
     48 C         -51.0768  -25.6969   13.3845 C.2       8 UNK         0.5028 
     49 O         -52.1340  -26.0325   13.9161 O.2       8 UNK        -0.5428 
     50 CA        -50.4767  -26.6160   12.3104 C.3       7 UNK         0.0264 
     51 CB        -51.1533  -26.3489   10.9640 C.3       7 UNK        -0.1988 
     52 N         -49.0261  -26.5091   12.1454 N.am      7 UNK        -0.4454 
     53 C         -48.1048  -26.6551   13.1100 C.2       7 UNK         0.5027 
     54 O         -48.3765  -26.9654   14.2706 O.2       7 UNK        -0.5083 
     55 CA        -46.6393  -26.3414   12.7362 C.3       6 UNK         0.0844 
     56 C56       -45.8265  -27.6398   12.5019 C.3       14 UNK        -0.0967 
     57 S57       -46.2505  -28.4841   10.9369 S.3       14 UNK        -0.2604 
     58 C58       -47.2591  -29.8900   11.5121 C.3       14 UNK         0.0134 
     59 N         -46.4917  -25.4000   11.6172 N.am      6 UNK        -0.4116 
     60 C         -47.0242  -24.1765   11.5016 C.2       5 UNK         0.5034 
     61 O         -47.7351  -23.6614   12.3664 O.2       5 UNK        -0.5045 
     62 CA        -46.7718  -23.4066   10.1896 C.3       5 UNK         0.0224 
     63 CB        -45.6252  -22.3920   10.3609 C.3       5 UNK        -0.1978 
     64 N         -46.5742  -24.2384    8.9884 N.am      5 UNK        -0.4737 
     65 C         -45.5696  -25.0764    8.6859 C.2       4 UNK         0.5027 
     66 O         -44.6260  -25.3040    9.4425 O.2       4 UNK        -0.5211 
     67 CA        -45.6305  -25.8113    7.3348 C.3       4 UNK         0.0297 
     68 CB        -45.8497  -27.3178    7.5466 C.3       4 UNK        -0.1993 
     69 N         -46.6926  -25.3001    6.4661 N.am      4 UNK        -0.4486 
     70 C         -46.5187  -24.3690    5.5173 C.2       3 UNK         0.4961 
     71 O         -45.4297  -23.8600    5.2505 O.2       3 UNK        -0.5105 
     72 CA        -47.7617  -23.9227    4.7228 C.3       3 UNK         0.0299 
     73 CB        -47.8518  -24.6954    3.3968 C.3       3 UNK        -0.1972 
     74 N         -49.0206  -24.0809    5.4544 N.am      3 UNK        -0.4305 
     75 C         -49.3649  -23.3918    6.5516 C.2       2 UNK         0.5006 
     76 O         -48.6746  -22.5030    7.0499 O.2       2 UNK        -0.5106 
     77 CA        -50.6768  -23.8003    7.2438 C.3       2 UNK         0.0296 
     78 CB        -51.8557  -22.9758    6.7041 C.3       2 UNK        -0.2002 
     79 N         -50.9943  -25.2289    7.1382 N.am      2 UNK        -0.4032 
     80 C         -50.2213  -26.2385    7.5604 C.2       1 UNK         0.5000 
     81 O         -49.0947  -26.0680    8.0295 O.2       1 UNK        -0.5238 
     82 H82       -55.4293  -27.5941    7.0736 H         1 UNK         0.0889 
     83 H83       -54.9029  -26.8606    8.5916 H         1 UNK         0.0889 
     84 H84       -54.6698  -28.5925    8.3092 H         1 UNK         0.0889 
     85 H85       -52.3739  -28.2738    8.7510 H         1 UNK         0.3028 
     86 H86       -50.2837  -28.1999    8.2901 H         1 UNK         0.0864 
     87 H87       -51.1729  -29.2377    6.0227 H         1 UNK         0.0720 
     88 H88       -50.6618  -27.7406    5.3060 H         1 UNK         0.0720 
     89 H89       -48.0705  -31.2861    6.6195 H         1 UNK         0.0814 
     90 H90       -49.7850  -31.2478    6.3013 H         1 UNK         0.0814 
     91 H91       -47.1814  -30.2051    8.7831 H         1 UNK         0.1469 
     92 H92       -49.8822  -30.2989   12.1158 H         1 UNK         0.1381 
     93 H93       -51.3335  -31.0765    8.1593 H         1 UNK         0.1206 
     94 H94       -52.1045  -31.3296   11.7633 H         1 UNK         0.0813 
     95 H95       -52.7145  -31.6181   10.1485 H         1 UNK         0.0813 
     96 H96       -54.3497  -30.0513   12.6794 H         1 UNK         0.0638 
     97 H97       -54.9497  -30.7111   11.1744 H         1 UNK         0.0638 
     98 H98       -55.8629  -28.5173   10.5173 H         1 UNK         0.0568 
     99 H99       -58.0705  -29.2294   13.9151 H         1 UNK         0.3450 
    100 H100      -56.4711  -28.5380   14.0909 H         1 UNK         0.3450 
    101 H101      -54.4485  -27.4774   12.8424 H         1 UNK         0.2987 
    102 H102      -53.9650  -24.9393   12.0668 H         1 UNK         0.0766 
    103 H103      -55.1581  -22.8253   12.6644 H         1 UNK         0.0798 
    104 H104      -56.7080  -23.6480   12.4883 H         1 UNK         0.0798 
    105 H105      -55.6541  -23.4475   11.0991 H         1 UNK         0.0798 
    106 H106      -53.8479  -25.4003   14.2057 H         1 UNK         0.3198 
    107 H107      -54.9670  -24.6841   16.6936 H         1 UNK         0.0843 
    108 H108      -56.8880  -27.0705   16.8029 H         1 UNK         0.0831 
    109 H109      -57.2616  -25.4117   17.2457 H         1 UNK         0.0831 
    110 H110      -56.1106  -26.3289   18.2015 H         1 UNK         0.0831 
    111 H111      -53.3396  -26.1742   16.8105 H         1 UNK         0.3133 
    112 H112      -52.9027  -29.2129   16.9542 H         1 UNK         0.0566 
    113 H113      -52.3646  -28.8546   13.9577 H         1 UNK         0.0814 
    114 H114      -51.4280  -29.9154   15.0094 H         1 UNK         0.0814 
    115 H115      -53.1328  -30.2278   14.7433 H         1 UNK         0.0814 
    116 H116      -51.3961  -27.0472   15.5571 H         1 UNK         0.3091 
    117 H117      -50.1022  -25.7456   18.4609 H         1 UNK         0.0702 
    118 H118      -47.7603  -26.2761   17.7531 H         1 UNK         0.0785 
    119 H119      -48.3446  -27.6756   16.8523 H         1 UNK         0.0785 
    120 H120      -48.4991  -27.6245   18.6014 H         1 UNK         0.0785 
    121 H121      -49.2993  -25.7175   15.6493 H         1 UNK         0.2998 
    122 H122      -51.7510  -23.3304   14.6622 H         1 UNK         0.0697 
    123 H123      -48.7451  -22.8780   15.0813 H         1 UNK         0.0825 
    124 H124      -50.0259  -21.8627   15.7331 H         1 UNK         0.0825 
    125 H125      -49.7892  -21.9641   13.9956 H         1 UNK         0.0825 
    126 H126      -49.5326  -24.3783   13.2454 H         1 UNK         0.3029 
    127 H127      -50.6947  -27.6434   12.6081 H         1 UNK         0.0897 
    128 H128      -52.2399  -26.3883   11.0471 H         1 UNK         0.0792 
    129 H129      -50.8587  -27.1137   10.2514 H         1 UNK         0.0792 
    130 H130      -50.8869  -25.3731   10.5557 H         1 UNK         0.0792 
    131 H131      -48.6948  -26.2771   11.2197 H         1 UNK         0.3086 
    132 H132      -46.2105  -25.8412   13.6066 H         1 UNK         0.0583 
    133 H133      -44.7644  -27.3933   12.4611 H         1 UNK         0.1020 
    134 H134      -45.9264  -28.3248   13.3465 H         1 UNK         0.1020 
    135 H135      -46.6185  -30.7655   11.6241 H         1 UNK         0.0694 
    136 H136      -47.6584  -29.6690   12.5030 H         1 UNK         0.0694 
    137 H137      -45.8871  -25.7046   10.8604 H         1 UNK         0.2989 
    138 H138      -47.6832  -22.8373    9.9977 H         1 UNK         0.1055 
    139 H139      -45.8314  -21.7082   11.1856 H         1 UNK         0.0806 
    140 H140      -45.4953  -21.7867    9.4638 H         1 UNK         0.0806 
    141 H141      -44.6748  -22.8807   10.5773 H         1 UNK         0.0806 
    142 H142      -47.3133  -24.1638    8.3014 H         1 UNK         0.3061 
    143 H143      -44.6599  -25.6800    6.8520 H         1 UNK         0.0734 
    144 H144      -45.8545  -27.8559    6.5988 H         1 UNK         0.0832 
    145 H145      -45.0547  -27.7473    8.1573 H         1 UNK         0.0832 
    146 H146      -46.7949  -27.5218    8.0515 H         1 UNK         0.0832 
    147 H147      -47.6270  -25.6425    6.6659 H         1 UNK         0.3156 
    148 H148      -47.6403  -22.8620    4.4928 H         1 UNK         0.0589 
    149 H149      -47.9931  -25.7647    3.5609 H         1 UNK         0.0808 
    150 H150      -48.6772  -24.3363    2.7818 H         1 UNK         0.0808 
    151 H151      -46.9387  -24.5741    2.8120 H         1 UNK         0.0808 
    152 H152      -49.6564  -24.7900    5.1191 H         1 UNK         0.3098 
    153 H153      -50.5625  -23.5757    8.3063 H         1 UNK         0.0720 
    154 H154      -52.7704  -23.1804    7.2611 H         1 UNK         0.0791 
    155 H155      -52.0492  -23.1890    5.6520 H         1 UNK         0.0791 
    156 H156      -51.6576  -21.9064    6.7905 H         1 UNK         0.0791 
    157 H157      -51.8985  -25.4816    6.7447 H         1 UNK         0.3028 
@<TRIPOS>BOND
     1    1    2 1    
     2    1   82 1    
     3    1   83 1    
     4    1   84 1    
     5    2    3 2    
     6    2    4 am   BACKBONE|DICT|INTERRES
     7    4    5 1    
     8    4   85 1    
     9    5    6 1    
    10    5   80 1    
    11    5   86 1    
    12    6    7 1    
    13    6   87 1    
    14    6   88 1    
    15    7    8 1    
    16    8    9 1    
    17    8   89 1    
    18    8   90 1    
    19    9   10 ar   
    20    9   14 ar   
    21   10   11 ar   
    22   10   91 1    
    23   11   12 ar   
    24   11   58 1    
    25   12   13 ar   
    26   12   92 1    
    27   13   14 ar   
    28   13   15 1    
    29   14   93 1    
    30   15   16 1    
    31   15   94 1    
    32   15   95 1    
    33   16   17 1    
    34   17   18 1    
    35   17   96 1    
    36   17   97 1    
    37   18   19 1    
    38   18   22 1    
    39   18   98 1    
    40   19   20 am   BACKBONE|DICT|INTERRES
    41   19   21 2    
    42   20   99 1    
    43   20  100 1    
    44   22   23 am   BACKBONE|DICT|INTERRES
    45   22  101 1    
    46   23   24 2    
    47   23   25 1    
    48   25   26 1    
    49   25   27 1    
    50   25  102 1    
    51   26  103 1    
    52   26  104 1    
    53   26  105 1    
    54   27   28 am   BACKBONE|DICT|INTERRES
    55   27  106 1    
    56   28   29 2    
    57   28   30 1    
    58   30   31 1    
    59   30   32 1    
    60   30  107 1    
    61   31  108 1    
    62   31  109 1    
    63   31  110 1    
    64   32   33 am   BACKBONE|DICT|INTERRES
    65   32  111 1    
    66   33   34 2    
    67   33   35 1    
    68   35   36 1    
    69   35   37 1    
    70   35  112 1    
    71   36  113 1    
    72   36  114 1    
    73   36  115 1    
    74   37   38 am   BACKBONE|DICT|INTERRES
    75   37  116 1    
    76   38   39 2    
    77   38   40 1    
    78   40   41 1    
    79   40   42 1    
    80   40  117 1    
    81   41  118 1    
    82   41  119 1    
    83   41  120 1    
    84   42   43 am   BACKBONE|DICT|INTERRES
    85   42  121 1    
    86   43   44 2    
    87   43   45 1    
    88   45   46 1    
    89   45   47 1    
    90   45  122 1    
    91   46  123 1    
    92   46  124 1    
    93   46  125 1    
    94   47   48 am   BACKBONE|DICT|INTERRES
    95   47  126 1    
    96   48   49 2    
    97   48   50 1    
    98   50   51 1    
    99   50   52 1    
   100   50  127 1    
   101   51  128 1    
   102   51  129 1    
   103   51  130 1    
   104   52   53 am   BACKBONE|DICT|INTERRES
   105   52  131 1    
   106   53   54 2    
   107   53   55 1    
   108   55   56 1    
   109   55   59 1    
   110   55  132 1    
   111   56   57 1    
   112   56  133 1    
   113   56  134 1    
   114   57   58 1    
   115   58  135 1    
   116   58  136 1    
   117   59   60 am   BACKBONE|DICT|INTERRES
   118   59  137 1    
   119   60   61 2    
   120   60   62 1    
   121   62   63 1    
   122   62   64 1    
   123   62  138 1    
   124   63  139 1    
   125   63  140 1    
   126   63  141 1    
   127   64   65 am   BACKBONE|DICT|INTERRES
   128   64  142 1    
   129   65   66 2    
   130   65   67 1    
   131   67   68 1    
   132   67   69 1    
   133   67  143 1    
   134   68  144 1    
   135   68  145 1    
   136   68  146 1    
   137   69   70 am   BACKBONE|DICT|INTERRES
   138   69  147 1    
   139   70   71 2    
   140   70   72 1    
   141   72   73 1    
   142   72   74 1    
   143   72  148 1    
   144   73  149 1    
   145   73  150 1    
   146   73  151 1    
   147   74   75 am   BACKBONE|DICT|INTERRES
   148   74  152 1    
   149   75   76 2    
   150   75   77 1    
   151   77   78 1    
   152   77   79 1    
   153   77  153 1    
   154   78  154 1    
   155   78  155 1    
   156   78  156 1    
   157   79   80 am   BACKBONE|DICT|INTERRES
   158   79  157 1    
   159   80   81 2    
@<TRIPOS>SUBSTRUCTURE
     1 UNK         1 GROUP             0       ****    0 ROOT    
