@<TRIPOS>MOLECULE
3R207
157   159    1
SMALL
USER_CHARGES


@<TRIPOS>ATOM
      1 CA        -49.8063  -26.4927    4.7054 C.3       0 UNK        -0.1975 
      2 C         -49.5062  -25.2997    5.6001 C.2       0 UNK         0.4852 
      3 O         -48.5966  -24.5205    5.3070 O.2       0 UNK        -0.5216 
      4 N         -50.2813  -25.1510    6.6814 N.am      1 UNK        -0.4461 
      5 CA        -50.2539  -24.0181    7.6117 C.3       1 UNK         0.0864 
      6 C6        -51.3577  -24.1166    8.6942 C.3       14 UNK        -0.0898 
      7 S7        -53.0311  -24.2948    7.9786 S.3       14 UNK        -0.2598 
      8 C8        -53.9110  -25.2683    9.2562 C.3       14 UNK         0.0286 
      9 C9        -53.2341  -26.5838    9.6405 C.ar      14 UNK        -0.0844 
     10 C10       -52.5064  -27.3347    8.7110 C.ar      14 UNK        -0.0881 
     11 C11       -51.8030  -28.4728    9.1084 C.ar      14 UNK        -0.0643 
     12 C12       -51.8939  -28.9092   10.4314 C.ar      14 UNK        -0.0930 
     13 C13       -52.6599  -28.2010   11.3652 C.ar      14 UNK        -0.0827 
     14 C14       -53.3156  -27.0340   10.9614 C.ar      14 UNK        -0.1249 
     15 C15       -52.7320  -28.6239   12.8292 C.3       14 UNK         0.0141 
     16 S16       -52.7362  -30.4274   13.0920 S.3       14 UNK        -0.2313 
     17 C17       -52.9104  -30.4958   14.9061 C.3       14 UNK        -0.0915 
     18 CA        -54.2289  -31.1734   15.3634 C.3       13 UNK         0.0968 
     19 C         -54.3180  -31.2262   16.9153 C.2       13 UNK         0.5732 
     20 N         -55.2915  -30.5814   17.5489 N.am      13 UNK        -0.7310 
     21 O         -53.4936  -31.8742   17.5555 O.2       13 UNK        -0.5035 
     22 N         -55.4172  -30.5805   14.7279 N.am      13 UNK        -0.4233 
     23 C         -56.5246  -31.2549   14.4039 C.2       13 UNK         0.4989 
     24 O         -56.6442  -32.4723   14.5517 O.2       13 UNK        -0.4996 
     25 CA        -57.7120  -30.4711   13.8058 C.3       12 UNK         0.0216 
     26 CB        -58.8550  -30.3565   14.8352 C.3       12 UNK        -0.1964 
     27 N         -57.4145  -29.1534   13.2152 N.am      12 UNK        -0.4276 
     28 C         -56.9713  -28.0472   13.8266 C.2       12 UNK         0.5020 
     29 O         -56.6028  -28.0121   15.0047 O.2       12 UNK        -0.5489 
     30 CA        -56.9350  -26.7658   12.9836 C.3       11 UNK         0.0294 
     31 CB        -58.3611  -26.2823   12.6499 C.3       11 UNK        -0.2019 
     32 N         -56.2253  -25.7541   13.7567 N.am      11 UNK        -0.4493 
     33 C         -55.7427  -24.5887   13.3141 C.2       11 UNK         0.4932 
     34 O         -55.8709  -24.1861   12.1579 O.2       11 UNK        -0.5029 
     35 CA        -54.9778  -23.7233   14.3352 C.3       10 UNK         0.0280 
     36 CB        -55.9187  -22.6848   14.9673 C.3       10 UNK        -0.1976 
     37 N         -54.3245  -24.4988   15.3982 N.am      10 UNK        -0.4242 
     38 C         -53.3156  -25.3538   15.1891 C.2       10 UNK         0.5072 
     39 O         -52.8177  -25.5650   14.0784 O.2       10 UNK        -0.5224 
     40 CA        -52.7830  -26.1149   16.4125 C.3       9 UNK         0.0343 
     41 CB        -53.8086  -27.1327   16.9433 C.3       9 UNK        -0.2003 
     42 N         -51.5818  -26.8054   15.9696 N.am      9 UNK        -0.4272 
     43 C         -50.4900  -27.0994   16.6797 C.2       9 UNK         0.4988 
     44 O         -50.4044  -26.9677   17.9009 O.2       9 UNK        -0.5108 
     45 CA        -49.2763  -27.6121   15.8769 C.3       8 UNK         0.0248 
     46 CB        -49.1626  -29.1407   15.9887 C.3       8 UNK        -0.2001 
     47 N         -49.3342  -27.2415   14.4571 N.am      8 UNK        -0.4140 
     48 C         -49.2068  -26.0017   13.9687 C.2       8 UNK         0.5028 
     49 O         -48.8660  -25.0403   14.6608 O.2       8 UNK        -0.5428 
     50 CA        -49.5530  -25.7994   12.4749 C.3       7 UNK         0.0264 
     51 CB        -49.4993  -24.3110   12.0802 C.3       7 UNK        -0.1988 
     52 N         -48.7131  -26.5571   11.5407 N.am      7 UNK        -0.4454 
     53 C         -48.6148  -27.8917   11.4236 C.2       7 UNK         0.5027 
     54 O         -49.2393  -28.6859   12.1283 O.2       7 UNK        -0.5083 
     55 CA        -47.6369  -28.4510   10.3681 C.3       6 UNK         0.0844 
     56 C56       -48.3366  -29.3378    9.3051 C.3       14 UNK        -0.0967 
     57 S57       -49.2670  -28.4308    8.0195 S.3       14 UNK        -0.2604 
     58 C58       -50.9179  -29.1990    8.1097 C.3       14 UNK         0.0134 
     59 N         -46.7989  -27.4071    9.7701 N.am      6 UNK        -0.4116 
     60 C         -45.6673  -26.9324   10.3089 C.2       5 UNK         0.5034 
     61 O         -45.1752  -27.3648   11.3523 O.2       5 UNK        -0.5045 
     62 CA        -44.9939  -25.7560    9.5782 C.3       5 UNK         0.0224 
     63 CB        -43.4844  -25.6369    9.8775 C.3       5 UNK        -0.1978 
     64 N         -45.2532  -25.7459    8.1344 N.am      5 UNK        -0.4737 
     65 C         -44.8442  -26.6292    7.2116 C.2       4 UNK         0.5027 
     66 O         -44.1561  -27.6195    7.4575 O.2       4 UNK        -0.5211 
     67 CA        -45.2970  -26.3699    5.7627 C.3       4 UNK         0.0297 
     68 CB        -46.4385  -27.3264    5.3917 C.3       4 UNK        -0.1993 
     69 N         -45.7283  -24.9825    5.5502 N.am      4 UNK        -0.4486 
     70 C         -44.8807  -23.9553    5.3920 C.2       3 UNK         0.4961 
     71 O         -43.6612  -24.0814    5.2766 O.2       3 UNK        -0.5105 
     72 CA        -45.4931  -22.5463    5.4154 C.3       3 UNK         0.0299 
     73 CB        -46.1971  -22.2217    4.0877 C.3       3 UNK        -0.1972 
     74 N         -46.4220  -22.3717    6.5362 N.am      3 UNK        -0.4305 
     75 C         -46.0507  -22.2826    7.8244 C.2       2 UNK         0.5006 
     76 O         -44.8787  -22.3126    8.1979 O.2       2 UNK        -0.5106 
     77 CA        -47.1568  -22.1376    8.8876 C.3       2 UNK         0.0296 
     78 CB        -47.2341  -20.6862    9.3890 C.3       2 UNK        -0.2002 
     79 N         -48.4768  -22.5489    8.4083 N.am      2 UNK        -0.4032 
     80 C         -48.8667  -23.8210    8.2577 C.2       1 UNK         0.5000 
     81 O         -48.1866  -24.7949    8.5993 O.2       1 UNK        -0.5238 
     82 H82       -49.5108  -27.4234    5.1873 H         1 UNK         0.0889 
     83 H83       -49.2666  -26.4106    3.7623 H         1 UNK         0.0889 
     84 H84       -50.8709  -26.5462    4.4793 H         1 UNK         0.0889 
     85 H85       -50.9796  -25.8486    6.8843 H         1 UNK         0.3028 
     86 H86       -50.4639  -23.1336    7.0064 H         1 UNK         0.0864 
     87 H87       -51.3616  -23.2249    9.3239 H         1 UNK         0.0720 
     88 H88       -51.1500  -24.9578    9.3562 H         1 UNK         0.0720 
     89 H89       -54.9198  -25.4841    8.9029 H         1 UNK         0.0814 
     90 H90       -54.0224  -24.6365   10.1389 H         1 UNK         0.0814 
     91 H91       -52.4456  -27.0098    7.6831 H         1 UNK         0.1469 
     92 H92       -51.3399  -29.7841   10.7407 H         1 UNK         0.1381 
     93 H93       -53.8714  -26.4564   11.6878 H         1 UNK         0.1206 
     94 H94       -53.6250  -28.2040   13.2952 H         1 UNK         0.0813 
     95 H95       -51.8748  -28.1973   13.3478 H         1 UNK         0.0813 
     96 H96       -52.8264  -29.4917   15.3219 H         1 UNK         0.0638 
     97 H97       -52.0533  -31.0502   15.2922 H         1 UNK         0.0638 
     98 H98       -54.1643  -32.2150   15.0432 H         1 UNK         0.0568 
     99 H99       -55.3409  -30.6291   18.5540 H         1 UNK         0.3450 
    100 H100      -55.9673  -30.0395   17.0340 H         1 UNK         0.3450 
    101 H101      -55.4541  -29.5697   14.6718 H         1 UNK         0.2987 
    102 H102      -58.0798  -31.0812   12.9792 H         1 UNK         0.0766 
    103 H103      -59.7388  -29.8932   14.3967 H         1 UNK         0.0798 
    104 H104      -58.5631  -29.7655   15.7040 H         1 UNK         0.0798 
    105 H105      -59.1543  -31.3402   15.1998 H         1 UNK         0.0798 
    106 H106      -57.6356  -29.0789   12.2312 H         1 UNK         0.3198 
    107 H107      -56.3803  -26.9657   12.0644 H         1 UNK         0.0843 
    108 H108      -58.9346  -26.0736   13.5539 H         1 UNK         0.0831 
    109 H109      -58.9123  -27.0304   12.0793 H         1 UNK         0.0831 
    110 H110      -58.3464  -25.3736   12.0481 H         1 UNK         0.0831 
    111 H111      -56.0553  -26.0382   14.7149 H         1 UNK         0.3133 
    112 H112      -54.1990  -23.1875   13.7881 H         1 UNK         0.0566 
    113 H113      -56.7114  -23.1577   15.5484 H         1 UNK         0.0814 
    114 H114      -55.3770  -22.0052   15.6255 H         1 UNK         0.0814 
    115 H115      -56.3978  -22.0752   14.1997 H         1 UNK         0.0814 
    116 H116      -54.6779  -24.3767   16.3367 H         1 UNK         0.3091 
    117 H117      -52.5252  -25.3949   17.1919 H         1 UNK         0.0702 
    118 H118      -53.3831  -27.7545   17.7314 H         1 UNK         0.0785 
    119 H119      -54.1669  -27.7931   16.1544 H         1 UNK         0.0785 
    120 H120      -54.6807  -26.6317   17.3643 H         1 UNK         0.0785 
    121 H121      -51.5237  -26.8616   14.9605 H         1 UNK         0.2998 
    122 H122      -48.3801  -27.1643   16.3111 H         1 UNK         0.0697 
    123 H123      -50.0184  -29.6425   15.5365 H         1 UNK         0.0825 
    124 H124      -49.1123  -29.4549   17.0322 H         1 UNK         0.0825 
    125 H125      -48.2618  -29.5078   15.4964 H         1 UNK         0.0825 
    126 H126      -49.5086  -27.9857   13.7833 H         1 UNK         0.3029 
    127 H127      -50.5819  -26.1397   12.3385 H         1 UNK         0.0897 
    128 H128      -50.1704  -23.7180   12.7035 H         1 UNK         0.0792 
    129 H129      -49.8061  -24.1580   11.0497 H         1 UNK         0.0792 
    130 H130      -48.4958  -23.8985   12.1922 H         1 UNK         0.0792 
    131 H131      -48.1724  -26.0033   10.8916 H         1 UNK         0.3086 
    132 H132      -46.9798  -29.1217   10.9260 H         1 UNK         0.0583 
    133 H133      -47.5778  -29.9273    8.7883 H         1 UNK         0.1020 
    134 H134      -48.9812  -30.0731    9.7899 H         1 UNK         0.1020 
    135 H135      -51.3749  -29.1574    7.1198 H         1 UNK         0.0694 
    136 H136      -50.8354  -30.2581    8.3578 H         1 UNK         0.0694 
    137 H137      -47.1631  -26.9668    8.9344 H         1 UNK         0.2989 
    138 H138      -45.4715  -24.8579    9.9722 H         1 UNK         0.1055 
    139 H139      -43.3072  -25.4852   10.9430 H         1 UNK         0.0806 
    140 H140      -43.0444  -24.7879    9.3539 H         1 UNK         0.0806 
    141 H141      -42.9390  -26.5340    9.5834 H         1 UNK         0.0806 
    142 H142      -45.8588  -25.0030    7.8132 H         1 UNK         0.3061 
    143 H143      -44.4503  -26.5804    5.1056 H         1 UNK         0.0734 
    144 H144      -46.7953  -27.1505    4.3770 H         1 UNK         0.0832 
    145 H145      -46.1089  -28.3648    5.4454 H         1 UNK         0.0832 
    146 H146      -47.2798  -27.2213    6.0755 H         1 UNK         0.0832 
    147 H147      -46.7291  -24.7939    5.5752 H         1 UNK         0.3156 
    148 H148      -44.6768  -21.8315    5.5407 H         1 UNK         0.0589 
    149 H149      -47.0408  -22.8853    3.8970 H         1 UNK         0.0808 
    150 H150      -46.5682  -21.1968    4.0764 H         1 UNK         0.0808 
    151 H151      -45.5081  -22.3243    3.2482 H         1 UNK         0.0808 
    152 H152      -47.4065  -22.3733    6.3105 H         1 UNK         0.3098 
    153 H153      -46.8836  -22.7719    9.7336 H         1 UNK         0.0720 
    154 H154      -47.9654  -20.5818   10.1908 H         1 UNK         0.0791 
    155 H155      -47.5080  -19.9953    8.5906 H         1 UNK         0.0791 
    156 H156      -46.2722  -20.3590    9.7867 H         1 UNK         0.0791 
    157 H157      -49.1027  -21.8072    8.1269 H         1 UNK         0.3028 
@<TRIPOS>BOND
     1    1    2 1    
     2    1   82 1    
     3    1   83 1    
     4    1   84 1    
     5    2    3 2    
     6    2    4 am   BACKBONE|DICT|INTERRES
     7    4    5 1    
     8    4   85 1    
     9    5    6 1    
    10    5   80 1    
    11    5   86 1    
    12    6    7 1    
    13    6   87 1    
    14    6   88 1    
    15    7    8 1    
    16    8    9 1    
    17    8   89 1    
    18    8   90 1    
    19    9   10 ar   
    20    9   14 ar   
    21   10   11 ar   
    22   10   91 1    
    23   11   12 ar   
    24   11   58 1    
    25   12   13 ar   
    26   12   92 1    
    27   13   14 ar   
    28   13   15 1    
    29   14   93 1    
    30   15   16 1    
    31   15   94 1    
    32   15   95 1    
    33   16   17 1    
    34   17   18 1    
    35   17   96 1    
    36   17   97 1    
    37   18   19 1    
    38   18   22 1    
    39   18   98 1    
    40   19   20 am   BACKBONE|DICT|INTERRES
    41   19   21 2    
    42   20   99 1    
    43   20  100 1    
    44   22   23 am   BACKBONE|DICT|INTERRES
    45   22  101 1    
    46   23   24 2    
    47   23   25 1    
    48   25   26 1    
    49   25   27 1    
    50   25  102 1    
    51   26  103 1    
    52   26  104 1    
    53   26  105 1    
    54   27   28 am   BACKBONE|DICT|INTERRES
    55   27  106 1    
    56   28   29 2    
    57   28   30 1    
    58   30   31 1    
    59   30   32 1    
    60   30  107 1    
    61   31  108 1    
    62   31  109 1    
    63   31  110 1    
    64   32   33 am   BACKBONE|DICT|INTERRES
    65   32  111 1    
    66   33   34 2    
    67   33   35 1    
    68   35   36 1    
    69   35   37 1    
    70   35  112 1    
    71   36  113 1    
    72   36  114 1    
    73   36  115 1    
    74   37   38 am   BACKBONE|DICT|INTERRES
    75   37  116 1    
    76   38   39 2    
    77   38   40 1    
    78   40   41 1    
    79   40   42 1    
    80   40  117 1    
    81   41  118 1    
    82   41  119 1    
    83   41  120 1    
    84   42   43 am   BACKBONE|DICT|INTERRES
    85   42  121 1    
    86   43   44 2    
    87   43   45 1    
    88   45   46 1    
    89   45   47 1    
    90   45  122 1    
    91   46  123 1    
    92   46  124 1    
    93   46  125 1    
    94   47   48 am   BACKBONE|DICT|INTERRES
    95   47  126 1    
    96   48   49 2    
    97   48   50 1    
    98   50   51 1    
    99   50   52 1    
   100   50  127 1    
   101   51  128 1    
   102   51  129 1    
   103   51  130 1    
   104   52   53 am   BACKBONE|DICT|INTERRES
   105   52  131 1    
   106   53   54 2    
   107   53   55 1    
   108   55   56 1    
   109   55   59 1    
   110   55  132 1    
   111   56   57 1    
   112   56  133 1    
   113   56  134 1    
   114   57   58 1    
   115   58  135 1    
   116   58  136 1    
   117   59   60 am   BACKBONE|DICT|INTERRES
   118   59  137 1    
   119   60   61 2    
   120   60   62 1    
   121   62   63 1    
   122   62   64 1    
   123   62  138 1    
   124   63  139 1    
   125   63  140 1    
   126   63  141 1    
   127   64   65 am   BACKBONE|DICT|INTERRES
   128   64  142 1    
   129   65   66 2    
   130   65   67 1    
   131   67   68 1    
   132   67   69 1    
   133   67  143 1    
   134   68  144 1    
   135   68  145 1    
   136   68  146 1    
   137   69   70 am   BACKBONE|DICT|INTERRES
   138   69  147 1    
   139   70   71 2    
   140   70   72 1    
   141   72   73 1    
   142   72   74 1    
   143   72  148 1    
   144   73  149 1    
   145   73  150 1    
   146   73  151 1    
   147   74   75 am   BACKBONE|DICT|INTERRES
   148   74  152 1    
   149   75   76 2    
   150   75   77 1    
   151   77   78 1    
   152   77   79 1    
   153   77  153 1    
   154   78  154 1    
   155   78  155 1    
   156   78  156 1    
   157   79   80 am   BACKBONE|DICT|INTERRES
   158   79  157 1    
   159   80   81 2    
@<TRIPOS>SUBSTRUCTURE
     1 UNK         1 GROUP             0       ****    0 ROOT    
