@<TRIPOS>MOLECULE
3R207
157   159    1
SMALL
USER_CHARGES


@<TRIPOS>ATOM
      1 CA        -49.7946  -27.5257    2.7365 C.3       0 UNK        -0.1975 
      2 C         -50.4211  -27.5112    4.1223 C.2       0 UNK         0.4852 
      3 O         -49.8977  -26.8530    5.0211 O.2       0 UNK        -0.5216 
      4 N         -51.5572  -28.2052    4.2939 N.am      1 UNK        -0.4461 
      5 CA        -52.2797  -28.4194    5.5635 C.3       1 UNK         0.0864 
      6 C6        -51.4771  -29.2859    6.5741 C.3       14 UNK        -0.0898 
      7 S7        -50.9512  -30.8896    5.8729 S.3       14 UNK        -0.2598 
      8 C8        -51.4552  -32.0664    7.1737 C.3       14 UNK         0.0286 
      9 C9        -50.7941  -31.7860    8.5195 C.ar      14 UNK        -0.0844 
     10 C10       -49.4080  -31.6224    8.6157 C.ar      14 UNK        -0.0881 
     11 C11       -48.8076  -31.3359    9.8448 C.ar      14 UNK        -0.0643 
     12 C12       -49.6044  -31.2248   10.9888 C.ar      14 UNK        -0.0930 
     13 C13       -50.9879  -31.4167   10.9130 C.ar      14 UNK        -0.0827 
     14 C14       -51.5741  -31.7033    9.6768 C.ar      14 UNK        -0.1249 
     15 C15       -51.8410  -31.3478   12.1727 C.3       14 UNK         0.0141 
     16 S16       -52.6493  -29.7263   12.3710 S.3       14 UNK        -0.2313 
     17 C17       -54.1694  -29.9315   11.3823 C.3       14 UNK        -0.0915 
     18 CA        -54.1298  -29.1529   10.0352 C.3       13 UNK         0.0968 
     19 C         -55.3165  -29.4905    9.0847 C.2       13 UNK         0.5732 
     20 N         -55.5393  -28.7004    8.0417 N.am      13 UNK        -0.7310 
     21 O         -56.0287  -30.4744    9.2722 O.2       13 UNK        -0.5035 
     22 N         -53.9088  -27.7050   10.1833 N.am      13 UNK        -0.4233 
     23 C         -54.7153  -26.8426   10.8126 C.2       13 UNK         0.4989 
     24 O         -55.7372  -27.1567   11.4284 O.2       13 UNK        -0.4996 
     25 CA        -54.3466  -25.3576   10.6666 C.3       12 UNK         0.0216 
     26 CB        -55.0571  -24.7525    9.4455 C.3       12 UNK        -0.1964 
     27 N         -54.7021  -24.5788   11.8541 N.am      12 UNK        -0.4276 
     28 C         -54.0773  -24.6651   13.0331 C.2       12 UNK         0.5020 
     29 O         -53.1169  -25.4065   13.2600 O.2       12 UNK        -0.5489 
     30 CA        -54.5876  -23.7463   14.1472 C.3       11 UNK         0.0294 
     31 CB        -55.6235  -24.4607   15.0315 C.3       11 UNK        -0.2019 
     32 N         -53.4281  -23.3705   14.9437 N.am      11 UNK        -0.4493 
     33 C         -53.2370  -22.2117   15.5827 C.2       11 UNK         0.4932 
     34 O         -54.0861  -21.3213   15.6463 O.2       11 UNK        -0.5029 
     35 CA        -51.8488  -22.0017   16.2268 C.3       10 UNK         0.0280 
     36 CB        -51.8834  -21.0320   17.4277 C.3       10 UNK        -0.1976 
     37 N         -51.1684  -23.2600   16.5691 N.am      10 UNK        -0.4242 
     38 C         -51.5542  -24.1739   17.4747 C.2       10 UNK         0.5072 
     39 O         -52.5208  -24.0337   18.2249 O.2       10 UNK        -0.5224 
     40 CA        -50.7583  -25.4905   17.5323 C.3       9 UNK         0.0343 
     41 CB        -51.6531  -26.6723   17.1176 C.3       9 UNK        -0.2003 
     42 N         -49.5736  -25.4909   16.6711 N.am      9 UNK        -0.4272 
     43 C         -48.3436  -25.0995   17.0336 C.2       9 UNK         0.4988 
     44 O         -48.0745  -24.6257   18.1383 O.2       9 UNK        -0.5108 
     45 CA        -47.2392  -25.2619   15.9679 C.3       8 UNK         0.0248 
     46 CB        -45.8184  -25.3499   16.5640 C.3       8 UNK        -0.2001 
     47 N         -47.5140  -26.3737   15.0474 N.am      8 UNK        -0.4140 
     48 C         -47.5710  -27.6836   15.3400 C.2       8 UNK         0.5028 
     49 O         -47.2564  -28.1668   16.4278 O.2       8 UNK        -0.5428 
     50 CA        -48.1236  -28.6122   14.2477 C.3       7 UNK         0.0264 
     51 CB        -49.6414  -28.7753   14.4188 C.3       7 UNK        -0.1988 
     52 N         -47.8469  -28.1151   12.8992 N.am      7 UNK        -0.4454 
     53 C         -46.7389  -28.4071   12.2030 C.2       7 UNK         0.5027 
     54 O         -45.8614  -29.1756   12.5991 O.2       7 UNK        -0.5083 
     55 CA        -46.5719  -27.6853   10.8488 C.3       6 UNK         0.0844 
     56 C56       -47.4382  -28.3398    9.7410 C.3       14 UNK        -0.0967 
     57 S57       -46.6424  -29.7880    8.9681 S.3       14 UNK        -0.2604 
     58 C58       -47.2952  -31.1843    9.9440 C.3       14 UNK         0.0134 
     59 N         -46.8422  -26.2495   10.9820 N.am      6 UNK        -0.4116 
     60 C         -46.1199  -25.4070   11.7406 C.2       5 UNK         0.5034 
     61 O         -45.0817  -25.7305   12.3174 O.2       5 UNK        -0.5045 
     62 CA        -46.6296  -23.9627   11.9128 C.3       5 UNK         0.0224 
     63 CB        -45.7491  -22.9859   11.1160 C.3       5 UNK        -0.1978 
     64 N         -48.0273  -23.7579   11.5274 N.am      5 UNK        -0.4737 
     65 C         -49.0994  -24.3224   12.1004 C.2       4 UNK         0.5027 
     66 O         -49.0403  -25.0696   13.0774 O.2       4 UNK        -0.5211 
     67 CA        -50.4546  -24.0471   11.4245 C.3       4 UNK         0.0297 
     68 CB        -51.1292  -22.8299   12.0748 C.3       4 UNK        -0.1993 
     69 N         -50.3519  -23.8265    9.9751 N.am      4 UNK        -0.4486 
     70 C         -49.8421  -24.7013    9.0976 C.2       3 UNK         0.4961 
     71 O         -49.4596  -25.8314    9.4050 O.2       3 UNK        -0.5105 
     72 CA        -49.6843  -24.2061    7.6516 C.3       3 UNK         0.0299 
     73 CB        -48.3696  -24.7087    7.0288 C.3       3 UNK        -0.1972 
     74 N         -50.8096  -24.6266    6.8201 N.am      3 UNK        -0.4305 
     75 C         -52.0400  -24.0926    6.8783 C.2       2 UNK         0.5006 
     76 O         -52.3398  -23.1621    7.6278 O.2       2 UNK        -0.5106 
     77 CA        -53.1206  -24.6606    5.9357 C.3       2 UNK         0.0296 
     78 CB        -53.3142  -23.7321    4.7257 C.3       2 UNK        -0.2002 
     79 N         -52.8317  -26.0127    5.4561 N.am      2 UNK        -0.4032 
     80 C         -52.7971  -27.1141    6.2196 C.2       1 UNK         0.5000 
     81 O         -53.1524  -27.1201    7.4001 O.2       1 UNK        -0.5238 
     82 H82       -49.7293  -26.5116    2.3434 H         1 UNK         0.0889 
     83 H83       -50.3708  -28.1272    2.0338 H         1 UNK         0.0889 
     84 H84       -48.7869  -27.9369    2.7880 H         1 UNK         0.0889 
     85 H85       -51.9394  -28.7070    3.5038 H         1 UNK         0.3028 
     86 H86       -53.1799  -28.9778    5.3020 H         1 UNK         0.0864 
     87 H87       -50.5880  -28.7558    6.9209 H         1 UNK         0.0720 
     88 H88       -52.0769  -29.4794    7.4636 H         1 UNK         0.0720 
     89 H89       -51.1928  -33.0765    6.8567 H         1 UNK         0.0814 
     90 H90       -52.5427  -32.0432    7.2619 H         1 UNK         0.0814 
     91 H91       -48.7941  -31.7044    7.7290 H         1 UNK         0.1469 
     92 H92       -49.1442  -31.0088   11.9432 H         1 UNK         0.1381 
     93 H93       -52.6422  -31.8589    9.6167 H         1 UNK         0.1206 
     94 H94       -52.5846  -32.1458   12.1696 H         1 UNK         0.0813 
     95 H95       -51.2203  -31.5327   13.0504 H         1 UNK         0.0813 
     96 H96       -55.0163  -29.6101   11.9892 H         1 UNK         0.0638 
     97 H97       -54.3285  -30.9953   11.2024 H         1 UNK         0.0638 
     98 H98       -53.2538  -29.5090    9.4969 H         1 UNK         0.0568 
     99 H99       -56.3031  -28.9023    7.4170 H         1 UNK         0.3450 
    100 H100      -54.9031  -27.9352    7.8506 H         1 UNK         0.3450 
    101 H101      -53.1588  -27.3350    9.6136 H         1 UNK         0.2987 
    102 H102      -53.2678  -25.2784   10.5140 H         1 UNK         0.0766 
    103 H103      -54.7129  -23.7371    9.2475 H         1 UNK         0.0798 
    104 H104      -56.1394  -24.7253    9.5788 H         1 UNK         0.0798 
    105 H105      -54.8600  -25.3416    8.5506 H         1 UNK         0.0798 
    106 H106      -55.5067  -23.9746   11.7708 H         1 UNK         0.3198 
    107 H107      -55.0322  -22.8537   13.7013 H         1 UNK         0.0843 
    108 H108      -55.2080  -25.3593   15.4899 H         1 UNK         0.0831 
    109 H109      -56.4940  -24.7631   14.4481 H         1 UNK         0.0831 
    110 H110      -55.9770  -23.8103   15.8317 H         1 UNK         0.0831 
    111 H111      -52.6737  -24.0438   14.8911 H         1 UNK         0.3133 
    112 H112      -51.2348  -21.5354   15.4550 H         1 UNK         0.0566 
    113 H113      -50.8925  -20.9024   17.8627 H         1 UNK         0.0814 
    114 H114      -52.2330  -20.0450   17.1227 H         1 UNK         0.0814 
    115 H115      -52.5529  -21.3814   18.2141 H         1 UNK         0.0814 
    116 H116      -50.3521  -23.4797   16.0165 H         1 UNK         0.3091 
    117 H117      -50.4514  -25.6411   18.5694 H         1 UNK         0.0702 
    118 H118      -51.1215  -27.6202   17.2030 H         1 UNK         0.0785 
    119 H119      -52.0040  -26.5750   16.0889 H         1 UNK         0.0785 
    120 H120      -52.5348  -26.7408   17.7565 H         1 UNK         0.0785 
    121 H121      -49.6975  -25.8484   15.7344 H         1 UNK         0.2998 
    122 H122      -47.2799  -24.3571   15.3601 H         1 UNK         0.0697 
    123 H123      -45.7192  -26.1832   17.2598 H         1 UNK         0.0825 
    124 H124      -45.5688  -24.4408   17.1122 H         1 UNK         0.0825 
    125 H125      -45.0687  -25.4728   15.7822 H         1 UNK         0.0825 
    126 H126      -47.8743  -26.0799   14.1430 H         1 UNK         0.3029 
    127 H127      -47.6608  -29.5929   14.3807 H         1 UNK         0.0897 
    128 H128      -50.0327  -29.5070   13.7154 H         1 UNK         0.0792 
    129 H129      -49.8893  -29.1284   15.4208 H         1 UNK         0.0792 
    130 H130      -50.1768  -27.8385   14.2578 H         1 UNK         0.0792 
    131 H131      -48.5085  -27.4568   12.5099 H         1 UNK         0.3086 
    132 H132      -45.5225  -27.7715   10.5581 H         1 UNK         0.0583 
    133 H133      -48.4439  -28.5838   10.0891 H         1 UNK         0.1020 
    134 H134      -47.5870  -27.6278    8.9278 H         1 UNK         0.1020 
    135 H135      -46.8300  -32.1028    9.5837 H         1 UNK         0.0694 
    136 H136      -46.9811  -31.0789   10.9825 H         1 UNK         0.0694 
    137 H137      -47.6843  -25.9082   10.5319 H         1 UNK         0.2989 
    138 H138      -46.5398  -23.7197   12.9736 H         1 UNK         0.1055 
    139 H139      -44.7003  -23.0816   11.4015 H         1 UNK         0.0806 
    140 H140      -46.0369  -21.9504   11.2994 H         1 UNK         0.0806 
    141 H141      -45.8119  -23.1686   10.0425 H         1 UNK         0.0806 
    142 H142      -48.1889  -23.1593   10.7306 H         1 UNK         0.3061 
    143 H143      -51.0801  -24.9269   11.5845 H         1 UNK         0.0734 
    144 H144      -52.1327  -22.6727   11.6791 H         1 UNK         0.0832 
    145 H145      -51.2234  -22.9704   13.1515 H         1 UNK         0.0832 
    146 H146      -50.5574  -21.9149   11.9158 H         1 UNK         0.0832 
    147 H147      -50.6951  -22.9434    9.6213 H         1 UNK         0.3156 
    148 H148      -49.6463  -23.1146    7.6579 H         1 UNK         0.0589 
    149 H149      -48.3372  -25.7977    6.9721 H         1 UNK         0.0808 
    150 H150      -48.2346  -24.3200    6.0194 H         1 UNK         0.0808 
    151 H151      -47.5099  -24.3886    7.6189 H         1 UNK         0.0808 
    152 H152      -50.6334  -25.4072    6.1935 H         1 UNK         0.3098 
    153 H153      -54.0593  -24.6921    6.4899 H         1 UNK         0.0720 
    154 H154      -52.4110  -23.6669    4.1176 H         1 UNK         0.0791 
    155 H155      -53.5644  -22.7199    5.0469 H         1 UNK         0.0791 
    156 H156      -54.1273  -24.0765    4.0862 H         1 UNK         0.0791 
    157 H157      -52.5288  -26.0997    4.4971 H         1 UNK         0.3028 
@<TRIPOS>BOND
     1    1    2 1    
     2    1   82 1    
     3    1   83 1    
     4    1   84 1    
     5    2    3 2    
     6    2    4 am   BACKBONE|DICT|INTERRES
     7    4    5 1    
     8    4   85 1    
     9    5    6 1    
    10    5   80 1    
    11    5   86 1    
    12    6    7 1    
    13    6   87 1    
    14    6   88 1    
    15    7    8 1    
    16    8    9 1    
    17    8   89 1    
    18    8   90 1    
    19    9   10 ar   
    20    9   14 ar   
    21   10   11 ar   
    22   10   91 1    
    23   11   12 ar   
    24   11   58 1    
    25   12   13 ar   
    26   12   92 1    
    27   13   14 ar   
    28   13   15 1    
    29   14   93 1    
    30   15   16 1    
    31   15   94 1    
    32   15   95 1    
    33   16   17 1    
    34   17   18 1    
    35   17   96 1    
    36   17   97 1    
    37   18   19 1    
    38   18   22 1    
    39   18   98 1    
    40   19   20 am   BACKBONE|DICT|INTERRES
    41   19   21 2    
    42   20   99 1    
    43   20  100 1    
    44   22   23 am   BACKBONE|DICT|INTERRES
    45   22  101 1    
    46   23   24 2    
    47   23   25 1    
    48   25   26 1    
    49   25   27 1    
    50   25  102 1    
    51   26  103 1    
    52   26  104 1    
    53   26  105 1    
    54   27   28 am   BACKBONE|DICT|INTERRES
    55   27  106 1    
    56   28   29 2    
    57   28   30 1    
    58   30   31 1    
    59   30   32 1    
    60   30  107 1    
    61   31  108 1    
    62   31  109 1    
    63   31  110 1    
    64   32   33 am   BACKBONE|DICT|INTERRES
    65   32  111 1    
    66   33   34 2    
    67   33   35 1    
    68   35   36 1    
    69   35   37 1    
    70   35  112 1    
    71   36  113 1    
    72   36  114 1    
    73   36  115 1    
    74   37   38 am   BACKBONE|DICT|INTERRES
    75   37  116 1    
    76   38   39 2    
    77   38   40 1    
    78   40   41 1    
    79   40   42 1    
    80   40  117 1    
    81   41  118 1    
    82   41  119 1    
    83   41  120 1    
    84   42   43 am   BACKBONE|DICT|INTERRES
    85   42  121 1    
    86   43   44 2    
    87   43   45 1    
    88   45   46 1    
    89   45   47 1    
    90   45  122 1    
    91   46  123 1    
    92   46  124 1    
    93   46  125 1    
    94   47   48 am   BACKBONE|DICT|INTERRES
    95   47  126 1    
    96   48   49 2    
    97   48   50 1    
    98   50   51 1    
    99   50   52 1    
   100   50  127 1    
   101   51  128 1    
   102   51  129 1    
   103   51  130 1    
   104   52   53 am   BACKBONE|DICT|INTERRES
   105   52  131 1    
   106   53   54 2    
   107   53   55 1    
   108   55   56 1    
   109   55   59 1    
   110   55  132 1    
   111   56   57 1    
   112   56  133 1    
   113   56  134 1    
   114   57   58 1    
   115   58  135 1    
   116   58  136 1    
   117   59   60 am   BACKBONE|DICT|INTERRES
   118   59  137 1    
   119   60   61 2    
   120   60   62 1    
   121   62   63 1    
   122   62   64 1    
   123   62  138 1    
   124   63  139 1    
   125   63  140 1    
   126   63  141 1    
   127   64   65 am   BACKBONE|DICT|INTERRES
   128   64  142 1    
   129   65   66 2    
   130   65   67 1    
   131   67   68 1    
   132   67   69 1    
   133   67  143 1    
   134   68  144 1    
   135   68  145 1    
   136   68  146 1    
   137   69   70 am   BACKBONE|DICT|INTERRES
   138   69  147 1    
   139   70   71 2    
   140   70   72 1    
   141   72   73 1    
   142   72   74 1    
   143   72  148 1    
   144   73  149 1    
   145   73  150 1    
   146   73  151 1    
   147   74   75 am   BACKBONE|DICT|INTERRES
   148   74  152 1    
   149   75   76 2    
   150   75   77 1    
   151   77   78 1    
   152   77   79 1    
   153   77  153 1    
   154   78  154 1    
   155   78  155 1    
   156   78  156 1    
   157   79   80 am   BACKBONE|DICT|INTERRES
   158   79  157 1    
   159   80   81 2    
@<TRIPOS>SUBSTRUCTURE
     1 UNK         1 GROUP             0       ****    0 ROOT    
