@<TRIPOS>MOLECULE
3R207
157   159    1
SMALL
USER_CHARGES


@<TRIPOS>ATOM
      1 CA        -48.2784  -33.2801    4.3089 C.3       0 UNK        -0.1975 
      2 C         -47.9051  -31.8125    4.1584 C.2       0 UNK         0.4852 
      3 O         -46.7202  -31.4892    4.0598 O.2       0 UNK        -0.5216 
      4 N         -48.9067  -30.9247    4.1293 N.am      1 UNK        -0.4461 
      5 CA        -48.7396  -29.4695    4.0767 C.3       1 UNK         0.0864 
      6 C6        -50.0316  -28.7630    3.5845 C.3       14 UNK        -0.0898 
      7 S7        -51.5332  -29.1829    4.5400 S.3       14 UNK        -0.2598 
      8 C8        -51.7260  -27.6792    5.5417 C.3       14 UNK         0.0286 
      9 C9        -52.5029  -27.9604    6.8154 C.ar      14 UNK        -0.0844 
     10 C10       -51.8374  -28.4712    7.9328 C.ar      14 UNK        -0.0881 
     11 C11       -52.5292  -28.7280    9.1211 C.ar      14 UNK        -0.0643 
     12 C12       -53.9022  -28.4691    9.1781 C.ar      14 UNK        -0.0930 
     13 C13       -54.5844  -27.9761    8.0592 C.ar      14 UNK        -0.0827 
     14 C14       -53.8773  -27.7163    6.8814 C.ar      14 UNK        -0.1249 
     15 C15       -56.0877  -27.7473    8.1221 C.3       14 UNK         0.0141 
     16 S16       -56.9749  -29.3375    8.1891 S.3       14 UNK        -0.2313 
     17 C17       -58.4350  -28.9396    9.2160 C.3       14 UNK        -0.0915 
     18 CA        -58.2287  -29.2034   10.7348 C.3       13 UNK         0.0968 
     19 C         -57.9989  -30.7137   11.0490 C.2       13 UNK         0.5732 
     20 N         -56.8410  -31.1248   11.5518 N.am      13 UNK        -0.7310 
     21 O         -58.8976  -31.5251   10.8387 O.2       13 UNK        -0.5035 
     22 N         -57.2521  -28.2548   11.2920 N.am      13 UNK        -0.4233 
     23 C         -56.9915  -28.0404   12.5846 C.2       13 UNK         0.4989 
     24 O         -57.5087  -28.6551   13.5198 O.2       13 UNK        -0.4996 
     25 CA        -55.9999  -26.9125   12.8769 C.3       12 UNK         0.0216 
     26 CB        -56.7383  -25.5785   13.0981 C.3       12 UNK        -0.1964 
     27 N         -55.2130  -27.2633   14.0547 N.am      12 UNK        -0.4276 
     28 C         -54.0141  -26.7496   14.3424 C.2       12 UNK         0.5020 
     29 O         -53.4553  -25.8954   13.6501 O.2       12 UNK        -0.5489 
     30 CA        -53.3047  -27.3110   15.5814 C.3       11 UNK         0.0294 
     31 CB        -52.3993  -28.4896   15.1848 C.3       11 UNK        -0.2019 
     32 N         -52.4747  -26.2656   16.1732 N.am      11 UNK        -0.4493 
     33 C         -52.7511  -25.5916   17.2954 C.2       11 UNK         0.4932 
     34 O         -53.7257  -25.8291   18.0119 O.2       11 UNK        -0.5029 
     35 CA        -51.7789  -24.4534   17.6696 C.3       10 UNK         0.0280 
     36 CB        -51.9254  -23.9807   19.1319 C.3       10 UNK        -0.1976 
     37 N         -50.3813  -24.7658   17.3494 N.am      10 UNK        -0.4242 
     38 C         -49.6204  -25.7485   17.8576 C.2       10 UNK         0.5072 
     39 O         -49.9861  -26.4993   18.7634 O.2       10 UNK        -0.5224 
     40 CA        -48.2169  -25.9573   17.2502 C.3       9 UNK         0.0343 
     41 CB        -48.1384  -27.3184   16.5371 C.3       9 UNK        -0.2003 
     42 N         -47.8148  -24.9091   16.3077 N.am      9 UNK        -0.4272 
     43 C         -47.3938  -23.6844   16.6522 C.2       9 UNK         0.4988 
     44 O         -47.2251  -23.3212   17.8166 O.2       9 UNK        -0.5108 
     45 CA        -47.1542  -22.6824   15.5073 C.3       8 UNK         0.0248 
     46 CB        -45.7316  -22.8321   14.9457 C.3       8 UNK        -0.2001 
     47 N         -48.1336  -22.7959   14.4195 N.am      8 UNK        -0.4140 
     48 C         -49.4513  -22.5820   14.5591 C.2       8 UNK         0.5028 
     49 O         -49.9770  -22.2245   15.6133 O.2       8 UNK        -0.5428 
     50 CA        -50.3473  -22.8692   13.3421 C.3       7 UNK         0.0264 
     51 CB        -50.2940  -21.7102   12.3346 C.3       7 UNK        -0.1988 
     52 N         -50.0220  -24.1309   12.6721 N.am      7 UNK        -0.4454 
     53 C         -50.0682  -25.3374   13.2578 C.2       7 UNK         0.5027 
     54 O         -50.4063  -25.5154   14.4270 O.2       7 UNK        -0.5083 
     55 CA        -49.5833  -26.5437   12.4319 C.3       6 UNK         0.0844 
     56 C56       -50.6676  -27.0257   11.4402 C.3       14 UNK        -0.0967 
     57 S57       -50.1942  -28.6108   10.6780 S.3       14 UNK        -0.2604 
     58 C58       -51.8207  -29.3523   10.3203 C.3       14 UNK         0.0134 
     59 N         -48.2984  -26.2624   11.7837 N.am      6 UNK        -0.4116 
     60 C         -47.1639  -25.9756   12.4392 C.2       5 UNK         0.5034 
     61 O         -47.0511  -25.9946   13.6645 O.2       5 UNK        -0.5045 
     62 CA        -45.9693  -25.5270   11.5866 C.3       5 UNK         0.0224 
     63 CB        -45.2074  -26.7355   11.0201 C.3       5 UNK        -0.1978 
     64 N         -46.3897  -24.6348   10.5032 N.am      5 UNK        -0.4737 
     65 C         -46.8133  -23.3770   10.6976 C.2       4 UNK         0.5027 
     66 O         -46.8421  -22.8318   11.8003 O.2       4 UNK        -0.5211 
     67 CA        -47.3247  -22.6085    9.4672 C.3       4 UNK         0.0297 
     68 CB        -46.1597  -21.9150    8.7443 C.3       4 UNK        -0.1993 
     69 N         -48.0544  -23.4566    8.5219 N.am      4 UNK        -0.4486 
     70 C         -49.2153  -24.0722    8.7894 C.2       3 UNK         0.4961 
     71 O         -49.8224  -23.9551    9.8526 O.2       3 UNK        -0.5105 
     72 CA        -49.7718  -25.0107    7.7034 C.3       3 UNK         0.0299 
     73 CB        -50.6752  -24.2224    6.7413 C.3       3 UNK        -0.1972 
     74 N         -48.7341  -25.7203    6.9424 N.am      3 UNK        -0.4305 
     75 C         -47.8058  -26.5269    7.4799 C.2       2 UNK         0.5006 
     76 O         -47.7141  -26.7454    8.6894 O.2       2 UNK        -0.5106 
     77 CA        -46.7945  -27.1484    6.4969 C.3       2 UNK         0.0296 
     78 CB        -45.7638  -28.0629    7.1948 C.3       2 UNK        -0.2002 
     79 N         -47.4349  -27.8416    5.3693 N.am      2 UNK        -0.4032 
     80 C         -48.2381  -28.9161    5.4308 C.2       1 UNK         0.5000 
     81 O         -48.5890  -29.4592    6.4816 O.2       1 UNK        -0.5238 
     82 H82       -47.9100  -33.8507    3.4567 H         1 UNK         0.0889 
     83 H83       -49.3573  -33.4217    4.3711 H         1 UNK         0.0889 
     84 H84       -47.8301  -33.6897    5.2137 H         1 UNK         0.0889 
     85 H85       -49.8592  -31.2377    4.2539 H         1 UNK         0.3028 
     86 H86       -47.9613  -29.2649    3.3376 H         1 UNK         0.0864 
     87 H87       -49.8964  -27.6802    3.5552 H         1 UNK         0.0720 
     88 H88       -50.2201  -29.0531    2.5497 H         1 UNK         0.0720 
     89 H89       -52.2195  -26.9086    4.9476 H         1 UNK         0.0814 
     90 H90       -50.7448  -27.2875    5.8067 H         1 UNK         0.0814 
     91 H91       -50.7775  -28.6812    7.8710 H         1 UNK         0.1469 
     92 H92       -54.4503  -28.6862   10.0839 H         1 UNK         0.1381 
     93 H93       -54.3967  -27.3364    6.0121 H         1 UNK         0.1206 
     94 H94       -56.3182  -27.1295    8.9888 H         1 UNK         0.0813 
     95 H95       -56.4348  -27.1873    7.2522 H         1 UNK         0.0813 
     96 H96       -58.7204  -27.9000    9.0472 H         1 UNK         0.0638 
     97 H97       -59.2737  -29.5320    8.8461 H         1 UNK         0.0638 
     98 H98       -59.1749  -28.9625   11.2228 H         1 UNK         0.0568 
     99 H99       -56.7118  -32.1036   11.7527 H         1 UNK         0.3450 
    100 H100      -56.1024  -30.4683   11.7387 H         1 UNK         0.3450 
    101 H101      -56.7693  -27.6945   10.6088 H         1 UNK         0.2987 
    102 H102      -55.3262  -26.8122   12.0223 H         1 UNK         0.0766 
    103 H103      -56.0390  -24.7577   13.2588 H         1 UNK         0.0798 
    104 H104      -57.4022  -25.6256   13.9623 H         1 UNK         0.0798 
    105 H105      -57.3468  -25.3172   12.2314 H         1 UNK         0.0798 
    106 H106      -55.6191  -27.9865   14.6365 H         1 UNK         0.3198 
    107 H107      -54.0514  -27.6613   16.2972 H         1 UNK         0.0843 
    108 H108      -51.6477  -28.1926   14.4520 H         1 UNK         0.0831 
    109 H109      -52.9804  -29.3018   14.7465 H         1 UNK         0.0831 
    110 H110      -51.8766  -28.8946   16.0515 H         1 UNK         0.0831 
    111 H111      -51.6991  -25.9481   15.5901 H         1 UNK         0.3133 
    112 H112      -52.0465  -23.6125   17.0283 H         1 UNK         0.0566 
    113 H113      -51.2333  -23.1693   19.3570 H         1 UNK         0.0814 
    114 H114      -52.9326  -23.6083   19.3225 H         1 UNK         0.0814 
    115 H115      -51.7395  -24.7880   19.8408 H         1 UNK         0.0814 
    116 H116      -49.9883  -24.2169   16.5937 H         1 UNK         0.3091 
    117 H117      -47.5051  -25.9671   18.0781 H         1 UNK         0.0702 
    118 H118      -48.3753  -28.1348   17.2204 H         1 UNK         0.0785 
    119 H119      -48.8397  -27.3768   15.7041 H         1 UNK         0.0785 
    120 H120      -47.1382  -27.5040   16.1452 H         1 UNK         0.0785 
    121 H121      -47.8644  -25.1475   15.3217 H         1 UNK         0.2998 
    122 H122      -47.2480  -21.6784   15.9262 H         1 UNK         0.0697 
    123 H123      -45.5785  -23.8104   14.4896 H         1 UNK         0.0825 
    124 H124      -44.9862  -22.7191   15.7341 H         1 UNK         0.0825 
    125 H125      -45.5216  -22.0747   14.1902 H         1 UNK         0.0825 
    126 H126      -47.7694  -23.0310   13.4994 H         1 UNK         0.3029 
    127 H127      -51.3740  -22.9555   13.7049 H         1 UNK         0.0897 
    128 H128      -50.9793  -21.8760   11.5031 H         1 UNK         0.0792 
    129 H129      -49.2938  -21.5786   11.9221 H         1 UNK         0.0792 
    130 H130      -50.5784  -20.7694   12.8076 H         1 UNK         0.0792 
    131 H131      -49.7814  -24.0744   11.6836 H         1 UNK         0.3086 
    132 H132      -49.4055  -27.3534   13.1432 H         1 UNK         0.0583 
    133 H133      -51.6214  -27.1543   11.9560 H         1 UNK         0.1020 
    134 H134      -50.8437  -26.2913   10.6532 H         1 UNK         0.1020 
    135 H135      -51.6745  -30.4128   10.1120 H         1 UNK         0.0694 
    136 H136      -52.4426  -29.2995   11.2153 H         1 UNK         0.0694 
    137 H137      -48.2871  -26.2656   10.7703 H         1 UNK         0.2989 
    138 H138      -45.2875  -24.9734   12.2364 H         1 UNK         0.1055 
    139 H139      -44.8159  -27.3564   11.8270 H         1 UNK         0.0806 
    140 H140      -44.3587  -26.4224   10.4120 H         1 UNK         0.0806 
    141 H141      -45.8456  -27.3716   10.4067 H         1 UNK         0.0806 
    142 H142      -46.4720  -25.0436    9.5820 H         1 UNK         0.3061 
    143 H143      -48.0121  -21.8377    9.8215 H         1 UNK         0.0734 
    144 H144      -46.5147  -21.2966    7.9197 H         1 UNK         0.0832 
    145 H145      -45.6146  -21.2601    9.4258 H         1 UNK         0.0832 
    146 H146      -45.4444  -22.6342    8.3433 H         1 UNK         0.0832 
    147 H147      -47.6316  -23.6053    7.6175 H         1 UNK         0.3156 
    148 H148      -50.3812  -25.7661    8.2039 H         1 UNK         0.0589 
    149 H149      -50.1176  -23.4622    6.1929 H         1 UNK         0.0808 
    150 H150      -51.1579  -24.8729    6.0138 H         1 UNK         0.0808 
    151 H151      -51.4698  -23.7115    7.2873 H         1 UNK         0.0808 
    152 H152      -48.7257  -25.5766    5.9430 H         1 UNK         0.3098 
    153 H153      -46.2408  -26.3129    6.0660 H         1 UNK         0.0720 
    154 H154      -45.0520  -28.4772    6.4809 H         1 UNK         0.0791 
    155 H155      -46.2430  -28.8951    7.7119 H         1 UNK         0.0791 
    156 H156      -45.1903  -27.5076    7.9376 H         1 UNK         0.0791 
    157 H157      -47.2154  -27.4678    4.4558 H         1 UNK         0.3028 
@<TRIPOS>BOND
     1    1    2 1    
     2    1   82 1    
     3    1   83 1    
     4    1   84 1    
     5    2    3 2    
     6    2    4 am   BACKBONE|DICT|INTERRES
     7    4    5 1    
     8    4   85 1    
     9    5    6 1    
    10    5   80 1    
    11    5   86 1    
    12    6    7 1    
    13    6   87 1    
    14    6   88 1    
    15    7    8 1    
    16    8    9 1    
    17    8   89 1    
    18    8   90 1    
    19    9   10 ar   
    20    9   14 ar   
    21   10   11 ar   
    22   10   91 1    
    23   11   12 ar   
    24   11   58 1    
    25   12   13 ar   
    26   12   92 1    
    27   13   14 ar   
    28   13   15 1    
    29   14   93 1    
    30   15   16 1    
    31   15   94 1    
    32   15   95 1    
    33   16   17 1    
    34   17   18 1    
    35   17   96 1    
    36   17   97 1    
    37   18   19 1    
    38   18   22 1    
    39   18   98 1    
    40   19   20 am   BACKBONE|DICT|INTERRES
    41   19   21 2    
    42   20   99 1    
    43   20  100 1    
    44   22   23 am   BACKBONE|DICT|INTERRES
    45   22  101 1    
    46   23   24 2    
    47   23   25 1    
    48   25   26 1    
    49   25   27 1    
    50   25  102 1    
    51   26  103 1    
    52   26  104 1    
    53   26  105 1    
    54   27   28 am   BACKBONE|DICT|INTERRES
    55   27  106 1    
    56   28   29 2    
    57   28   30 1    
    58   30   31 1    
    59   30   32 1    
    60   30  107 1    
    61   31  108 1    
    62   31  109 1    
    63   31  110 1    
    64   32   33 am   BACKBONE|DICT|INTERRES
    65   32  111 1    
    66   33   34 2    
    67   33   35 1    
    68   35   36 1    
    69   35   37 1    
    70   35  112 1    
    71   36  113 1    
    72   36  114 1    
    73   36  115 1    
    74   37   38 am   BACKBONE|DICT|INTERRES
    75   37  116 1    
    76   38   39 2    
    77   38   40 1    
    78   40   41 1    
    79   40   42 1    
    80   40  117 1    
    81   41  118 1    
    82   41  119 1    
    83   41  120 1    
    84   42   43 am   BACKBONE|DICT|INTERRES
    85   42  121 1    
    86   43   44 2    
    87   43   45 1    
    88   45   46 1    
    89   45   47 1    
    90   45  122 1    
    91   46  123 1    
    92   46  124 1    
    93   46  125 1    
    94   47   48 am   BACKBONE|DICT|INTERRES
    95   47  126 1    
    96   48   49 2    
    97   48   50 1    
    98   50   51 1    
    99   50   52 1    
   100   50  127 1    
   101   51  128 1    
   102   51  129 1    
   103   51  130 1    
   104   52   53 am   BACKBONE|DICT|INTERRES
   105   52  131 1    
   106   53   54 2    
   107   53   55 1    
   108   55   56 1    
   109   55   59 1    
   110   55  132 1    
   111   56   57 1    
   112   56  133 1    
   113   56  134 1    
   114   57   58 1    
   115   58  135 1    
   116   58  136 1    
   117   59   60 am   BACKBONE|DICT|INTERRES
   118   59  137 1    
   119   60   61 2    
   120   60   62 1    
   121   62   63 1    
   122   62   64 1    
   123   62  138 1    
   124   63  139 1    
   125   63  140 1    
   126   63  141 1    
   127   64   65 am   BACKBONE|DICT|INTERRES
   128   64  142 1    
   129   65   66 2    
   130   65   67 1    
   131   67   68 1    
   132   67   69 1    
   133   67  143 1    
   134   68  144 1    
   135   68  145 1    
   136   68  146 1    
   137   69   70 am   BACKBONE|DICT|INTERRES
   138   69  147 1    
   139   70   71 2    
   140   70   72 1    
   141   72   73 1    
   142   72   74 1    
   143   72  148 1    
   144   73  149 1    
   145   73  150 1    
   146   73  151 1    
   147   74   75 am   BACKBONE|DICT|INTERRES
   148   74  152 1    
   149   75   76 2    
   150   75   77 1    
   151   77   78 1    
   152   77   79 1    
   153   77  153 1    
   154   78  154 1    
   155   78  155 1    
   156   78  156 1    
   157   79   80 am   BACKBONE|DICT|INTERRES
   158   79  157 1    
   159   80   81 2    
@<TRIPOS>SUBSTRUCTURE
     1 UNK         1 GROUP             0       ****    0 ROOT    
