@<TRIPOS>MOLECULE
3R207
157   159    1
SMALL
USER_CHARGES


@<TRIPOS>ATOM
      1 CA        -48.7904  -30.6160    8.8128 C.3       0 UNK        -0.1975 
      2 C         -48.9877  -29.3696    7.9635 C.2       0 UNK         0.4852 
      3 O         -48.7832  -28.2621    8.4619 O.2       0 UNK        -0.5216 
      4 N         -49.3559  -29.5525    6.6851 N.am      1 UNK        -0.4461 
      5 CA        -49.6405  -28.5120    5.6837 C.3       1 UNK         0.0864 
      6 C6        -50.9790  -27.7699    5.9498 C.3       14 UNK        -0.0898 
      7 S7        -52.3986  -28.8680    5.6167 S.3       14 UNK        -0.2598 
      8 C8        -53.6663  -27.6882    5.0503 C.3       14 UNK         0.0286 
      9 C9        -54.3859  -27.0625    6.2334 C.ar      14 UNK        -0.0844 
     10 C10       -53.9448  -25.8538    6.7803 C.ar      14 UNK        -0.0881 
     11 C11       -54.5766  -25.3155    7.9058 C.ar      14 UNK        -0.0643 
     12 C12       -55.6528  -25.9951    8.4840 C.ar      14 UNK        -0.0930 
     13 C13       -56.0935  -27.2099    7.9518 C.ar      14 UNK        -0.0827 
     14 C14       -55.4753  -27.7223    6.8078 C.ar      14 UNK        -0.1249 
     15 C15       -57.1974  -27.9953    8.6503 C.3       14 UNK         0.0141 
     16 S16       -56.6692  -29.6638    9.1864 S.3       14 UNK        -0.2313 
     17 C17       -54.9269  -29.4118    9.6777 C.3       14 UNK        -0.0915 
     18 CA        -54.3716  -30.5520   10.5758 C.3       13 UNK         0.0968 
     19 C         -52.8275  -30.5036   10.7703 C.2       13 UNK         0.5732 
     20 N         -52.2831  -31.2145   11.7488 N.am      13 UNK        -0.7310 
     21 O         -52.1149  -29.8360   10.0266 O.2       13 UNK        -0.5035 
     22 N         -55.1362  -30.7950   11.8153 N.am      13 UNK        -0.4233 
     23 C         -55.2998  -30.0258   12.9033 C.2       13 UNK         0.4989 
     24 O         -55.8999  -30.4553   13.8899 O.2       13 UNK        -0.4996 
     25 CA        -54.8021  -28.5642   12.9418 C.3       12 UNK         0.0216 
     26 CB        -55.9618  -27.6010   12.6256 C.3       12 UNK        -0.1964 
     27 N         -54.2917  -28.2308   14.2723 N.am      12 UNK        -0.4276 
     28 C         -53.0950  -28.5999   14.7428 C.2       12 UNK         0.5020 
     29 O         -52.2314  -29.1634   14.0702 O.2       12 UNK        -0.5489 
     30 CA        -52.8045  -28.2308   16.1988 C.3       11 UNK         0.0294 
     31 CB        -51.8017  -29.1943   16.8624 C.3       11 UNK        -0.2019 
     32 N         -52.2551  -26.8809   16.2232 N.am      11 UNK        -0.4493 
     33 C         -52.5629  -25.9389   17.1239 C.2       11 UNK         0.4932 
     34 O         -53.4285  -26.0786   17.9899 O.2       11 UNK        -0.5029 
     35 CA        -51.7441  -24.6330   17.0551 C.3       10 UNK         0.0280 
     36 CB        -51.8407  -23.7831   18.3396 C.3       10 UNK        -0.1976 
     37 N         -50.3447  -24.8778   16.6890 N.am      10 UNK        -0.4242 
     38 C         -49.4411  -25.6261   17.3441 C.2       10 UNK         0.5072 
     39 O         -49.6293  -26.1257   18.4541 O.2       10 UNK        -0.5224 
     40 CA        -48.1055  -25.8923   16.6275 C.3       9 UNK         0.0343 
     41 CB        -48.0163  -27.3635   16.1833 C.3       9 UNK        -0.2003 
     42 N         -47.9316  -25.0295   15.4554 N.am      9 UNK        -0.4272 
     43 C         -47.2060  -23.9035   15.4489 C.2       9 UNK         0.4988 
     44 O         -46.5455  -23.5008   16.4074 O.2       9 UNK        -0.5108 
     45 CA        -47.2308  -23.0786   14.1541 C.3       8 UNK         0.0248 
     46 CB        -46.3020  -23.6985   13.0969 C.3       8 UNK        -0.2001 
     47 N         -48.5757  -22.9188   13.5946 N.am      8 UNK        -0.4140 
     48 C         -49.5581  -22.1940   14.1505 C.2       8 UNK         0.5028 
     49 O         -49.4632  -21.6409   15.2459 O.2       8 UNK        -0.5428 
     50 CA        -50.8655  -22.0533   13.3583 C.3       7 UNK         0.0264 
     51 CB        -50.7112  -20.9962   12.2521 C.3       7 UNK        -0.1988 
     52 N         -51.2679  -23.3223   12.7533 N.am      7 UNK        -0.4454 
     53 C         -52.3987  -23.9862   13.0324 C.2       7 UNK         0.5027 
     54 O         -53.2428  -23.5924   13.8380 O.2       7 UNK        -0.5083 
     55 CA        -52.6421  -25.3262   12.2996 C.3       6 UNK         0.0844 
     56 C56       -53.5416  -25.1311   11.0538 C.3       14 UNK        -0.0967 
     57 S57       -52.6957  -24.2966    9.6599 S.3       14 UNK        -0.2604 
     58 C58       -54.0795  -24.0131    8.5135 C.3       14 UNK         0.0134 
     59 N         -51.4222  -26.0511   11.9468 N.am      6 UNK        -0.4116 
     60 C         -50.4262  -26.4054   12.7651 C.2       5 UNK         0.5034 
     61 O         -50.4376  -26.2398   13.9859 O.2       5 UNK        -0.5045 
     62 CA        -49.1594  -26.9505   12.0834 C.3       5 UNK         0.0224 
     63 CB        -49.2011  -28.4838   12.0258 C.3       5 UNK        -0.1978 
     64 N         -48.9147  -26.4163   10.7335 N.am      5 UNK        -0.4737 
     65 C         -48.8116  -25.1168   10.4084 C.2       4 UNK         0.5027 
     66 O         -49.0179  -24.1990   11.2038 O.2       4 UNK        -0.5211 
     67 CA        -48.4002  -24.7979    8.9607 C.3       4 UNK         0.0297 
     68 CB        -48.0595  -23.3087    8.7445 C.3       4 UNK        -0.1993 
     69 N         -47.3084  -25.6638    8.5073 N.am      4 UNK        -0.4486 
     70 C         -46.0852  -25.7949    9.0466 C.2       3 UNK         0.4961 
     71 O         -45.6452  -25.0828    9.9491 O.2       3 UNK        -0.5105 
     72 CA        -45.2057  -26.9431    8.5181 C.3       3 UNK         0.0299 
     73 CB        -45.2087  -28.1116    9.5184 C.3       3 UNK        -0.1972 
     74 N         -45.6366  -27.4382    7.2096 N.am      3 UNK        -0.4305 
     75 C         -45.4014  -26.8169    6.0457 C.2       2 UNK         0.5006 
     76 O         -44.7169  -25.7990    5.9362 O.2       2 UNK        -0.5106 
     77 CA        -46.0506  -27.4262    4.7902 C.3       2 UNK         0.0296 
     78 CB        -45.0674  -28.3734    4.0831 C.3       2 UNK        -0.2002 
     79 N         -47.3055  -28.1394    5.0578 N.am      2 UNK        -0.4032 
     80 C         -48.4395  -27.5632    5.4857 C.2       1 UNK         0.5000 
     81 O         -48.5389  -26.3623    5.7444 O.2       1 UNK        -0.5238 
     82 H82       -47.7875  -30.6261    9.2388 H         1 UNK         0.0889 
     83 H83       -48.9244  -31.5304    8.2350 H         1 UNK         0.0889 
     84 H84       -49.5085  -30.6249    9.6320 H         1 UNK         0.0889 
     85 H85       -49.4999  -30.4980    6.3591 H         1 UNK         0.3028 
     86 H86       -49.7438  -29.0299    4.7282 H         1 UNK         0.0864 
     87 H87       -51.0674  -26.8943    5.3045 H         1 UNK         0.0720 
     88 H88       -51.0345  -27.4027    6.9763 H         1 UNK         0.0720 
     89 H89       -54.3852  -28.2208    4.4257 H         1 UNK         0.0814 
     90 H90       -53.2235  -26.9223    4.4120 H         1 UNK         0.0814 
     91 H91       -53.0956  -25.3437    6.3466 H         1 UNK         0.1469 
     92 H92       -56.1265  -25.5908    9.3679 H         1 UNK         0.1381 
     93 H93       -55.8052  -28.6688    6.4014 H         1 UNK         0.1206 
     94 H94       -57.5632  -27.4517    9.5223 H         1 UNK         0.0813 
     95 H95       -58.0485  -28.0941    7.9754 H         1 UNK         0.0813 
     96 H96       -54.3477  -29.3669    8.7536 H         1 UNK         0.0638 
     97 H97       -54.8056  -28.4354   10.1411 H         1 UNK         0.0638 
     98 H98       -54.5105  -31.4667    9.9983 H         1 UNK         0.0568 
     99 H99       -52.8571  -31.7452   12.3836 H         1 UNK         0.3450 
    100 H100      -51.2892  -31.1621   11.8969 H         1 UNK         0.3450 
    101 H101      -55.5314  -31.7222   11.8616 H         1 UNK         0.2987 
    102 H102      -53.9949  -28.4085   12.2272 H         1 UNK         0.0766 
    103 H103      -56.4035  -27.8095   11.6525 H         1 UNK         0.0798 
    104 H104      -55.6318  -26.5628   12.6173 H         1 UNK         0.0798 
    105 H105      -56.7650  -27.6867   13.3589 H         1 UNK         0.0798 
    106 H106      -54.9453  -27.7914   14.9059 H         1 UNK         0.3198 
    107 H107      -53.7440  -28.2784   16.7542 H         1 UNK         0.0843 
    108 H108      -52.1661  -30.2218   16.8268 H         1 UNK         0.0831 
    109 H109      -51.6435  -28.9391   17.9104 H         1 UNK         0.0831 
    110 H110      -50.8307  -29.1732   16.3655 H         1 UNK         0.0831 
    111 H111      -51.5647  -26.6738   15.5036 H         1 UNK         0.3133 
    112 H112      -52.1722  -24.0459   16.2429 H         1 UNK         0.0566 
    113 H113      -51.2538  -22.8684   18.2536 H         1 UNK         0.0814 
    114 H114      -51.4873  -24.3284   19.2153 H         1 UNK         0.0814 
    115 H115      -52.8723  -23.4882   18.5355 H         1 UNK         0.0814 
    116 H116      -50.0764  -24.5421   15.7760 H         1 UNK         0.3091 
    117 H117      -47.3074  -25.7124   17.3508 H         1 UNK         0.0702 
    118 H118      -47.0669  -27.5717   15.6898 H         1 UNK         0.0785 
    119 H119      -48.8180  -27.6345   15.4964 H         1 UNK         0.0785 
    120 H120      -48.0879  -28.0333   17.0414 H         1 UNK         0.0785 
    121 H121      -48.4556  -25.2830   14.6287 H         1 UNK         0.2998 
    122 H122      -46.8519  -22.0820   14.3904 H         1 UNK         0.0697 
    123 H123      -46.6299  -24.6944   12.7969 H         1 UNK         0.0825 
    124 H124      -45.2835  -23.7914   13.4760 H         1 UNK         0.0825 
    125 H125      -46.2572  -23.0838   12.1974 H         1 UNK         0.0825 
    126 H126      -48.7315  -23.3380   12.6773 H         1 UNK         0.3029 
    127 H127      -51.6297  -21.7028   14.0557 H         1 UNK         0.0897 
    128 H128      -49.9659  -21.2902   11.5115 H         1 UNK         0.0792 
    129 H129      -50.4011  -20.0364   12.6677 H         1 UNK         0.0792 
    130 H130      -51.6538  -20.8341   11.7289 H         1 UNK         0.0792 
    131 H131      -50.6210  -23.7252   12.0793 H         1 UNK         0.3086 
    132 H132      -53.1802  -25.9605   13.0047 H         1 UNK         0.0583 
    133 H133      -53.8793  -26.1077   10.7046 H         1 UNK         0.1020 
    134 H134      -54.4471  -24.5784   11.3131 H         1 UNK         0.1020 
    135 H135      -54.8872  -23.4951    9.0328 H         1 UNK         0.0694 
    136 H136      -53.7473  -23.3413    7.7205 H         1 UNK         0.0694 
    137 H137      -51.2808  -26.2028   10.9585 H         1 UNK         0.2989 
    138 H138      -48.3103  -26.6575   12.7031 H         1 UNK         0.1055 
    139 H139      -50.0048  -28.8351   11.3785 H         1 UNK         0.0806 
    140 H140      -48.2635  -28.8946   11.6510 H         1 UNK         0.0806 
    141 H141      -49.3727  -28.9092   13.0161 H         1 UNK         0.0806 
    142 H142      -48.7721  -27.0989    9.9906 H         1 UNK         0.3061 
    143 H143      -49.2622  -25.0378    8.3360 H         1 UNK         0.0734 
    144 H144      -47.2401  -22.9824    9.3858 H         1 UNK         0.0832 
    145 H145      -47.7770  -23.1134    7.7102 H         1 UNK         0.0832 
    146 H146      -48.9194  -22.6773    8.9716 H         1 UNK         0.0832 
    147 H147      -47.5735  -26.3178    7.7798 H         1 UNK         0.3156 
    148 H148      -44.1836  -26.5679    8.4327 H         1 UNK         0.0589 
    149 H149      -44.8481  -27.7877   10.4958 H         1 UNK         0.0808 
    150 H150      -46.2106  -28.5181    9.6624 H         1 UNK         0.0808 
    151 H151      -44.5592  -28.9220    9.1874 H         1 UNK         0.0808 
    152 H152      -46.2116  -28.2678    7.2040 H         1 UNK         0.3098 
    153 H153      -46.2773  -26.6015    4.1109 H         1 UNK         0.0720 
    154 H154      -44.1334  -27.8609    3.8474 H         1 UNK         0.0791 
    155 H155      -45.4772  -28.7423    3.1426 H         1 UNK         0.0791 
    156 H156      -44.8179  -29.2353    4.7034 H         1 UNK         0.0791 
    157 H157      -47.3066  -29.1347    4.8849 H         1 UNK         0.3028 
@<TRIPOS>BOND
     1    1    2 1    
     2    1   82 1    
     3    1   83 1    
     4    1   84 1    
     5    2    3 2    
     6    2    4 am   BACKBONE|DICT|INTERRES
     7    4    5 1    
     8    4   85 1    
     9    5    6 1    
    10    5   80 1    
    11    5   86 1    
    12    6    7 1    
    13    6   87 1    
    14    6   88 1    
    15    7    8 1    
    16    8    9 1    
    17    8   89 1    
    18    8   90 1    
    19    9   10 ar   
    20    9   14 ar   
    21   10   11 ar   
    22   10   91 1    
    23   11   12 ar   
    24   11   58 1    
    25   12   13 ar   
    26   12   92 1    
    27   13   14 ar   
    28   13   15 1    
    29   14   93 1    
    30   15   16 1    
    31   15   94 1    
    32   15   95 1    
    33   16   17 1    
    34   17   18 1    
    35   17   96 1    
    36   17   97 1    
    37   18   19 1    
    38   18   22 1    
    39   18   98 1    
    40   19   20 am   BACKBONE|DICT|INTERRES
    41   19   21 2    
    42   20   99 1    
    43   20  100 1    
    44   22   23 am   BACKBONE|DICT|INTERRES
    45   22  101 1    
    46   23   24 2    
    47   23   25 1    
    48   25   26 1    
    49   25   27 1    
    50   25  102 1    
    51   26  103 1    
    52   26  104 1    
    53   26  105 1    
    54   27   28 am   BACKBONE|DICT|INTERRES
    55   27  106 1    
    56   28   29 2    
    57   28   30 1    
    58   30   31 1    
    59   30   32 1    
    60   30  107 1    
    61   31  108 1    
    62   31  109 1    
    63   31  110 1    
    64   32   33 am   BACKBONE|DICT|INTERRES
    65   32  111 1    
    66   33   34 2    
    67   33   35 1    
    68   35   36 1    
    69   35   37 1    
    70   35  112 1    
    71   36  113 1    
    72   36  114 1    
    73   36  115 1    
    74   37   38 am   BACKBONE|DICT|INTERRES
    75   37  116 1    
    76   38   39 2    
    77   38   40 1    
    78   40   41 1    
    79   40   42 1    
    80   40  117 1    
    81   41  118 1    
    82   41  119 1    
    83   41  120 1    
    84   42   43 am   BACKBONE|DICT|INTERRES
    85   42  121 1    
    86   43   44 2    
    87   43   45 1    
    88   45   46 1    
    89   45   47 1    
    90   45  122 1    
    91   46  123 1    
    92   46  124 1    
    93   46  125 1    
    94   47   48 am   BACKBONE|DICT|INTERRES
    95   47  126 1    
    96   48   49 2    
    97   48   50 1    
    98   50   51 1    
    99   50   52 1    
   100   50  127 1    
   101   51  128 1    
   102   51  129 1    
   103   51  130 1    
   104   52   53 am   BACKBONE|DICT|INTERRES
   105   52  131 1    
   106   53   54 2    
   107   53   55 1    
   108   55   56 1    
   109   55   59 1    
   110   55  132 1    
   111   56   57 1    
   112   56  133 1    
   113   56  134 1    
   114   57   58 1    
   115   58  135 1    
   116   58  136 1    
   117   59   60 am   BACKBONE|DICT|INTERRES
   118   59  137 1    
   119   60   61 2    
   120   60   62 1    
   121   62   63 1    
   122   62   64 1    
   123   62  138 1    
   124   63  139 1    
   125   63  140 1    
   126   63  141 1    
   127   64   65 am   BACKBONE|DICT|INTERRES
   128   64  142 1    
   129   65   66 2    
   130   65   67 1    
   131   67   68 1    
   132   67   69 1    
   133   67  143 1    
   134   68  144 1    
   135   68  145 1    
   136   68  146 1    
   137   69   70 am   BACKBONE|DICT|INTERRES
   138   69  147 1    
   139   70   71 2    
   140   70   72 1    
   141   72   73 1    
   142   72   74 1    
   143   72  148 1    
   144   73  149 1    
   145   73  150 1    
   146   73  151 1    
   147   74   75 am   BACKBONE|DICT|INTERRES
   148   74  152 1    
   149   75   76 2    
   150   75   77 1    
   151   77   78 1    
   152   77   79 1    
   153   77  153 1    
   154   78  154 1    
   155   78  155 1    
   156   78  156 1    
   157   79   80 am   BACKBONE|DICT|INTERRES
   158   79  157 1    
   159   80   81 2    
@<TRIPOS>SUBSTRUCTURE
     1 UNK         1 GROUP             0       ****    0 ROOT    
