@<TRIPOS>MOLECULE
3R207
157   159    1
SMALL
USER_CHARGES


@<TRIPOS>ATOM
      1 CA        -50.8327  -29.9126    2.0577 C.3       0 UNK        -0.1975 
      2 C         -50.3757  -29.0903    3.2539 C.2       0 UNK         0.4852 
      3 O         -50.8832  -27.9880    3.4674 O.2       0 UNK        -0.5216 
      4 N         -49.4291  -29.6215    4.0382 N.am      1 UNK        -0.4461 
      5 CA        -48.8370  -28.9535    5.2013 C.3       1 UNK         0.0864 
      6 C6        -48.0996  -29.9537    6.1256 C.3       14 UNK        -0.0898 
      7 S7        -49.2712  -30.9429    7.1103 S.3       14 UNK        -0.2598 
      8 C8        -49.3699  -29.9669    8.6483 C.3       14 UNK         0.0286 
      9 C9        -50.7701  -29.4223    8.8817 C.ar      14 UNK        -0.0844 
     10 C10       -51.1289  -28.1447    8.4366 C.ar      14 UNK        -0.0881 
     11 C11       -52.4114  -27.6419    8.6851 C.ar      14 UNK        -0.0643 
     12 C12       -53.3343  -28.4254    9.3846 C.ar      14 UNK        -0.0930 
     13 C13       -52.9842  -29.7018    9.8328 C.ar      14 UNK        -0.0827 
     14 C14       -51.7035  -30.1958    9.5754 C.ar      14 UNK        -0.1249 
     15 C15       -53.9761  -30.5421   10.6170 C.3       14 UNK         0.0141 
     16 S16       -53.7655  -30.2512   12.3952 S.3       14 UNK        -0.2313 
     17 C17       -54.9400  -31.4525   13.1026 C.3       14 UNK        -0.0915 
     18 CA        -56.3213  -30.8343   13.4433 C.3       13 UNK         0.0968 
     19 C         -57.2251  -31.9006   14.1225 C.2       13 UNK         0.5732 
     20 N         -58.0532  -32.5951   13.3541 N.am      13 UNK        -0.7310 
     21 O         -57.1450  -32.1345   15.3275 O.2       13 UNK        -0.5035 
     22 N         -56.1687  -29.5973   14.2227 N.am      13 UNK        -0.4233 
     23 C         -57.1503  -28.8253   14.7030 C.2       13 UNK         0.4989 
     24 O         -58.3531  -29.0533   14.5664 O.2       13 UNK        -0.4996 
     25 CA        -56.7002  -27.5541   15.4364 C.3       12 UNK         0.0216 
     26 CB        -56.2003  -27.8813   16.8533 C.3       12 UNK        -0.1964 
     27 N         -55.6632  -26.8197   14.7053 N.am      12 UNK        -0.4276 
     28 C         -55.8862  -26.1039   13.5902 C.2       12 UNK         0.5020 
     29 O         -56.9778  -26.0717   13.0187 O.2       12 UNK        -0.5489 
     30 CA        -54.7149  -25.2638   13.0261 C.3       11 UNK         0.0294 
     31 CB        -55.1958  -23.9948   12.2932 C.3       11 UNK        -0.2019 
     32 N         -53.6921  -24.9159   14.0193 N.am      11 UNK        -0.4493 
     33 C         -53.8594  -24.3084   15.2052 C.2       11 UNK         0.4932 
     34 O         -54.9204  -23.8006   15.5711 O.2       11 UNK        -0.5029 
     35 CA        -52.6496  -24.3114   16.1645 C.3       10 UNK         0.0280 
     36 CB        -53.0804  -24.3868   17.6443 C.3       10 UNK        -0.1976 
     37 N         -51.6539  -25.3543   15.8736 N.am      10 UNK        -0.4242 
     38 C         -51.8407  -26.6845   15.8109 C.2       10 UNK         0.5072 
     39 O         -52.9285  -27.2249   16.0247 O.2       10 UNK        -0.5224 
     40 CA        -50.6464  -27.5641   15.3813 C.3       9 UNK         0.0343 
     41 CB        -51.0050  -28.3905   14.1349 C.3       9 UNK        -0.2003 
     42 N         -49.4296  -26.8001   15.0946 N.am      9 UNK        -0.4272 
     43 C         -48.5524  -26.3734   16.0129 C.2       9 UNK         0.4988 
     44 O         -48.6225  -26.6526   17.2100 O.2       9 UNK        -0.5108 
     45 CA        -47.4342  -25.4356   15.5201 C.3       8 UNK         0.0248 
     46 CB        -46.2187  -26.2447   15.0409 C.3       8 UNK        -0.2001 
     47 N         -47.8728  -24.5170   14.4613 N.am      8 UNK        -0.4140 
     48 C         -48.8345  -23.5933   14.6116 C.2       8 UNK         0.5028 
     49 O         -49.4158  -23.3855   15.6761 O.2       8 UNK        -0.5428 
     50 CA        -49.2680  -22.8050   13.3656 C.3       7 UNK         0.0264 
     51 CB        -48.3056  -21.6379   13.0967 C.3       7 UNK        -0.1988 
     52 N         -49.3908  -23.6395   12.1680 N.am      7 UNK        -0.4454 
     53 C         -50.2571  -24.6557   12.0247 C.2       7 UNK         0.5027 
     54 O         -51.0715  -24.9872   12.8862 O.2       7 UNK        -0.5083 
     55 CA        -50.1575  -25.4775   10.7234 C.3       6 UNK         0.0844 
     56 C56       -50.8290  -24.7556    9.5287 C.3       14 UNK        -0.0967 
     57 S57       -52.6361  -24.9945    9.4953 S.3       14 UNK        -0.2604 
     58 C58       -52.8139  -26.2581    8.1947 C.3       14 UNK         0.0134 
     59 N         -48.7720  -25.8415   10.4255 N.am      6 UNK        -0.4116 
     60 C         -47.9851  -26.5926   11.2082 C.2       5 UNK         0.5034 
     61 O         -48.3587  -27.1335   12.2488 O.2       5 UNK        -0.5045 
     62 CA        -46.5123  -26.7065   10.7838 C.3       5 UNK         0.0224 
     63 CB        -46.3207  -27.7856    9.7068 C.3       5 UNK        -0.1978 
     64 N         -45.9792  -25.4294   10.3025 N.am      5 UNK        -0.4737 
     65 C         -45.7629  -24.3626   11.0842 C.2       4 UNK         0.5027 
     66 O         -45.9606  -24.3543   12.2981 O.2       4 UNK        -0.5211 
     67 CA        -45.2795  -23.0803   10.3878 C.3       4 UNK         0.0297 
     68 CB        -43.7584  -23.1222   10.1732 C.3       4 UNK        -0.1993 
     69 N         -45.9527  -22.8386    9.1087 N.am      4 UNK        -0.4486 
     70 C         -47.2593  -22.5676    8.9814 C.2       3 UNK         0.4961 
     71 O         -48.0411  -22.4872    9.9280 O.2       3 UNK        -0.5105 
     72 CA        -47.7960  -22.4121    7.5488 C.3       3 UNK         0.0299 
     73 CB        -47.4972  -21.0051    7.0071 C.3       3 UNK        -0.1972 
     74 N         -47.2918  -23.4243    6.6124 N.am      3 UNK        -0.4305 
     75 C         -47.4470  -24.7449    6.7702 C.2       2 UNK         0.5006 
     76 O         -47.9622  -25.2645    7.7657 O.2       2 UNK        -0.5106 
     77 CA        -46.9328  -25.6495    5.6472 C.3       2 UNK         0.0296 
     78 CB        -45.4341  -25.9534    5.8250 C.3       2 UNK        -0.2002 
     79 N         -47.7126  -26.8750    5.7362 N.am      2 UNK        -0.4032 
     80 C         -47.9000  -27.7992    4.7917 C.2       1 UNK         0.5000 
     81 O         -47.3611  -27.7797    3.6811 O.2       1 UNK        -0.5238 
     82 H82       -50.3121  -30.8682    1.9967 H         1 UNK         0.0889 
     83 H83       -50.6465  -29.3656    1.1339 H         1 UNK         0.0889 
     84 H84       -51.9016  -30.1129    2.1264 H         1 UNK         0.0889 
     85 H85       -49.0389  -30.5233    3.8060 H         1 UNK         0.3028 
     86 H86       -49.6572  -28.5035    5.7652 H         1 UNK         0.0864 
     87 H87       -47.4790  -30.6322    5.5374 H         1 UNK         0.0720 
     88 H88       -47.4081  -29.4538    6.8067 H         1 UNK         0.0720 
     89 H89       -48.6605  -29.1413    8.6367 H         1 UNK         0.0814 
     90 H90       -49.0738  -30.6005    9.4858 H         1 UNK         0.0814 
     91 H91       -50.4099  -27.5372    7.9065 H         1 UNK         0.1469 
     92 H92       -54.3223  -28.0359    9.5891 H         1 UNK         0.1381 
     93 H93       -51.4281  -31.1801    9.9294 H         1 UNK         0.1206 
     94 H94       -54.9993  -30.3009   10.3249 H         1 UNK         0.0813 
     95 H95       -53.8271  -31.6001   10.3953 H         1 UNK         0.0813 
     96 H96       -55.0541  -32.2925   12.4149 H         1 UNK         0.0638 
     97 H97       -54.4767  -31.8615   14.0028 H         1 UNK         0.0638 
     98 H98       -56.7977  -30.5409   12.5061 H         1 UNK         0.0568 
     99 H99       -58.6340  -33.3026   13.7762 H         1 UNK         0.3450 
    100 H100      -58.1168  -32.4216   12.3631 H         1 UNK         0.3450 
    101 H101      -55.2153  -29.3093   14.3838 H         1 UNK         0.2987 
    102 H102      -57.5706  -26.9011   15.5322 H         1 UNK         0.0766 
    103 H103      -55.9497  -26.9737   17.4030 H         1 UNK         0.0798 
    104 H104      -55.3125  -28.5148   16.8357 H         1 UNK         0.0798 
    105 H105      -56.9657  -28.4071   17.4257 H         1 UNK         0.0798 
    106 H106      -54.7324  -26.8124   15.1132 H         1 UNK         0.3198 
    107 H107      -54.2159  -25.8998   12.2928 H         1 UNK         0.0843 
    108 H108      -55.7526  -23.3327   12.9569 H         1 UNK         0.0831 
    109 H109      -55.8500  -24.2476   11.4579 H         1 UNK         0.0831 
    110 H110      -54.3559  -23.4338   11.8833 H         1 UNK         0.0831 
    111 H111      -52.7444  -25.2004   13.7784 H         1 UNK         0.3133 
    112 H112      -52.1435  -23.3575   16.0126 H         1 UNK         0.0566 
    113 H113      -52.2168  -24.3731   18.3091 H         1 UNK         0.0814 
    114 H114      -53.7084  -23.5374   17.9157 H         1 UNK         0.0814 
    115 H115      -53.6506  -25.2928   17.8526 H         1 UNK         0.0814 
    116 H116      -50.7299  -24.9965   15.6577 H         1 UNK         0.3091 
    117 H117      -50.4446  -28.2570   16.2005 H         1 UNK         0.0702 
    118 H118      -51.8514  -29.0475   14.3355 H         1 UNK         0.0785 
    119 H119      -50.1737  -29.0228   13.8224 H         1 UNK         0.0785 
    120 H120      -51.2756  -27.7553   13.2902 H         1 UNK         0.0785 
    121 H121      -49.2649  -26.5655   14.1214 H         1 UNK         0.2998 
    122 H122      -47.1204  -24.8261   16.3700 H         1 UNK         0.0697 
    123 H123      -46.4606  -26.8641   14.1773 H         1 UNK         0.0825 
    124 H124      -45.8570  -26.9084   15.8273 H         1 UNK         0.0825 
    125 H125      -45.3917  -25.5912   14.7628 H         1 UNK         0.0825 
    126 H126      -47.3850  -24.5779   13.5705 H         1 UNK         0.3029 
    127 H127      -50.2559  -22.3875   13.5720 H         1 UNK         0.0897 
    128 H128      -48.6558  -21.0182   12.2710 H         1 UNK         0.0792 
    129 H129      -48.2191  -20.9928   13.9721 H         1 UNK         0.0792 
    130 H130      -47.3037  -21.9889   12.8487 H         1 UNK         0.0792 
    131 H131      -48.7863  -23.3957   11.3856 H         1 UNK         0.3086 
    132 H132      -50.6818  -26.4203   10.8956 H         1 UNK         0.0583 
    133 H133      -50.6089  -23.6861    9.5293 H         1 UNK         0.1020 
    134 H134      -50.4250  -25.1247    8.5864 H         1 UNK         0.1020 
    135 H135      -53.8560  -26.2782    7.8720 H         1 UNK         0.0694 
    136 H136      -52.2345  -25.9745    7.3147 H         1 UNK         0.0694 
    137 H137      -48.3802  -25.4679    9.5647 H         1 UNK         0.2989 
    138 H138      -45.9396  -27.0018   11.6660 H         1 UNK         0.1055 
    139 H139      -46.6926  -28.7504   10.0541 H         1 UNK         0.0806 
    140 H140      -45.2662  -27.9175    9.4636 H         1 UNK         0.0806 
    141 H141      -46.8464  -27.5389    8.7846 H         1 UNK         0.0806 
    142 H142      -45.8354  -25.3354    9.3080 H         1 UNK         0.3061 
    143 H143      -45.5063  -22.2408   11.0486 H         1 UNK         0.0734 
    144 H144      -43.3896  -22.1832    9.7600 H         1 UNK         0.0832 
    145 H145      -43.2373  -23.2846   11.1178 H         1 UNK         0.0832 
    146 H146      -43.4645  -23.9263    9.4973 H         1 UNK         0.0832 
    147 H147      -45.3896  -22.8914    8.2724 H         1 UNK         0.3156 
    148 H148      -48.8807  -22.5299    7.5967 H         1 UNK         0.0589 
    149 H149      -46.4267  -20.8336    6.8878 H         1 UNK         0.0808 
    150 H150      -47.9734  -20.8425    6.0400 H         1 UNK         0.0808 
    151 H151      -47.8764  -20.2382    7.6843 H         1 UNK         0.0808 
    152 H152      -46.8484  -23.0836    5.7709 H         1 UNK         0.3098 
    153 H153      -47.1141  -25.1711    4.6825 H         1 UNK         0.0720 
    154 H154      -45.0671  -26.6120    5.0376 H         1 UNK         0.0791 
    155 H155      -45.2305  -26.4347    6.7826 H         1 UNK         0.0791 
    156 H156      -44.8397  -25.0400    5.7831 H         1 UNK         0.0791 
    157 H157      -48.2090  -26.9439    6.6161 H         1 UNK         0.3028 
@<TRIPOS>BOND
     1    1    2 1    
     2    1   82 1    
     3    1   83 1    
     4    1   84 1    
     5    2    3 2    
     6    2    4 am   BACKBONE|DICT|INTERRES
     7    4    5 1    
     8    4   85 1    
     9    5    6 1    
    10    5   80 1    
    11    5   86 1    
    12    6    7 1    
    13    6   87 1    
    14    6   88 1    
    15    7    8 1    
    16    8    9 1    
    17    8   89 1    
    18    8   90 1    
    19    9   10 ar   
    20    9   14 ar   
    21   10   11 ar   
    22   10   91 1    
    23   11   12 ar   
    24   11   58 1    
    25   12   13 ar   
    26   12   92 1    
    27   13   14 ar   
    28   13   15 1    
    29   14   93 1    
    30   15   16 1    
    31   15   94 1    
    32   15   95 1    
    33   16   17 1    
    34   17   18 1    
    35   17   96 1    
    36   17   97 1    
    37   18   19 1    
    38   18   22 1    
    39   18   98 1    
    40   19   20 am   BACKBONE|DICT|INTERRES
    41   19   21 2    
    42   20   99 1    
    43   20  100 1    
    44   22   23 am   BACKBONE|DICT|INTERRES
    45   22  101 1    
    46   23   24 2    
    47   23   25 1    
    48   25   26 1    
    49   25   27 1    
    50   25  102 1    
    51   26  103 1    
    52   26  104 1    
    53   26  105 1    
    54   27   28 am   BACKBONE|DICT|INTERRES
    55   27  106 1    
    56   28   29 2    
    57   28   30 1    
    58   30   31 1    
    59   30   32 1    
    60   30  107 1    
    61   31  108 1    
    62   31  109 1    
    63   31  110 1    
    64   32   33 am   BACKBONE|DICT|INTERRES
    65   32  111 1    
    66   33   34 2    
    67   33   35 1    
    68   35   36 1    
    69   35   37 1    
    70   35  112 1    
    71   36  113 1    
    72   36  114 1    
    73   36  115 1    
    74   37   38 am   BACKBONE|DICT|INTERRES
    75   37  116 1    
    76   38   39 2    
    77   38   40 1    
    78   40   41 1    
    79   40   42 1    
    80   40  117 1    
    81   41  118 1    
    82   41  119 1    
    83   41  120 1    
    84   42   43 am   BACKBONE|DICT|INTERRES
    85   42  121 1    
    86   43   44 2    
    87   43   45 1    
    88   45   46 1    
    89   45   47 1    
    90   45  122 1    
    91   46  123 1    
    92   46  124 1    
    93   46  125 1    
    94   47   48 am   BACKBONE|DICT|INTERRES
    95   47  126 1    
    96   48   49 2    
    97   48   50 1    
    98   50   51 1    
    99   50   52 1    
   100   50  127 1    
   101   51  128 1    
   102   51  129 1    
   103   51  130 1    
   104   52   53 am   BACKBONE|DICT|INTERRES
   105   52  131 1    
   106   53   54 2    
   107   53   55 1    
   108   55   56 1    
   109   55   59 1    
   110   55  132 1    
   111   56   57 1    
   112   56  133 1    
   113   56  134 1    
   114   57   58 1    
   115   58  135 1    
   116   58  136 1    
   117   59   60 am   BACKBONE|DICT|INTERRES
   118   59  137 1    
   119   60   61 2    
   120   60   62 1    
   121   62   63 1    
   122   62   64 1    
   123   62  138 1    
   124   63  139 1    
   125   63  140 1    
   126   63  141 1    
   127   64   65 am   BACKBONE|DICT|INTERRES
   128   64  142 1    
   129   65   66 2    
   130   65   67 1    
   131   67   68 1    
   132   67   69 1    
   133   67  143 1    
   134   68  144 1    
   135   68  145 1    
   136   68  146 1    
   137   69   70 am   BACKBONE|DICT|INTERRES
   138   69  147 1    
   139   70   71 2    
   140   70   72 1    
   141   72   73 1    
   142   72   74 1    
   143   72  148 1    
   144   73  149 1    
   145   73  150 1    
   146   73  151 1    
   147   74   75 am   BACKBONE|DICT|INTERRES
   148   74  152 1    
   149   75   76 2    
   150   75   77 1    
   151   77   78 1    
   152   77   79 1    
   153   77  153 1    
   154   78  154 1    
   155   78  155 1    
   156   78  156 1    
   157   79   80 am   BACKBONE|DICT|INTERRES
   158   79  157 1    
   159   80   81 2    
@<TRIPOS>SUBSTRUCTURE
     1 UNK         1 GROUP             0       ****    0 ROOT    
