@<TRIPOS>MOLECULE
3R207
157   159    1
SMALL
USER_CHARGES


@<TRIPOS>ATOM
      1 CA        -54.6418  -27.6206    7.7687 C.3       0 UNK        -0.1975 
      2 C         -53.2649  -27.3322    7.1926 C.2       0 UNK         0.4852 
      3 O         -53.1585  -26.7123    6.1337 O.2       0 UNK        -0.5216 
      4 N         -52.2076  -27.7662    7.8917 N.am      1 UNK        -0.4461 
      5 CA        -50.7830  -27.6762    7.5317 C.3       1 UNK         0.0864 
      6 C6        -50.4483  -28.4399    6.2220 C.3       14 UNK        -0.0898 
      7 S7        -48.7513  -29.1082    6.1915 S.3       14 UNK        -0.2598 
      8 C8        -48.9748  -30.7539    6.9509 C.3       14 UNK         0.0286 
      9 C9        -49.2453  -30.6501    8.4457 C.ar      14 UNK        -0.0844 
     10 C10       -48.2010  -30.3449    9.3235 C.ar      14 UNK        -0.0881 
     11 C11       -48.4439  -30.1690   10.6906 C.ar      14 UNK        -0.0643 
     12 C12       -49.7456  -30.3260   11.1774 C.ar      14 UNK        -0.0930 
     13 C13       -50.7943  -30.6563   10.3141 C.ar      14 UNK        -0.0827 
     14 C14       -50.5386  -30.8235    8.9496 C.ar      14 UNK        -0.1249 
     15 C15       -52.2046  -30.8179   10.8577 C.3       14 UNK         0.0141 
     16 S16       -53.0717  -29.2236   10.8686 S.3       14 UNK        -0.2313 
     17 C17       -54.6517  -29.6975   11.6441 C.3       14 UNK        -0.0915 
     18 CA        -55.7174  -28.5739   11.5424 C.3       13 UNK         0.0968 
     19 C         -57.1041  -29.0379   12.0777 C.2       13 UNK         0.5732 
     20 N         -57.7419  -28.3364   13.0090 N.am      13 UNK        -0.7310 
     21 O         -57.6276  -30.0511   11.6199 O.2       13 UNK        -0.5035 
     22 N         -55.2407  -27.3251   12.1507 N.am      13 UNK        -0.4233 
     23 C         -55.5658  -26.0953   11.7359 C.2       13 UNK         0.4989 
     24 O         -56.2429  -25.8677   10.7320 O.2       13 UNK        -0.4996 
     25 CA        -55.0412  -24.9244   12.5904 C.3       12 UNK         0.0216 
     26 CB        -55.8639  -23.6305   12.4117 C.3       12 UNK        -0.1964 
     27 N         -54.8995  -25.2683   14.0117 N.am      12 UNK        -0.4276 
     28 C         -55.8726  -25.6419   14.8564 C.2       12 UNK         0.5020 
     29 O         -57.0576  -25.7432   14.5316 O.2       12 UNK        -0.5489 
     30 CA        -55.4335  -25.9980   16.2915 C.3       11 UNK         0.0294 
     31 CB        -56.5535  -26.6810   17.1055 C.3       11 UNK        -0.2019 
     32 N         -54.2029  -26.7990   16.3438 N.am      11 UNK        -0.4493 
     33 C         -53.9816  -27.9913   15.7658 C.2       11 UNK         0.4932 
     34 O         -54.8087  -28.5725   15.0630 O.2       11 UNK        -0.5029 
     35 CA        -52.5990  -28.6323   15.9904 C.3       10 UNK         0.0280 
     36 CB        -52.1444  -29.4468   14.7642 C.3       10 UNK        -0.1976 
     37 N         -51.5859  -27.6164   16.2852 N.am      10 UNK        -0.4242 
     38 C         -50.9529  -27.4488   17.4549 C.2       10 UNK         0.5072 
     39 O         -51.1620  -28.1466   18.4480 O.2       10 UNK        -0.5224 
     40 CA        -49.9103  -26.3166   17.5512 C.3       9 UNK         0.0343 
     41 CB        -48.4945  -26.8987   17.7012 C.3       9 UNK        -0.2003 
     42 N         -49.9341  -25.4161   16.3953 N.am      9 UNK        -0.4272 
     43 C         -50.7613  -24.3673   16.2645 C.2       9 UNK         0.4988 
     44 O         -51.5522  -24.0105   17.1378 O.2       9 UNK        -0.5108 
     45 CA        -50.7433  -23.6146   14.9175 C.3       8 UNK         0.0248 
     46 CB        -49.7493  -22.4442   14.9692 C.3       8 UNK        -0.2001 
     47 N         -50.4261  -24.4681   13.7676 N.am      8 UNK        -0.4140 
     48 C         -51.1236  -25.5594   13.4175 C.2       8 UNK         0.5028 
     49 O         -52.1636  -25.9019   13.9776 O.2       8 UNK        -0.5428 
     50 CA        -50.5494  -26.4647   12.3162 C.3       7 UNK         0.0264 
     51 CB        -51.2354  -26.1639   10.9807 C.3       7 UNK        -0.1988 
     52 N         -49.0971  -26.3779   12.1470 N.am      7 UNK        -0.4454 
     53 C         -48.1789  -26.5555   13.1103 C.2       7 UNK         0.5027 
     54 O         -48.4590  -26.8928   14.2613 O.2       7 UNK        -0.5083 
     55 CA        -46.7074  -26.2466   12.7569 C.3       6 UNK         0.0844 
     56 C56       -45.8826  -27.5462   12.5822 C.3       14 UNK        -0.0967 
     57 S57       -46.2766  -28.4480   11.0428 S.3       14 UNK        -0.2604 
     58 C58       -47.3109  -29.8215   11.6508 C.3       14 UNK         0.0134 
     59 N         -46.5380  -25.3367   11.6161 N.am      6 UNK        -0.4116 
     60 C         -47.0473  -24.1065   11.4715 C.2       5 UNK         0.5034 
     61 O         -47.7537  -23.5614   12.3216 O.2       5 UNK        -0.5045 
     62 CA        -46.7742  -23.3691   10.1450 C.3       5 UNK         0.0224 
     63 CB        -45.6273  -22.3534   10.3078 C.3       5 UNK        -0.1978 
     64 N         -46.5617  -24.2309    8.9677 N.am      5 UNK        -0.4737 
     65 C         -45.5550  -25.0784    8.7011 C.2       4 UNK         0.5027 
     66 O         -44.6213  -25.2864    9.4752 O.2       4 UNK        -0.5211 
     67 CA        -45.6023  -25.8532    7.3721 C.3       4 UNK         0.0297 
     68 CB        -45.8305  -27.3515    7.6276 C.3       4 UNK        -0.1993 
     69 N         -46.6520  -25.3648    6.4756 N.am      4 UNK        -0.4486 
     70 C         -46.4631  -24.4630    5.5019 C.2       3 UNK         0.4961 
     71 O         -45.3690  -23.9657    5.2335 O.2       3 UNK        -0.5105 
     72 CA        -47.6947  -24.0363    4.6796 C.3       3 UNK         0.0299 
     73 CB        -47.7740  -24.8504    3.3780 C.3       3 UNK        -0.1972 
     74 N         -48.9625  -24.1652    5.4019 N.am      3 UNK        -0.4305 
     75 C         -49.3150  -23.4403    6.4731 C.2       2 UNK         0.5006 
     76 O         -48.6248  -22.5410    6.9522 O.2       2 UNK        -0.5106 
     77 CA        -50.6382  -23.8185    7.1609 C.3       2 UNK         0.0296 
     78 CB        -51.8051  -23.0080    6.5757 C.3       2 UNK        -0.2002 
     79 N         -50.9605  -25.2485    7.0992 N.am      2 UNK        -0.4032 
     80 C         -50.1985  -26.2463    7.5667 C.2       1 UNK         0.5000 
     81 O         -49.0805  -26.0644    8.0519 O.2       1 UNK        -0.5238 
     82 H82       -54.6483  -28.5535    8.3312 H         1 UNK         0.0889 
     83 H83       -55.3781  -27.7082    6.9702 H         1 UNK         0.0889 
     84 H84       -54.9506  -26.8123    8.4311 H         1 UNK         0.0889 
     85 H85       -52.3827  -28.2419    8.7688 H         1 UNK         0.3028 
     86 H86       -50.2814  -28.1859    8.3524 H         1 UNK         0.0864 
     87 H87       -51.1336  -29.2784    6.0890 H         1 UNK         0.0720 
     88 H88       -50.5958  -27.8038    5.3474 H         1 UNK         0.0720 
     89 H89       -48.0700  -31.3415    6.7892 H         1 UNK         0.0814 
     90 H90       -49.7790  -31.2892    6.4438 H         1 UNK         0.0814 
     91 H91       -47.2002  -30.2138    8.9350 H         1 UNK         0.1469 
     92 H92       -49.9471  -30.1892   12.2311 H         1 UNK         0.1381 
     93 H93       -51.3517  -31.0586    8.2763 H         1 UNK         0.1206 
     94 H94       -52.1733  -31.2217   11.8709 H         1 UNK         0.0813 
     95 H95       -52.7640  -31.5341   10.2538 H         1 UNK         0.0813 
     96 H96       -54.4660  -29.9578   12.6871 H         1 UNK         0.0638 
     97 H97       -55.0079  -30.6062   11.1555 H         1 UNK         0.0638 
     98 H98       -55.8778  -28.3894   10.4793 H         1 UNK         0.0568 
     99 H99       -58.6403  -28.6569   13.3317 H         1 UNK         0.3450 
    100 H100      -57.3390  -27.4945   13.4034 H         1 UNK         0.3450 
    101 H101      -54.7247  -27.4324   13.0134 H         1 UNK         0.2987 
    102 H102      -54.0329  -24.7203   12.2283 H         1 UNK         0.0766 
    103 H103      -55.4629  -22.8188   13.0185 H         1 UNK         0.0798 
    104 H104      -56.9089  -23.7730   12.6889 H         1 UNK         0.0798 
    105 H105      -55.8468  -23.2958   11.3737 H         1 UNK         0.0798 
    106 H106      -53.9344  -25.3401   14.3300 H         1 UNK         0.3198 
    107 H107      -55.2038  -25.0490   16.7788 H         1 UNK         0.0843 
    108 H108      -56.8671  -27.6213   16.6503 H         1 UNK         0.0831 
    109 H109      -57.4352  -26.0423   17.1708 H         1 UNK         0.0831 
    110 H110      -56.2320  -26.8923   18.1252 H         1 UNK         0.0831 
    111 H111      -53.4425  -26.3956   16.8732 H         1 UNK         0.3133 
    112 H112      -52.7025  -29.3198   16.8318 H         1 UNK         0.0566 
    113 H113      -52.1685  -28.8479   13.8543 H         1 UNK         0.0814 
    114 H114      -51.1317  -29.8298   14.8902 H         1 UNK         0.0814 
    115 H115      -52.7967  -30.3056   14.6023 H         1 UNK         0.0814 
    116 H116      -51.4125  -26.9549   15.5361 H         1 UNK         0.3091 
    117 H117      -50.1343  -25.7438   18.4537 H         1 UNK         0.0702 
    118 H118      -47.7475  -26.1097   17.7895 H         1 UNK         0.0785 
    119 H119      -48.2225  -27.5259   16.8515 H         1 UNK         0.0785 
    120 H120      -48.4195  -27.5165   18.5971 H         1 UNK         0.0785 
    121 H121      -49.3414  -25.6819   15.6144 H         1 UNK         0.2998 
    122 H122      -51.7442  -23.2087   14.7568 H         1 UNK         0.0697 
    123 H123      -48.7229  -22.7921   15.0949 H         1 UNK         0.0825 
    124 H124      -49.9734  -21.7760   15.8020 H         1 UNK         0.0825 
    125 H125      -49.7894  -21.8489   14.0567 H         1 UNK         0.0825 
    126 H126      -49.5782  -24.2467   13.2566 H         1 UNK         0.3029 
    127 H127      -50.7778  -27.4947   12.5930 H         1 UNK         0.0897 
    128 H128      -52.3216  -26.1923   11.0755 H         1 UNK         0.0792 
    129 H129      -50.9602  -26.9185   10.2496 H         1 UNK         0.0792 
    130 H130      -50.9609  -25.1843   10.5873 H         1 UNK         0.0792 
    131 H131      -48.7640  -26.1277   11.2268 H         1 UNK         0.3086 
    132 H132      -46.3007  -25.7192   13.6220 H         1 UNK         0.0583 
    133 H133      -44.8214  -27.2941   12.5498 H         1 UNK         0.1020 
    134 H134      -45.9921  -28.2016   13.4487 H         1 UNK         0.1020 
    135 H135      -46.6834  -30.7010   11.7991 H         1 UNK         0.0694 
    136 H136      -47.7204  -29.5644   12.6287 H         1 UNK         0.0694 
    137 H137      -45.9332  -25.6688   10.8715 H         1 UNK         0.2989 
    138 H138      -47.6814  -22.8026    9.9264 H         1 UNK         0.1055 
    139 H139      -45.8438  -21.6483   11.1117 H         1 UNK         0.0806 
    140 H140      -45.4822  -21.7713    9.3976 H         1 UNK         0.0806 
    141 H141      -44.6817  -22.8388   10.5507 H         1 UNK         0.0806 
    142 H142      -47.2926  -24.1746    8.2703 H         1 UNK         0.3061 
    143 H143      -44.6255  -25.7404    6.8973 H         1 UNK         0.0734 
    144 H144      -45.8265  -27.9187    6.6969 H         1 UNK         0.0832 
    145 H145      -45.0445  -27.7652    8.2606 H         1 UNK         0.0832 
    146 H146      -46.7823  -27.5360    8.1276 H         1 UNK         0.0832 
    147 H147      -47.5900  -25.6982    6.6733 H         1 UNK         0.3156 
    148 H148      -47.5655  -22.9841    4.4174 H         1 UNK         0.0589 
    149 H149      -47.9229  -25.9133    3.5743 H         1 UNK         0.0808 
    150 H150      -48.5905  -24.5070    2.7425 H         1 UNK         0.0808 
    151 H151      -46.8538  -24.7524    2.8001 H         1 UNK         0.0808 
    152 H152      -49.5992  -24.8797    5.0805 H         1 UNK         0.3098 
    153 H153      -50.5379  -23.5579    8.2166 H         1 UNK         0.0720 
    154 H154      -52.7289  -23.1896    7.1255 H         1 UNK         0.0791 
    155 H155      -51.9840  -23.2561    5.5286 H         1 UNK         0.0791 
    156 H156      -51.6033  -21.9371    6.6285 H         1 UNK         0.0791 
    157 H157      -51.8574  -25.5112    6.6956 H         1 UNK         0.3028 
@<TRIPOS>BOND
     1    1    2 1    
     2    1   82 1    
     3    1   83 1    
     4    1   84 1    
     5    2    3 2    
     6    2    4 am   BACKBONE|DICT|INTERRES
     7    4    5 1    
     8    4   85 1    
     9    5    6 1    
    10    5   80 1    
    11    5   86 1    
    12    6    7 1    
    13    6   87 1    
    14    6   88 1    
    15    7    8 1    
    16    8    9 1    
    17    8   89 1    
    18    8   90 1    
    19    9   10 ar   
    20    9   14 ar   
    21   10   11 ar   
    22   10   91 1    
    23   11   12 ar   
    24   11   58 1    
    25   12   13 ar   
    26   12   92 1    
    27   13   14 ar   
    28   13   15 1    
    29   14   93 1    
    30   15   16 1    
    31   15   94 1    
    32   15   95 1    
    33   16   17 1    
    34   17   18 1    
    35   17   96 1    
    36   17   97 1    
    37   18   19 1    
    38   18   22 1    
    39   18   98 1    
    40   19   20 am   BACKBONE|DICT|INTERRES
    41   19   21 2    
    42   20   99 1    
    43   20  100 1    
    44   22   23 am   BACKBONE|DICT|INTERRES
    45   22  101 1    
    46   23   24 2    
    47   23   25 1    
    48   25   26 1    
    49   25   27 1    
    50   25  102 1    
    51   26  103 1    
    52   26  104 1    
    53   26  105 1    
    54   27   28 am   BACKBONE|DICT|INTERRES
    55   27  106 1    
    56   28   29 2    
    57   28   30 1    
    58   30   31 1    
    59   30   32 1    
    60   30  107 1    
    61   31  108 1    
    62   31  109 1    
    63   31  110 1    
    64   32   33 am   BACKBONE|DICT|INTERRES
    65   32  111 1    
    66   33   34 2    
    67   33   35 1    
    68   35   36 1    
    69   35   37 1    
    70   35  112 1    
    71   36  113 1    
    72   36  114 1    
    73   36  115 1    
    74   37   38 am   BACKBONE|DICT|INTERRES
    75   37  116 1    
    76   38   39 2    
    77   38   40 1    
    78   40   41 1    
    79   40   42 1    
    80   40  117 1    
    81   41  118 1    
    82   41  119 1    
    83   41  120 1    
    84   42   43 am   BACKBONE|DICT|INTERRES
    85   42  121 1    
    86   43   44 2    
    87   43   45 1    
    88   45   46 1    
    89   45   47 1    
    90   45  122 1    
    91   46  123 1    
    92   46  124 1    
    93   46  125 1    
    94   47   48 am   BACKBONE|DICT|INTERRES
    95   47  126 1    
    96   48   49 2    
    97   48   50 1    
    98   50   51 1    
    99   50   52 1    
   100   50  127 1    
   101   51  128 1    
   102   51  129 1    
   103   51  130 1    
   104   52   53 am   BACKBONE|DICT|INTERRES
   105   52  131 1    
   106   53   54 2    
   107   53   55 1    
   108   55   56 1    
   109   55   59 1    
   110   55  132 1    
   111   56   57 1    
   112   56  133 1    
   113   56  134 1    
   114   57   58 1    
   115   58  135 1    
   116   58  136 1    
   117   59   60 am   BACKBONE|DICT|INTERRES
   118   59  137 1    
   119   60   61 2    
   120   60   62 1    
   121   62   63 1    
   122   62   64 1    
   123   62  138 1    
   124   63  139 1    
   125   63  140 1    
   126   63  141 1    
   127   64   65 am   BACKBONE|DICT|INTERRES
   128   64  142 1    
   129   65   66 2    
   130   65   67 1    
   131   67   68 1    
   132   67   69 1    
   133   67  143 1    
   134   68  144 1    
   135   68  145 1    
   136   68  146 1    
   137   69   70 am   BACKBONE|DICT|INTERRES
   138   69  147 1    
   139   70   71 2    
   140   70   72 1    
   141   72   73 1    
   142   72   74 1    
   143   72  148 1    
   144   73  149 1    
   145   73  150 1    
   146   73  151 1    
   147   74   75 am   BACKBONE|DICT|INTERRES
   148   74  152 1    
   149   75   76 2    
   150   75   77 1    
   151   77   78 1    
   152   77   79 1    
   153   77  153 1    
   154   78  154 1    
   155   78  155 1    
   156   78  156 1    
   157   79   80 am   BACKBONE|DICT|INTERRES
   158   79  157 1    
   159   80   81 2    
@<TRIPOS>SUBSTRUCTURE
     1 UNK         1 GROUP             0       ****    0 ROOT    
