@<TRIPOS>MOLECULE
3R207
157   159    1
SMALL
USER_CHARGES


@<TRIPOS>ATOM
      1 CA        -52.1181  -22.6982    4.7538 C.3       0 UNK        -0.1975 
      2 C         -51.8353  -23.1382    6.1819 C.2       0 UNK         0.4852 
      3 O         -51.8782  -22.3171    7.0989 O.2       0 UNK        -0.5216 
      4 N         -51.5204  -24.4244    6.3818 N.am      1 UNK        -0.4461 
      5 CA        -51.2375  -25.0720    7.6712 C.3       1 UNK         0.0864 
      6 C6        -51.5148  -26.5949    7.5893 C.3       14 UNK        -0.0898 
      7 S7        -50.6006  -27.4560    6.2584 S.3       14 UNK        -0.2598 
      8 C8        -51.5984  -28.9702    6.0434 C.3       14 UNK         0.0286 
      9 C9        -51.8442  -29.7096    7.3542 C.ar      14 UNK        -0.0844 
     10 C10       -50.7710  -30.0929    8.1643 C.ar      14 UNK        -0.0881 
     11 C11       -50.9914  -30.7040    9.4032 C.ar      14 UNK        -0.0643 
     12 C12       -52.3003  -30.9910    9.7979 C.ar      14 UNK        -0.0930 
     13 C13       -53.3804  -30.6516    8.9789 C.ar      14 UNK        -0.0827 
     14 C14       -53.1492  -29.9996    7.7644 C.ar      14 UNK        -0.1249 
     15 C15       -54.7936  -30.9899    9.4185 C.3       14 UNK         0.0141 
     16 S16       -55.4435  -29.7062   10.5249 S.3       14 UNK        -0.2313 
     17 C17       -56.8348  -30.5895   11.3135 C.3       14 UNK        -0.0915 
     18 CA        -56.5547  -30.9960   12.7885 C.3       13 UNK         0.0968 
     19 C         -55.5697  -32.1913   12.9323 C.2       13 UNK         0.5732 
     20 N         -54.6139  -32.1590   13.8544 N.am      13 UNK        -0.7310 
     21 O         -55.6870  -33.1807   12.2133 O.2       13 UNK        -0.5035 
     22 N         -56.1917  -29.8298   13.6069 N.am      13 UNK        -0.4233 
     23 C         -57.0424  -29.0814   14.3154 C.2       13 UNK         0.4989 
     24 O         -58.2402  -29.3374   14.4482 O.2       13 UNK        -0.4996 
     25 CA        -56.4678  -27.8240   14.9935 C.3       12 UNK         0.0216 
     26 CB        -56.1856  -28.0947   16.4803 C.3       12 UNK        -0.1964 
     27 N         -55.2521  -27.2941   14.3646 N.am      12 UNK        -0.4276 
     28 C         -55.1897  -26.7500   13.1372 C.2       12 UNK         0.5020 
     29 O         -56.1516  -26.6797   12.3705 O.2       12 UNK        -0.5489 
     30 CA        -53.8259  -26.1475   12.7317 C.3       11 UNK         0.0294 
     31 CB        -53.8817  -25.2974   11.4455 C.3       11 UNK        -0.2019 
     32 N         -53.2152  -25.3932   13.8327 N.am      11 UNK        -0.4493 
     33 C         -53.7748  -24.3917   14.5342 C.2       11 UNK         0.4932 
     34 O         -54.8179  -23.8265   14.2036 O.2       11 UNK        -0.5029 
     35 CA        -53.0821  -23.9550   15.8412 C.3       10 UNK         0.0280 
     36 CB        -54.0969  -23.7872   16.9921 C.3       10 UNK        -0.1976 
     37 N         -51.9645  -24.8092   16.2664 N.am      10 UNK        -0.4242 
     38 C         -51.9868  -26.1083   16.6112 C.2       10 UNK         0.5072 
     39 O         -53.0071  -26.8000   16.5829 O.2       10 UNK        -0.5224 
     40 CA        -50.6371  -26.7517   16.9923 C.3       9 UNK         0.0343 
     41 CB        -50.5840  -28.2426   16.6097 C.3       9 UNK        -0.2003 
     42 N         -49.5285  -26.0574   16.3335 N.am      9 UNK        -0.4272 
     43 C         -48.6948  -25.1807   16.9127 C.2       9 UNK         0.4988 
     44 O         -48.6818  -24.9431   18.1203 O.2       9 UNK        -0.5108 
     45 CA        -47.7420  -24.3989   15.9841 C.3       8 UNK         0.0248 
     46 CB        -46.3554  -25.0608   15.9619 C.3       8 UNK        -0.2001 
     47 N         -48.2471  -24.2672   14.6110 N.am      8 UNK        -0.4140 
     48 C         -49.3623  -23.5946   14.2762 C.2       8 UNK         0.5028 
     49 O         -49.9958  -22.9084   15.0771 O.2       8 UNK        -0.5428 
     50 CA        -49.9180  -23.7608   12.8457 C.3       7 UNK         0.0264 
     51 CB        -49.5986  -22.5237   11.9945 C.3       7 UNK        -0.1988 
     52 N         -49.4410  -24.9652   12.1595 N.am      7 UNK        -0.4454 
     53 C         -49.6331  -26.2257   12.5792 C.2       7 UNK         0.5027 
     54 O         -50.3886  -26.5155   13.5090 O.2       7 UNK        -0.5083 
     55 CA        -48.7690  -27.3288   11.9292 C.3       6 UNK         0.0844 
     56 C56       -49.6230  -28.3408   11.1312 C.3       14 UNK        -0.0967 
     57 S57       -48.6065  -29.7232   10.5030 S.3       14 UNK        -0.2604 
     58 C58       -49.8288  -31.0640   10.3217 C.3       14 UNK         0.0134 
     59 N         -47.6601  -26.7856   11.1316 N.am      6 UNK        -0.4116 
     60 C         -46.5697  -26.1837   11.6281 C.2       5 UNK         0.5034 
     61 O         -46.4294  -25.9432   12.8276 O.2       5 UNK        -0.5045 
     62 CA        -45.4878  -25.7092   10.6367 C.3       5 UNK         0.0224 
     63 CB        -44.0640  -26.0476   11.1256 C.3       5 UNK        -0.1978 
     64 N         -45.7042  -26.1466    9.2498 N.am      5 UNK        -0.4737 
     65 C         -45.6440  -27.3904    8.7470 C.2       4 UNK         0.5027 
     66 O         -45.2854  -28.3724    9.3956 O.2       4 UNK        -0.5211 
     67 CA        -46.1021  -27.5874    7.2887 C.3       4 UNK         0.0297 
     68 CB        -47.2521  -28.6041    7.2248 C.3       4 UNK        -0.1993 
     69 N         -46.5659  -26.3382    6.6804 N.am      4 UNK        -0.4486 
     70 C         -45.8360  -25.5601    5.8698 C.2       3 UNK         0.4961 
     71 O         -44.7033  -25.8443    5.4803 O.2       3 UNK        -0.5105 
     72 CA        -46.4649  -24.2214    5.4358 C.3       3 UNK         0.0299 
     73 CB        -47.1991  -24.3864    4.0953 C.3       3 UNK        -0.1972 
     74 N         -47.3903  -23.6552    6.4225 N.am      3 UNK        -0.4305 
     75 C         -47.0670  -23.2932    7.6733 C.2       2 UNK         0.5006 
     76 O         -45.9257  -23.3521    8.1282 O.2       2 UNK        -0.5106 
     77 CA        -48.2127  -22.8479    8.5978 C.3       2 UNK         0.0296 
     78 CB        -48.3145  -21.3149    8.6275 C.3       2 UNK        -0.2002 
     79 N         -49.5146  -23.4141    8.2340 N.am      2 UNK        -0.4032 
     80 C         -49.8351  -24.7155    8.2299 C.2       1 UNK         0.5000 
     81 O         -49.0573  -25.5952    8.6122 O.2       1 UNK        -0.5238 
     82 H82       -52.0290  -23.5235    4.0476 H         1 UNK         0.0889 
     83 H83       -51.4177  -21.9186    4.4554 H         1 UNK         0.0889 
     84 H84       -53.1280  -22.2959    4.6795 H         1 UNK         0.0889 
     85 H85       -51.4722  -25.0482    5.5877 H         1 UNK         0.3028 
     86 H86       -51.9440  -24.6687    8.4002 H         1 UNK         0.0864 
     87 H87       -52.5815  -26.7512    7.4205 H         1 UNK         0.0720 
     88 H88       -51.3010  -27.0808    8.5407 H         1 UNK         0.0720 
     89 H89       -51.0851  -29.6369    5.3495 H         1 UNK         0.0814 
     90 H90       -52.5429  -28.6993    5.5692 H         1 UNK         0.0814 
     91 H91       -49.7616  -29.8801    7.8450 H         1 UNK         0.1469 
     92 H92       -52.4840  -31.4768   10.7468 H         1 UNK         0.1381 
     93 H93       -53.9871  -29.7161    7.1421 H         1 UNK         0.1206 
     94 H94       -55.4533  -31.0933    8.5557 H         1 UNK         0.0813 
     95 H95       -54.7940  -31.9560    9.9247 H         1 UNK         0.0813 
     96 H96       -57.1204  -31.4551   10.7132 H         1 UNK         0.0638 
     97 H97       -57.6974  -29.9221   11.2854 H         1 UNK         0.0638 
     98 H98       -57.4881  -31.4023   13.1816 H         1 UNK         0.0568 
     99 H99       -53.9932  -32.9482   13.9393 H         1 UNK         0.3450 
    100 H100      -54.5362  -31.3893   14.4983 H         1 UNK         0.3450 
    101 H101      -55.2311  -29.5302   13.5349 H         1 UNK         0.2987 
    102 H102      -57.2336  -27.0481   14.9292 H         1 UNK         0.0766 
    103 H103      -55.8782  -27.1851   16.9970 H         1 UNK         0.0798 
    104 H104      -55.3964  -28.8359   16.6133 H         1 UNK         0.0798 
    105 H105      -57.0759  -28.4690   16.9877 H         1 UNK         0.0798 
    106 H106      -54.4266  -27.2505   14.9533 H         1 UNK         0.3198 
    107 H107      -53.1664  -26.9947   12.5355 H         1 UNK         0.0843 
    108 H108      -54.5542  -24.4459   11.5525 H         1 UNK         0.0831 
    109 H109      -54.2391  -25.8909   10.6030 H         1 UNK         0.0831 
    110 H110      -52.8955  -24.9170   11.1794 H         1 UNK         0.0831 
    111 H111      -52.3340  -25.7678   14.1653 H         1 UNK         0.3133 
    112 H112      -52.6511  -22.9741   15.6378 H         1 UNK         0.0566 
    113 H113      -53.6070  -23.4599   17.9092 H         1 UNK         0.0814 
    114 H114      -54.8506  -23.0381   16.7464 H         1 UNK         0.0814 
    115 H115      -54.6240  -24.7176   17.2062 H         1 UNK         0.0814 
    116 H116      -51.0669  -24.3380   16.2648 H         1 UNK         0.3091 
    117 H117      -50.5423  -26.6757   18.0771 H         1 UNK         0.0702 
    118 H118      -49.6228  -28.6844   16.8722 H         1 UNK         0.0785 
    119 H119      -50.7400  -28.3903   15.5402 H         1 UNK         0.0785 
    120 H120      -51.3533  -28.8110   17.1340 H         1 UNK         0.0785 
    121 H121      -49.4939  -26.1706   15.3263 H         1 UNK         0.2998 
    122 H122      -47.6336  -23.3934   16.3959 H         1 UNK         0.0697 
    123 H123      -46.4004  -26.0791   15.5734 H         1 UNK         0.0825 
    124 H124      -45.9319  -25.1137   16.9658 H         1 UNK         0.0825 
    125 H125      -45.6553  -24.4980   15.3441 H         1 UNK         0.0825 
    126 H126      -47.7515  -24.7963   13.9004 H         1 UNK         0.3029 
    127 H127      -51.0032  -23.8394   12.9310 H         1 UNK         0.0897 
    128 H128      -48.5255  -22.3990   11.8460 H         1 UNK         0.0792 
    129 H129      -49.9668  -21.6155   12.4742 H         1 UNK         0.0792 
    130 H130      -50.0772  -22.5837   11.0174 H         1 UNK         0.0792 
    131 H131      -48.8211  -24.8279   11.3749 H         1 UNK         0.3086 
    132 H132      -48.3210  -27.8757   12.7619 H         1 UNK         0.0583 
    133 H133      -50.4210  -28.7467   11.7567 H         1 UNK         0.1020 
    134 H134      -50.1083  -27.8535   10.2860 H         1 UNK         0.1020 
    135 H135      -49.3259  -31.9449    9.9211 H         1 UNK         0.0694 
    136 H136      -50.1898  -31.3375   11.3145 H         1 UNK         0.0694 
    137 H137      -47.7345  -26.9018   10.1298 H         1 UNK         0.2989 
    138 H138      -45.5700  -24.6213   10.6171 H         1 UNK         0.1055 
    139 H139      -43.8585  -25.5734   12.0862 H         1 UNK         0.0806 
    140 H140      -43.3088  -25.6942   10.4237 H         1 UNK         0.0806 
    141 H141      -43.9228  -27.1200   11.2614 H         1 UNK         0.0806 
    142 H142      -45.9560  -25.4004    8.6113 H         1 UNK         0.3061 
    143 H143      -45.2552  -27.9917    6.7305 H         1 UNK         0.0734 
    144 H144      -47.5825  -28.7710    6.1996 H         1 UNK         0.0832 
    145 H145      -46.9508  -29.5707    7.6308 H         1 UNK         0.0832 
    146 H146      -48.1101  -28.2601    7.8031 H         1 UNK         0.0832 
    147 H147      -47.4864  -26.0241    6.9637 H         1 UNK         0.3156 
    148 H148      -45.6518  -23.5058    5.2971 H         1 UNK         0.0589 
    149 H149      -48.0420  -25.0743    4.1776 H         1 UNK         0.0808 
    150 H150      -47.5770  -23.4322    3.7278 H         1 UNK         0.0808 
    151 H151      -46.5295  -24.7828    3.3305 H         1 UNK         0.0808 
    152 H152      -48.3536  -23.5631    6.1370 H         1 UNK         0.3098 
    153 H153      -47.9667  -23.1990    9.6010 H         1 UNK         0.0720 
    154 H154      -49.0697  -20.9782    9.3378 H         1 UNK         0.0791 
    155 H155      -48.5725  -20.9087    7.6486 H         1 UNK         0.0791 
    156 H156      -47.3667  -20.8660    8.9282 H         1 UNK         0.0791 
    157 H157      -50.2297  -22.7666    7.9093 H         1 UNK         0.3028 
@<TRIPOS>BOND
     1    1    2 1    
     2    1   82 1    
     3    1   83 1    
     4    1   84 1    
     5    2    3 2    
     6    2    4 am   BACKBONE|DICT|INTERRES
     7    4    5 1    
     8    4   85 1    
     9    5    6 1    
    10    5   80 1    
    11    5   86 1    
    12    6    7 1    
    13    6   87 1    
    14    6   88 1    
    15    7    8 1    
    16    8    9 1    
    17    8   89 1    
    18    8   90 1    
    19    9   10 ar   
    20    9   14 ar   
    21   10   11 ar   
    22   10   91 1    
    23   11   12 ar   
    24   11   58 1    
    25   12   13 ar   
    26   12   92 1    
    27   13   14 ar   
    28   13   15 1    
    29   14   93 1    
    30   15   16 1    
    31   15   94 1    
    32   15   95 1    
    33   16   17 1    
    34   17   18 1    
    35   17   96 1    
    36   17   97 1    
    37   18   19 1    
    38   18   22 1    
    39   18   98 1    
    40   19   20 am   BACKBONE|DICT|INTERRES
    41   19   21 2    
    42   20   99 1    
    43   20  100 1    
    44   22   23 am   BACKBONE|DICT|INTERRES
    45   22  101 1    
    46   23   24 2    
    47   23   25 1    
    48   25   26 1    
    49   25   27 1    
    50   25  102 1    
    51   26  103 1    
    52   26  104 1    
    53   26  105 1    
    54   27   28 am   BACKBONE|DICT|INTERRES
    55   27  106 1    
    56   28   29 2    
    57   28   30 1    
    58   30   31 1    
    59   30   32 1    
    60   30  107 1    
    61   31  108 1    
    62   31  109 1    
    63   31  110 1    
    64   32   33 am   BACKBONE|DICT|INTERRES
    65   32  111 1    
    66   33   34 2    
    67   33   35 1    
    68   35   36 1    
    69   35   37 1    
    70   35  112 1    
    71   36  113 1    
    72   36  114 1    
    73   36  115 1    
    74   37   38 am   BACKBONE|DICT|INTERRES
    75   37  116 1    
    76   38   39 2    
    77   38   40 1    
    78   40   41 1    
    79   40   42 1    
    80   40  117 1    
    81   41  118 1    
    82   41  119 1    
    83   41  120 1    
    84   42   43 am   BACKBONE|DICT|INTERRES
    85   42  121 1    
    86   43   44 2    
    87   43   45 1    
    88   45   46 1    
    89   45   47 1    
    90   45  122 1    
    91   46  123 1    
    92   46  124 1    
    93   46  125 1    
    94   47   48 am   BACKBONE|DICT|INTERRES
    95   47  126 1    
    96   48   49 2    
    97   48   50 1    
    98   50   51 1    
    99   50   52 1    
   100   50  127 1    
   101   51  128 1    
   102   51  129 1    
   103   51  130 1    
   104   52   53 am   BACKBONE|DICT|INTERRES
   105   52  131 1    
   106   53   54 2    
   107   53   55 1    
   108   55   56 1    
   109   55   59 1    
   110   55  132 1    
   111   56   57 1    
   112   56  133 1    
   113   56  134 1    
   114   57   58 1    
   115   58  135 1    
   116   58  136 1    
   117   59   60 am   BACKBONE|DICT|INTERRES
   118   59  137 1    
   119   60   61 2    
   120   60   62 1    
   121   62   63 1    
   122   62   64 1    
   123   62  138 1    
   124   63  139 1    
   125   63  140 1    
   126   63  141 1    
   127   64   65 am   BACKBONE|DICT|INTERRES
   128   64  142 1    
   129   65   66 2    
   130   65   67 1    
   131   67   68 1    
   132   67   69 1    
   133   67  143 1    
   134   68  144 1    
   135   68  145 1    
   136   68  146 1    
   137   69   70 am   BACKBONE|DICT|INTERRES
   138   69  147 1    
   139   70   71 2    
   140   70   72 1    
   141   72   73 1    
   142   72   74 1    
   143   72  148 1    
   144   73  149 1    
   145   73  150 1    
   146   73  151 1    
   147   74   75 am   BACKBONE|DICT|INTERRES
   148   74  152 1    
   149   75   76 2    
   150   75   77 1    
   151   77   78 1    
   152   77   79 1    
   153   77  153 1    
   154   78  154 1    
   155   78  155 1    
   156   78  156 1    
   157   79   80 am   BACKBONE|DICT|INTERRES
   158   79  157 1    
   159   80   81 2    
@<TRIPOS>SUBSTRUCTURE
     1 UNK         1 GROUP             0       ****    0 ROOT    
