@<TRIPOS>MOLECULE
3R207
157   159    1
SMALL
USER_CHARGES


@<TRIPOS>ATOM
      1 CA        -44.6109  -29.7222    2.6998 C.3       0 UNK        -0.1975 
      2 C         -45.4351  -28.9166    3.6927 C.2       0 UNK         0.4852 
      3 O         -44.8822  -28.0732    4.4004 O.2       0 UNK        -0.5216 
      4 N         -46.7533  -29.1618    3.7401 N.am      1 UNK        -0.4461 
      5 CA        -47.7614  -28.5334    4.6073 C.3       1 UNK         0.0864 
      6 C6        -47.4832  -28.7466    6.1239 C.3       14 UNK        -0.0898 
      7 S7        -48.7767  -28.1052    7.2426 S.3       14 UNK        -0.2598 
      8 C8        -49.9936  -29.4612    7.1999 C.3       14 UNK         0.0286 
      9 C9        -51.1012  -29.2306    8.2181 C.ar      14 UNK        -0.0844 
     10 C10       -51.9959  -28.1717    8.0488 C.ar      14 UNK        -0.0881 
     11 C11       -52.9742  -27.9110    9.0113 C.ar      14 UNK        -0.0643 
     12 C12       -53.0703  -28.7351   10.1347 C.ar      14 UNK        -0.0930 
     13 C13       -52.1949  -29.8131   10.3144 C.ar      14 UNK        -0.0827 
     14 C14       -51.2193  -30.0556    9.3414 C.ar      14 UNK        -0.1249 
     15 C15       -52.2347  -30.7257   11.5431 C.3       14 UNK         0.0141 
     16 S16       -53.2560  -30.1495   12.9469 S.3       14 UNK        -0.2313 
     17 C17       -54.9179  -30.8035   12.5522 C.3       14 UNK        -0.0915 
     18 CA        -56.0190  -29.7067   12.3990 C.3       13 UNK         0.0968 
     19 C         -57.4393  -30.2760   12.0922 C.2       13 UNK         0.5732 
     20 N         -57.5447  -31.4097   11.4104 N.am      13 UNK        -0.7310 
     21 O         -58.4593  -29.6690   12.4156 O.2       13 UNK        -0.5035 
     22 N         -56.0104  -28.7218   13.4947 N.am      13 UNK        -0.4233 
     23 C         -56.3270  -28.9461   14.7771 C.2       13 UNK         0.4989 
     24 O         -56.6635  -30.0497   15.2110 O.2       13 UNK        -0.4996 
     25 CA        -56.2467  -27.7514   15.7554 C.3       12 UNK         0.0216 
     26 CB        -55.6732  -28.1795   17.1182 C.3       12 UNK        -0.1964 
     27 N         -55.4725  -26.6072   15.2526 N.am      12 UNK        -0.4276 
     28 C         -55.9344  -25.6738   14.4080 C.2       12 UNK         0.5020 
     29 O         -57.0762  -25.6966   13.9467 O.2       12 UNK        -0.5489 
     30 CA        -54.9598  -24.5664   13.9567 C.3       11 UNK         0.0294 
     31 CB        -55.6762  -23.2399   13.6261 C.3       11 UNK        -0.2019 
     32 N         -53.8267  -24.3422   14.8616 N.am      11 UNK        -0.4493 
     33 C         -53.8511  -23.8828   16.1215 C.2       11 UNK         0.4932 
     34 O         -54.8814  -23.5787   16.7247 O.2       11 UNK        -0.5029 
     35 CA        -52.4781  -23.7584   16.8162 C.3       10 UNK         0.0280 
     36 CB        -52.5872  -23.4911   18.3324 C.3       10 UNK        -0.1976 
     37 N         -51.6017  -24.9066   16.5488 N.am      10 UNK        -0.4242 
     38 C         -51.8537  -26.1949   16.8308 C.2       10 UNK         0.5072 
     39 O         -52.8636  -26.5727   17.4238 O.2       10 UNK        -0.5224 
     40 CA        -50.8557  -27.2610   16.3405 C.3       9 UNK         0.0343 
     41 CB        -51.5478  -28.2126   15.3516 C.3       9 UNK        -0.2003 
     42 N         -49.6606  -26.7077   15.7003 N.am      9 UNK        -0.4272 
     43 C         -48.5992  -26.2151   16.3530 C.2       9 UNK         0.4988 
     44 O         -48.4880  -26.2162   17.5792 O.2       9 UNK        -0.5108 
     45 CA        -47.4865  -25.5840   15.4952 C.3       8 UNK         0.0248 
     46 CB        -46.5181  -26.6642   14.9897 C.3       8 UNK        -0.2001 
     47 N         -47.9951  -24.8004   14.3625 N.am      8 UNK        -0.4140 
     48 C         -48.7820  -23.7195   14.4825 C.2       8 UNK         0.5028 
     49 O         -49.1538  -23.2573   15.5614 O.2       8 UNK        -0.5428 
     50 CA        -49.2908  -23.0755   13.1840 C.3       7 UNK         0.0264 
     51 CB        -48.1993  -22.2159   12.5268 C.3       7 UNK        -0.1988 
     52 N         -49.7860  -24.0611   12.2242 N.am      7 UNK        -0.4454 
     53 C         -50.8192  -24.8897   12.4348 C.2       7 UNK         0.5027 
     54 O         -51.4999  -24.8953   13.4603 O.2       7 UNK        -0.5083 
     55 CA        -51.1044  -25.9162   11.3241 C.3       6 UNK         0.0844 
     56 C56       -51.8006  -25.2481   10.1044 C.3       14 UNK        -0.0967 
     57 S57       -53.6127  -25.4575   10.1659 S.3       14 UNK        -0.2604 
     58 C58       -53.8936  -26.7059    8.8643 C.3       14 UNK         0.0134 
     59 N         -49.8862  -26.6444   10.9564 N.am      6 UNK        -0.4116 
     60 C         -49.1747  -27.4220   11.7878 C.2       5 UNK         0.5034 
     61 O         -49.5049  -27.6774   12.9441 O.2       5 UNK        -0.5045 
     62 CA        -47.8258  -27.9497   11.2726 C.3       5 UNK         0.0224 
     63 CB        -47.9550  -29.3657   10.6953 C.3       5 UNK        -0.1978 
     64 N         -47.2132  -27.0516   10.2905 N.am      5 UNK        -0.4737 
     65 C         -46.6863  -25.8628   10.6152 C.2       4 UNK         0.5027 
     66 O         -46.6346  -25.4301   11.7675 O.2       4 UNK        -0.5211 
     67 CA        -46.1827  -24.9956    9.4524 C.3       4 UNK         0.0297 
     68 CB        -44.8642  -25.5473    8.8863 C.3       4 UNK        -0.1993 
     69 N         -47.1602  -24.8545    8.3693 N.am      4 UNK        -0.4486 
     70 C         -48.3716  -24.2924    8.4849 C.2       3 UNK         0.4961 
     71 O         -48.8355  -23.9122    9.5597 O.2       3 UNK        -0.5105 
     72 CA        -49.2371  -24.1459    7.2150 C.3       3 UNK         0.0299 
     73 CB        -49.8221  -22.7246    7.0917 C.3       3 UNK        -0.1972 
     74 N         -48.5974  -24.5592    5.9580 N.am      3 UNK        -0.4305 
     75 C         -47.5214  -24.0449    5.3436 C.2       2 UNK         0.5006 
     76 O         -46.8819  -23.0852    5.7755 O.2       2 UNK        -0.5106 
     77 CA        -47.0602  -24.7641    4.0557 C.3       2 UNK         0.0296 
     78 CB        -45.6931  -24.2636    3.5526 C.3       2 UNK        -0.2002 
     79 N         -46.9928  -26.2193    4.2306 N.am      2 UNK        -0.4032 
     80 C         -48.0365  -27.0574    4.2487 C.2       1 UNK         0.5000 
     81 O         -49.1946  -26.6905    4.0399 O.2       1 UNK        -0.5238 
     82 H82       -45.2220  -30.4296    2.1395 H         1 UNK         0.0889 
     83 H83       -43.8376  -30.2831    3.2239 H         1 UNK         0.0889 
     84 H84       -44.1250  -29.0552    1.9882 H         1 UNK         0.0889 
     85 H85       -47.1294  -29.8495    3.1012 H         1 UNK         0.3028 
     86 H86       -48.6864  -29.0663    4.3814 H         1 UNK         0.0864 
     87 H87       -47.3419  -29.8089    6.3285 H         1 UNK         0.0720 
     88 H88       -46.5472  -28.2666    6.4122 H         1 UNK         0.0720 
     89 H89       -49.4884  -30.4091    7.3916 H         1 UNK         0.0814 
     90 H90       -50.4262  -29.5330    6.2012 H         1 UNK         0.0814 
     91 H91       -51.9021  -27.5287    7.1841 H         1 UNK         0.1469 
     92 H92       -53.8080  -28.4945   10.8814 H         1 UNK         0.1381 
     93 H93       -50.5300  -30.8784    9.4743 H         1 UNK         0.1206 
     94 H94       -52.5512  -31.7252   11.2429 H         1 UNK         0.0813 
     95 H95       -51.2154  -30.8317   11.9178 H         1 UNK         0.0813 
     96 H96       -55.1915  -31.5025   13.3442 H         1 UNK         0.0638 
     97 H97       -54.8467  -31.3944   11.6386 H         1 UNK         0.0638 
     98 H98       -55.7859  -29.1280   11.5075 H         1 UNK         0.0568 
     99 H99       -58.4630  -31.7646   11.1944 H         1 UNK         0.3450 
    100 H100      -56.7283  -31.9186   11.1120 H         1 UNK         0.3450 
    101 H101      -55.8042  -27.7727   13.2255 H         1 UNK         0.2987 
    102 H102      -57.2737  -27.4204   15.9229 H         1 UNK         0.0766 
    103 H103      -55.6157  -27.3375   17.8086 H         1 UNK         0.0798 
    104 H104      -54.6718  -28.5994   17.0179 H         1 UNK         0.0798 
    105 H105      -56.2986  -28.9383   17.5900 H         1 UNK         0.0798 
    106 H106      -54.5291  -26.5122   15.6057 H         1 UNK         0.3198 
    107 H107      -54.5174  -24.9318   13.0292 H         1 UNK         0.0843 
    108 H108      -56.2076  -22.8400   14.4900 H         1 UNK         0.0831 
    109 H109      -56.4093  -23.3784   12.8305 H         1 UNK         0.0831 
    110 H110      -54.9708  -22.4829   13.2837 H         1 UNK         0.0831 
    111 H111      -52.9137  -24.5604   14.4571 H         1 UNK         0.3133 
    112 H112      -51.9874  -22.8950   16.3647 H         1 UNK         0.0566 
    113 H113      -51.6024  -23.3882   18.7880 H         1 UNK         0.0814 
    114 H114      -53.1321  -22.5667   18.5276 H         1 UNK         0.0814 
    115 H115      -53.1144  -24.2936   18.8493 H         1 UNK         0.0814 
    116 H116      -50.7501  -24.6888   16.0440 H         1 UNK         0.3091 
    117 H117      -50.5490  -27.8423   17.2124 H         1 UNK         0.0702 
    118 H118      -52.4154  -28.6951   15.8032 H         1 UNK         0.0785 
    119 H119      -50.8745  -29.0054   15.0251 H         1 UNK         0.0785 
    120 H120      -51.8940  -27.6841   14.4620 H         1 UNK         0.0785 
    121 H121      -49.6467  -26.7322   14.6844 H         1 UNK         0.2998 
    122 H122      -46.9256  -24.8992   16.1345 H         1 UNK         0.0697 
    123 H123      -47.0302  -27.4085   14.3807 H         1 UNK         0.0825 
    124 H124      -46.0555  -27.1921   15.8246 H         1 UNK         0.0825 
    125 H125      -45.7144  -26.2335   14.3921 H         1 UNK         0.0825 
    126 H126      -47.7000  -25.0874   13.4330 H         1 UNK         0.3029 
    127 H127      -50.1270  -22.4233   13.4451 H         1 UNK         0.0897 
    128 H128      -48.5827  -21.6935   11.6500 H         1 UNK         0.0792 
    129 H129      -47.8273  -21.4597   13.2193 H         1 UNK         0.0792 
    130 H130      -47.3467  -22.8166   12.2080 H         1 UNK         0.0792 
    131 H131      -49.3095  -24.0987   11.3238 H         1 UNK         0.3086 
    132 H132      -51.7733  -26.6675   11.7501 H         1 UNK         0.0583 
    133 H133      -51.5784  -24.1814   10.0282 H         1 UNK         0.1020 
    134 H134      -51.4310  -25.6677    9.1698 H         1 UNK         0.1020 
    135 H135      -54.9321  -27.0367    8.9067 H         1 UNK         0.0694 
    136 H136      -53.7603  -26.2332    7.8899 H         1 UNK         0.0694 
    137 H137      -49.5146  -26.4760   10.0347 H         1 UNK         0.2989 
    138 H138      -47.1565  -28.0112   12.1326 H         1 UNK         0.1055 
    139 H139      -46.9803  -29.7786   10.4355 H         1 UNK         0.0806 
    140 H140      -48.5728  -29.3821    9.8016 H         1 UNK         0.0806 
    141 H141      -48.4123  -30.0417   11.4192 H         1 UNK         0.0806 
    142 H142      -47.2424  -27.3314    9.3195 H         1 UNK         0.3061 
    143 H143      -45.9899  -23.9970    9.8504 H         1 UNK         0.0734 
    144 H144      -44.4437  -24.8763    8.1369 H         1 UNK         0.0832 
    145 H145      -44.1178  -25.6572    9.6745 H         1 UNK         0.0832 
    146 H146      -44.9960  -26.5261    8.4234 H         1 UNK         0.0832 
    147 H147      -46.8609  -25.1298    7.4463 H         1 UNK         0.3156 
    148 H148      -50.0735  -24.8324    7.3488 H         1 UNK         0.0589 
    149 H149      -49.0390  -21.9713    7.0009 H         1 UNK         0.0808 
    150 H150      -50.4746  -22.6378    6.2230 H         1 UNK         0.0808 
    151 H151      -50.4181  -22.4672    7.9683 H         1 UNK         0.0808 
    152 H152      -49.0347  -25.3500    5.4922 H         1 UNK         0.3098 
    153 H153      -47.8001  -24.5398    3.2845 H         1 UNK         0.0720 
    154 H154      -45.4082  -24.7566    2.6230 H         1 UNK         0.0791 
    155 H155      -44.9040  -24.4453    4.2835 H         1 UNK         0.0791 
    156 H156      -45.7158  -23.1912    3.3540 H         1 UNK         0.0791 
    157 H157      -46.0763  -26.6273    4.4037 H         1 UNK         0.3028 
@<TRIPOS>BOND
     1    1    2 1    
     2    1   82 1    
     3    1   83 1    
     4    1   84 1    
     5    2    3 2    
     6    2    4 am   BACKBONE|DICT|INTERRES
     7    4    5 1    
     8    4   85 1    
     9    5    6 1    
    10    5   80 1    
    11    5   86 1    
    12    6    7 1    
    13    6   87 1    
    14    6   88 1    
    15    7    8 1    
    16    8    9 1    
    17    8   89 1    
    18    8   90 1    
    19    9   10 ar   
    20    9   14 ar   
    21   10   11 ar   
    22   10   91 1    
    23   11   12 ar   
    24   11   58 1    
    25   12   13 ar   
    26   12   92 1    
    27   13   14 ar   
    28   13   15 1    
    29   14   93 1    
    30   15   16 1    
    31   15   94 1    
    32   15   95 1    
    33   16   17 1    
    34   17   18 1    
    35   17   96 1    
    36   17   97 1    
    37   18   19 1    
    38   18   22 1    
    39   18   98 1    
    40   19   20 am   BACKBONE|DICT|INTERRES
    41   19   21 2    
    42   20   99 1    
    43   20  100 1    
    44   22   23 am   BACKBONE|DICT|INTERRES
    45   22  101 1    
    46   23   24 2    
    47   23   25 1    
    48   25   26 1    
    49   25   27 1    
    50   25  102 1    
    51   26  103 1    
    52   26  104 1    
    53   26  105 1    
    54   27   28 am   BACKBONE|DICT|INTERRES
    55   27  106 1    
    56   28   29 2    
    57   28   30 1    
    58   30   31 1    
    59   30   32 1    
    60   30  107 1    
    61   31  108 1    
    62   31  109 1    
    63   31  110 1    
    64   32   33 am   BACKBONE|DICT|INTERRES
    65   32  111 1    
    66   33   34 2    
    67   33   35 1    
    68   35   36 1    
    69   35   37 1    
    70   35  112 1    
    71   36  113 1    
    72   36  114 1    
    73   36  115 1    
    74   37   38 am   BACKBONE|DICT|INTERRES
    75   37  116 1    
    76   38   39 2    
    77   38   40 1    
    78   40   41 1    
    79   40   42 1    
    80   40  117 1    
    81   41  118 1    
    82   41  119 1    
    83   41  120 1    
    84   42   43 am   BACKBONE|DICT|INTERRES
    85   42  121 1    
    86   43   44 2    
    87   43   45 1    
    88   45   46 1    
    89   45   47 1    
    90   45  122 1    
    91   46  123 1    
    92   46  124 1    
    93   46  125 1    
    94   47   48 am   BACKBONE|DICT|INTERRES
    95   47  126 1    
    96   48   49 2    
    97   48   50 1    
    98   50   51 1    
    99   50   52 1    
   100   50  127 1    
   101   51  128 1    
   102   51  129 1    
   103   51  130 1    
   104   52   53 am   BACKBONE|DICT|INTERRES
   105   52  131 1    
   106   53   54 2    
   107   53   55 1    
   108   55   56 1    
   109   55   59 1    
   110   55  132 1    
   111   56   57 1    
   112   56  133 1    
   113   56  134 1    
   114   57   58 1    
   115   58  135 1    
   116   58  136 1    
   117   59   60 am   BACKBONE|DICT|INTERRES
   118   59  137 1    
   119   60   61 2    
   120   60   62 1    
   121   62   63 1    
   122   62   64 1    
   123   62  138 1    
   124   63  139 1    
   125   63  140 1    
   126   63  141 1    
   127   64   65 am   BACKBONE|DICT|INTERRES
   128   64  142 1    
   129   65   66 2    
   130   65   67 1    
   131   67   68 1    
   132   67   69 1    
   133   67  143 1    
   134   68  144 1    
   135   68  145 1    
   136   68  146 1    
   137   69   70 am   BACKBONE|DICT|INTERRES
   138   69  147 1    
   139   70   71 2    
   140   70   72 1    
   141   72   73 1    
   142   72   74 1    
   143   72  148 1    
   144   73  149 1    
   145   73  150 1    
   146   73  151 1    
   147   74   75 am   BACKBONE|DICT|INTERRES
   148   74  152 1    
   149   75   76 2    
   150   75   77 1    
   151   77   78 1    
   152   77   79 1    
   153   77  153 1    
   154   78  154 1    
   155   78  155 1    
   156   78  156 1    
   157   79   80 am   BACKBONE|DICT|INTERRES
   158   79  157 1    
   159   80   81 2    
@<TRIPOS>SUBSTRUCTURE
     1 UNK         1 GROUP             0       ****    0 ROOT    
