@<TRIPOS>MOLECULE
3R207
157   159    1
SMALL
USER_CHARGES


@<TRIPOS>ATOM
      1 CA        -48.1787  -31.0343   11.4717 C.3       0 UNK        -0.1975 
      2 C         -48.0352  -29.7348   10.6952 C.2       0 UNK         0.4852 
      3 O         -47.7975  -28.6888   11.2970 O.2       0 UNK        -0.5216 
      4 N         -48.1716  -29.7899    9.3627 N.am      1 UNK        -0.4461 
      5 CA        -48.1271  -28.6743    8.4035 C.3       1 UNK         0.0864 
      6 C6        -49.2150  -27.5999    8.6721 C.3       14 UNK        -0.0898 
      7 S7        -49.6047  -26.6321    7.1807 S.3       14 UNK        -0.2598 
      8 C8        -51.0939  -27.4806    6.5621 C.3       14 UNK         0.0286 
      9 C9        -52.3471  -26.9699    7.2546 C.ar      14 UNK        -0.0844 
     10 C10       -52.7330  -25.6409    7.0745 C.ar      14 UNK        -0.0881 
     11 C11       -53.8410  -25.1196    7.7468 C.ar      14 UNK        -0.0643 
     12 C12       -54.6166  -25.9697    8.5427 C.ar      14 UNK        -0.0930 
     13 C13       -54.2722  -27.3187    8.6914 C.ar      14 UNK        -0.0827 
     14 C14       -53.1223  -27.8082    8.0610 C.ar      14 UNK        -0.1249 
     15 C15       -55.1765  -28.2612    9.4762 C.3       14 UNK         0.0141 
     16 S16       -55.2925  -27.8411   11.2445 S.3       14 UNK        -0.2313 
     17 C17       -56.5505  -29.0545   11.7832 C.3       14 UNK        -0.0915 
     18 CA        -56.0864  -30.0467   12.8898 C.3       13 UNK         0.0968 
     19 C         -54.9144  -30.9867   12.4963 C.2       13 UNK         0.5732 
     20 N         -54.9466  -31.5662   11.3033 N.am      13 UNK        -0.7310 
     21 O         -53.9930  -31.2345   13.2709 O.2       13 UNK        -0.5035 
     22 N         -55.8602  -29.3764   14.1764 N.am      13 UNK        -0.4233 
     23 C         -56.8204  -29.1256   15.0755 C.2       13 UNK         0.4989 
     24 O         -58.0057  -29.4136   14.8956 O.2       13 UNK        -0.4996 
     25 CA        -56.4133  -28.4172   16.3839 C.3       12 UNK         0.0216 
     26 CB        -57.3882  -28.6966   17.5484 C.3       12 UNK        -0.1964 
     27 N         -55.0272  -28.6638   16.7931 N.am      12 UNK        -0.4276 
     28 C         -54.4549  -29.8309   17.1309 C.2       12 UNK         0.5020 
     29 O         -55.0639  -30.9001   17.1881 O.2       12 UNK        -0.5489 
     30 CA        -52.9458  -29.8105   17.4518 C.3       11 UNK         0.0294 
     31 CB        -52.1905  -30.8588   16.6152 C.3       11 UNK        -0.2019 
     32 N         -52.3535  -28.4952   17.1956 N.am      11 UNK        -0.4493 
     33 C         -52.1036  -27.5595   18.1226 C.2       11 UNK         0.4932 
     34 O         -52.2459  -27.7391   19.3319 O.2       11 UNK        -0.5029 
     35 CA        -51.6484  -26.1749   17.6186 C.3       10 UNK         0.0280 
     36 CB        -50.1187  -26.0538   17.6954 C.3       10 UNK        -0.1976 
     37 N         -52.0990  -25.8781   16.2531 N.am      10 UNK        -0.4242 
     38 C         -53.3855  -25.7010   15.9057 C.2       10 UNK         0.5072 
     39 O         -54.3079  -25.6903   16.7203 O.2       10 UNK        -0.5224 
     40 CA        -53.7279  -25.6008   14.4063 C.3       9 UNK         0.0343 
     41 CB        -53.8968  -24.1329   13.9883 C.3       9 UNK        -0.2003 
     42 N         -52.7475  -26.2552   13.5362 N.am      9 UNK        -0.4272 
     43 C         -52.4476  -27.5638   13.5821 C.2       9 UNK         0.4988 
     44 O         -53.0429  -28.3595   14.3086 O.2       9 UNK        -0.5108 
     45 CA        -51.2557  -28.0696   12.7455 C.3       8 UNK         0.0248 
     46 CB        -51.7529  -28.7767   11.4765 C.3       8 UNK        -0.2001 
     47 N         -50.2998  -27.0280   12.3633 N.am      8 UNK        -0.4140 
     48 C         -49.6359  -26.2121   13.1952 C.2       8 UNK         0.5028 
     49 O         -49.6946  -26.2905   14.4227 O.2       8 UNK        -0.5428 
     50 CA        -48.8548  -25.0512   12.5485 C.3       7 UNK         0.0264 
     51 CB        -47.3656  -25.3959   12.4074 C.3       7 UNK        -0.1988 
     52 N         -49.3762  -24.6301   11.2413 N.am      7 UNK        -0.4454 
     53 C         -50.6218  -24.1839   11.0080 C.2       7 UNK         0.5027 
     54 O         -51.4803  -24.1061   11.8872 O.2       7 UNK        -0.5083 
     55 CA        -50.9768  -23.8096    9.5522 C.3       6 UNK         0.0844 
     56 C56       -52.2123  -22.8642    9.4707 C.3       14 UNK        -0.0967 
     57 S57       -52.7623  -22.5292    7.7626 S.3       14 UNK        -0.2604 
     58 C58       -54.2040  -23.6444    7.6064 C.3       14 UNK         0.0134 
     59 N         -49.8005  -23.3582    8.7933 N.am      6 UNK        -0.4116 
     60 C         -49.0968  -22.2384    9.0119 C.2       5 UNK         0.5034 
     61 O         -49.4049  -21.3938    9.8539 O.2       5 UNK        -0.5045 
     62 CA        -47.8085  -22.0332    8.1943 C.3       5 UNK         0.0224 
     63 CB        -46.6263  -21.6729    9.1128 C.3       5 UNK        -0.1978 
     64 N         -47.4192  -23.1964    7.3895 N.am      5 UNK        -0.4737 
     65 C         -47.7613  -23.3891    6.1069 C.2       4 UNK         0.5027 
     66 O         -48.5881  -22.6906    5.5196 O.2       4 UNK        -0.5211 
     67 CA        -47.0487  -24.5362    5.3517 C.3       4 UNK         0.0297 
     68 CB        -46.9696  -24.2888    3.8305 C.3       4 UNK        -0.1993 
     69 N         -45.7247  -24.8570    5.9034 N.am      4 UNK        -0.4486 
     70 C         -44.6721  -24.0287    6.0180 C.2       3 UNK         0.4961 
     71 O         -44.6326  -22.9044    5.5160 O.2       3 UNK        -0.5105 
     72 CA        -43.4652  -24.5157    6.8515 C.3       3 UNK         0.0299 
     73 CB        -42.8626  -23.3770    7.7022 C.3       3 UNK        -0.1972 
     74 N         -43.7246  -25.6909    7.6972 N.am      3 UNK        -0.4305 
     75 C         -44.6391  -25.8167    8.6705 C.2       2 UNK         0.5006 
     76 O         -45.4474  -24.9407    8.9905 O.2       2 UNK        -0.5106 
     77 CA        -44.6837  -27.1839    9.3713 C.3       2 UNK         0.0296 
     78 CB        -44.2135  -27.0671   10.8298 C.3       2 UNK        -0.2002 
     79 N         -46.0231  -27.7728    9.3301 N.am      2 UNK        -0.4032 
     80 C         -46.7222  -28.0523    8.2214 C.2       1 UNK         0.5000 
     81 O         -46.2928  -27.8546    7.0816 O.2       1 UNK        -0.5238 
     82 H82       -47.2579  -31.2507   12.0124 H         1 UNK         0.0889 
     83 H83       -48.3977  -31.8790   10.8189 H         1 UNK         0.0889 
     84 H84       -48.9874  -30.9466   12.1969 H         1 UNK         0.0889 
     85 H85       -48.3265  -30.6942    8.9380 H         1 UNK         0.3028 
     86 H86       -48.3665  -29.1450    7.4482 H         1 UNK         0.0864 
     87 H87       -48.9062  -26.9187    9.4657 H         1 UNK         0.0720 
     88 H88       -50.1346  -28.0702    9.0208 H         1 UNK         0.0720 
     89 H89       -50.9845  -28.5598    6.6803 H         1 UNK         0.0814 
     90 H90       -51.1830  -27.2973    5.4905 H         1 UNK         0.0814 
     91 H91       -52.1360  -24.9962    6.4437 H         1 UNK         0.1469 
     92 H92       -55.4968  -25.5876    9.0416 H         1 UNK         0.1381 
     93 H93       -52.8420  -28.8457    8.1814 H         1 UNK         0.1206 
     94 H94       -56.1737  -28.2307    9.0347 H         1 UNK         0.0813 
     95 H95       -54.8288  -29.2910    9.3827 H         1 UNK         0.0813 
     96 H96       -57.4137  -28.4909   12.1400 H         1 UNK         0.0638 
     97 H97       -56.9189  -29.6095   10.9197 H         1 UNK         0.0638 
     98 H98       -56.9089  -30.7478   13.0425 H         1 UNK         0.0568 
     99 H99       -54.1999  -32.1927   11.0489 H         1 UNK         0.3450 
    100 H100      -55.7089  -31.4095   10.6645 H         1 UNK         0.3450 
    101 H101      -54.8903  -29.1473   14.3775 H         1 UNK         0.2987 
    102 H102      -56.4707  -27.3503   16.1647 H         1 UNK         0.0766 
    103 H103      -58.3980  -28.3649   17.3039 H         1 UNK         0.0798 
    104 H104      -57.0872  -28.1679   18.4528 H         1 UNK         0.0798 
    105 H105      -57.4441  -29.7599   17.7834 H         1 UNK         0.0798 
    106 H106      -54.4407  -27.8383   16.8023 H         1 UNK         0.3198 
    107 H107      -52.8367  -30.0731   18.5061 H         1 UNK         0.0843 
    108 H108      -52.3103  -30.6838   15.5450 H         1 UNK         0.0831 
    109 H109      -52.5590  -31.8645   16.8213 H         1 UNK         0.0831 
    110 H110      -51.1240  -30.8537   16.8397 H         1 UNK         0.0831 
    111 H111      -52.2449  -28.2568   16.2154 H         1 UNK         0.3133 
    112 H112      -52.0811  -25.4237   18.2826 H         1 UNK         0.0566 
    113 H113      -49.7795  -25.0707   17.3684 H         1 UNK         0.0814 
    114 H114      -49.6230  -26.8025   17.0762 H         1 UNK         0.0814 
    115 H115      -49.7675  -26.1945   18.7186 H         1 UNK         0.0814 
    116 H116      -51.3876  -25.9027   15.5274 H         1 UNK         0.3091 
    117 H117      -54.6830  -26.1084   14.2550 H         1 UNK         0.0702 
    118 H118      -54.1943  -24.0505   12.9426 H         1 UNK         0.0785 
    119 H119      -52.9729  -23.5682   14.1197 H         1 UNK         0.0785 
    120 H120      -54.6674  -23.6429   14.5849 H         1 UNK         0.0785 
    121 H121      -52.2207  -25.6455   12.9178 H         1 UNK         0.2998 
    122 H122      -50.7192  -28.7968   13.3580 H         1 UNK         0.0697 
    123 H123      -50.9407  -29.2729   10.9486 H         1 UNK         0.0825 
    124 H124      -52.2282  -28.0767   10.7895 H         1 UNK         0.0825 
    125 H125      -52.4876  -29.5438   11.7180 H         1 UNK         0.0825 
    126 H126      -50.1671  -26.8851   11.3748 H         1 UNK         0.3029 
    127 H127      -48.9439  -24.1977   13.2240 H         1 UNK         0.0897 
    128 H128      -47.2066  -26.1826   11.6713 H         1 UNK         0.0792 
    129 H129      -46.9503  -25.7439   13.3543 H         1 UNK         0.0792 
    130 H130      -46.7836  -24.5277   12.0970 H         1 UNK         0.0792 
    131 H131      -48.7248  -24.6486   10.4705 H         1 UNK         0.3086 
    132 H132      -51.2613  -24.7585    9.1022 H         1 UNK         0.0583 
    133 H133      -53.0541  -23.2872   10.0226 H         1 UNK         0.1020 
    134 H134      -51.9966  -21.9101    9.9538 H         1 UNK         0.1020 
    135 H135      -54.9512  -23.3576    8.3480 H         1 UNK         0.0694 
    136 H136      -54.6623  -23.4899    6.6289 H         1 UNK         0.0694 
    137 H137      -49.4810  -23.9772    8.0615 H         1 UNK         0.2989 
    138 H138      -47.9900  -21.1824    7.5336 H         1 UNK         0.1055 
    139 H139      -46.4177  -22.4662    9.8318 H         1 UNK         0.0806 
    140 H140      -46.8269  -20.7626    9.6794 H         1 UNK         0.0806 
    141 H141      -45.7177  -21.4969    8.5364 H         1 UNK         0.0806 
    142 H142      -46.7408  -23.8250    7.8109 H         1 UNK         0.3061 
    143 H143      -47.6558  -25.4279    5.5001 H         1 UNK         0.0734 
    144 H144      -47.9669  -24.2064    3.3965 H         1 UNK         0.0832 
    145 H145      -46.4382  -23.3661    3.5960 H         1 UNK         0.0832 
    146 H146      -46.4632  -25.1080    3.3204 H         1 UNK         0.0832 
    147 H147      -45.6558  -25.7662    6.3468 H         1 UNK         0.3156 
    148 H148      -42.7090  -24.8246    6.1285 H         1 UNK         0.0589 
    149 H149      -43.5861  -22.9802    8.4152 H         1 UNK         0.0808 
    150 H150      -41.9925  -23.7180    8.2631 H         1 UNK         0.0808 
    151 H151      -42.5345  -22.5463    7.0762 H         1 UNK         0.0808 
    152 H152      -43.1433  -26.4938    7.4967 H         1 UNK         0.3098 
    153 H153      -44.0143  -27.8739    8.8536 H         1 UNK         0.0720 
    154 H154      -44.8261  -26.3679   11.3987 H         1 UNK         0.0791 
    155 H155      -43.1849  -26.7075   10.8782 H         1 UNK         0.0791 
    156 H156      -44.2443  -28.0312   11.3378 H         1 UNK         0.0791 
    157 H157      -46.4780  -27.9686   10.2189 H         1 UNK         0.3028 
@<TRIPOS>BOND
     1    1    2 1    
     2    1   82 1    
     3    1   83 1    
     4    1   84 1    
     5    2    3 2    
     6    2    4 am   BACKBONE|DICT|INTERRES
     7    4    5 1    
     8    4   85 1    
     9    5    6 1    
    10    5   80 1    
    11    5   86 1    
    12    6    7 1    
    13    6   87 1    
    14    6   88 1    
    15    7    8 1    
    16    8    9 1    
    17    8   89 1    
    18    8   90 1    
    19    9   10 ar   
    20    9   14 ar   
    21   10   11 ar   
    22   10   91 1    
    23   11   12 ar   
    24   11   58 1    
    25   12   13 ar   
    26   12   92 1    
    27   13   14 ar   
    28   13   15 1    
    29   14   93 1    
    30   15   16 1    
    31   15   94 1    
    32   15   95 1    
    33   16   17 1    
    34   17   18 1    
    35   17   96 1    
    36   17   97 1    
    37   18   19 1    
    38   18   22 1    
    39   18   98 1    
    40   19   20 am   BACKBONE|DICT|INTERRES
    41   19   21 2    
    42   20   99 1    
    43   20  100 1    
    44   22   23 am   BACKBONE|DICT|INTERRES
    45   22  101 1    
    46   23   24 2    
    47   23   25 1    
    48   25   26 1    
    49   25   27 1    
    50   25  102 1    
    51   26  103 1    
    52   26  104 1    
    53   26  105 1    
    54   27   28 am   BACKBONE|DICT|INTERRES
    55   27  106 1    
    56   28   29 2    
    57   28   30 1    
    58   30   31 1    
    59   30   32 1    
    60   30  107 1    
    61   31  108 1    
    62   31  109 1    
    63   31  110 1    
    64   32   33 am   BACKBONE|DICT|INTERRES
    65   32  111 1    
    66   33   34 2    
    67   33   35 1    
    68   35   36 1    
    69   35   37 1    
    70   35  112 1    
    71   36  113 1    
    72   36  114 1    
    73   36  115 1    
    74   37   38 am   BACKBONE|DICT|INTERRES
    75   37  116 1    
    76   38   39 2    
    77   38   40 1    
    78   40   41 1    
    79   40   42 1    
    80   40  117 1    
    81   41  118 1    
    82   41  119 1    
    83   41  120 1    
    84   42   43 am   BACKBONE|DICT|INTERRES
    85   42  121 1    
    86   43   44 2    
    87   43   45 1    
    88   45   46 1    
    89   45   47 1    
    90   45  122 1    
    91   46  123 1    
    92   46  124 1    
    93   46  125 1    
    94   47   48 am   BACKBONE|DICT|INTERRES
    95   47  126 1    
    96   48   49 2    
    97   48   50 1    
    98   50   51 1    
    99   50   52 1    
   100   50  127 1    
   101   51  128 1    
   102   51  129 1    
   103   51  130 1    
   104   52   53 am   BACKBONE|DICT|INTERRES
   105   52  131 1    
   106   53   54 2    
   107   53   55 1    
   108   55   56 1    
   109   55   59 1    
   110   55  132 1    
   111   56   57 1    
   112   56  133 1    
   113   56  134 1    
   114   57   58 1    
   115   58  135 1    
   116   58  136 1    
   117   59   60 am   BACKBONE|DICT|INTERRES
   118   59  137 1    
   119   60   61 2    
   120   60   62 1    
   121   62   63 1    
   122   62   64 1    
   123   62  138 1    
   124   63  139 1    
   125   63  140 1    
   126   63  141 1    
   127   64   65 am   BACKBONE|DICT|INTERRES
   128   64  142 1    
   129   65   66 2    
   130   65   67 1    
   131   67   68 1    
   132   67   69 1    
   133   67  143 1    
   134   68  144 1    
   135   68  145 1    
   136   68  146 1    
   137   69   70 am   BACKBONE|DICT|INTERRES
   138   69  147 1    
   139   70   71 2    
   140   70   72 1    
   141   72   73 1    
   142   72   74 1    
   143   72  148 1    
   144   73  149 1    
   145   73  150 1    
   146   73  151 1    
   147   74   75 am   BACKBONE|DICT|INTERRES
   148   74  152 1    
   149   75   76 2    
   150   75   77 1    
   151   77   78 1    
   152   77   79 1    
   153   77  153 1    
   154   78  154 1    
   155   78  155 1    
   156   78  156 1    
   157   79   80 am   BACKBONE|DICT|INTERRES
   158   79  157 1    
   159   80   81 2    
@<TRIPOS>SUBSTRUCTURE
     1 UNK         1 GROUP             0       ****    0 ROOT    
