@<TRIPOS>MOLECULE
3R207
157   159    1
SMALL
USER_CHARGES


@<TRIPOS>ATOM
      1 CA        -46.2335  -30.2177    2.8004 C.3       0 UNK        -0.1975 
      2 C         -47.1798  -31.1646    3.5339 C.2       0 UNK         0.4852 
      3 O         -46.7857  -32.2854    3.8503 O.2       0 UNK        -0.5216 
      4 N         -48.4287  -30.7723    3.8267 N.am      1 UNK        -0.4461 
      5 CA        -49.0440  -29.4649    3.5552 C.3       1 UNK         0.0864 
      6 C6        -50.5890  -29.5694    3.4671 C.3       14 UNK        -0.0898 
      7 S7        -51.3811  -30.3235    4.9308 S.3       14 UNK        -0.2598 
      8 C8        -52.0144  -28.8367    5.7627 C.3       14 UNK         0.0286 
      9 C9        -52.6107  -29.1595    7.1222 C.ar      14 UNK        -0.0844 
     10 C10       -51.7825  -29.5890    8.1639 C.ar      14 UNK        -0.0881 
     11 C11       -52.3171  -29.8832    9.4214 C.ar      14 UNK        -0.0643 
     12 C12       -53.6904  -29.7398    9.6280 C.ar      14 UNK        -0.0930 
     13 C13       -54.5288  -29.2829    8.6070 C.ar      14 UNK        -0.0827 
     14 C14       -53.9828  -29.0094    7.3480 C.ar      14 UNK        -0.1249 
     15 C15       -56.0195  -29.1146    8.8913 C.3       14 UNK         0.0141 
     16 S16       -56.7840  -27.6167    8.1704 S.3       14 UNK        -0.2313 
     17 C17       -55.9129  -26.1465    8.8383 C.3       14 UNK        -0.0915 
     18 CA        -55.0570  -26.2908   10.1292 C.3       13 UNK         0.0968 
     19 C         -54.2696  -24.9810   10.4485 C.2       13 UNK         0.5732 
     20 N         -54.1690  -24.5409   11.6982 N.am      13 UNK        -0.7310 
     21 O         -53.7474  -24.3371    9.5432 O.2       13 UNK        -0.5035 
     22 N         -55.8541  -26.7758   11.2690 N.am      13 UNK        -0.4233 
     23 C         -55.3575  -27.5320   12.2523 C.2       13 UNK         0.4989 
     24 O         -54.2334  -28.0342   12.2309 O.2       13 UNK        -0.4996 
     25 CA        -56.2658  -27.7676   13.4721 C.3       12 UNK         0.0216 
     26 CB        -57.1656  -28.9930   13.2424 C.3       12 UNK        -0.1964 
     27 N         -55.4680  -27.9728   14.6856 N.am      12 UNK        -0.4276 
     28 C         -54.6249  -27.0639   15.1954 C.2       12 UNK         0.5020 
     29 O         -54.5822  -25.8885   14.8154 O.2       12 UNK        -0.5489 
     30 CA        -53.6543  -27.5766   16.2737 C.3       11 UNK         0.0294 
     31 CB        -52.7658  -28.7112   15.7274 C.3       11 UNK        -0.2019 
     32 N         -52.7832  -26.4922   16.7188 N.am      11 UNK        -0.4493 
     33 C         -52.9864  -25.7384   17.8054 C.2       11 UNK         0.4932 
     34 O         -53.8966  -25.9356   18.6133 O.2       11 UNK        -0.5029 
     35 CA        -52.0158  -24.5596   18.0146 C.3       10 UNK         0.0280 
     36 CB        -52.0060  -24.0273   19.4640 C.3       10 UNK        -0.1976 
     37 N         -50.6553  -24.8408   17.5415 N.am      10 UNK        -0.4242 
     38 C         -49.7979  -25.7633   18.0095 C.2       10 UNK         0.5072 
     39 O         -50.0424  -26.4988   18.9672 O.2       10 UNK        -0.5224 
     40 CA        -48.4367  -25.9156   17.2968 C.3       9 UNK         0.0343 
     41 CB        -48.3077  -27.3151   16.6707 C.3       9 UNK        -0.2003 
     42 N         -48.1897  -24.9107   16.2597 N.am      9 UNK        -0.4272 
     43 C         -47.8820  -23.6260   16.4844 C.2       9 UNK         0.4988 
     44 O         -47.6778  -23.1564   17.6042 O.2       9 UNK        -0.5108 
     45 CA        -47.8422  -22.6969   15.2573 C.3       8 UNK         0.0248 
     46 CB        -46.4373  -22.6842   14.6348 C.3       8 UNK        -0.2001 
     47 N         -48.8421  -23.0350   14.2348 N.am      8 UNK        -0.4140 
     48 C         -50.1698  -23.0096   14.4343 C.2       8 UNK         0.5028 
     49 O         -50.6908  -22.6684   15.4957 O.2       8 UNK        -0.5428 
     50 CA        -51.0719  -23.4878   13.2845 C.3       7 UNK         0.0264 
     51 CB        -51.1886  -22.4080   12.1963 C.3       7 UNK        -0.1988 
     52 N         -50.6142  -24.7457   12.6922 N.am      7 UNK        -0.4454 
     53 C         -50.5387  -25.9173   13.3419 C.2       7 UNK         0.5027 
     54 O         -50.9172  -26.0766   14.5038 O.2       7 UNK        -0.5083 
     55 CA        -49.8528  -27.0859   12.6007 C.3       6 UNK         0.0844 
     56 C56       -50.8341  -27.8545   11.6835 C.3       14 UNK        -0.0967 
     57 S57       -50.0229  -29.2926   10.9028 S.3       14 UNK        -0.2604 
     58 C58       -51.4278  -30.3940   10.5486 C.3       14 UNK         0.0134 
     59 N         -48.6551  -26.6373   11.8834 N.am      6 UNK        -0.4116 
     60 C         -47.5530  -26.1505   12.4688 C.2       5 UNK         0.5034 
     61 O         -47.4041  -26.0577   13.6865 O.2       5 UNK        -0.5045 
     62 CA        -46.4508  -25.6314   11.5351 C.3       5 UNK         0.0224 
     63 CB        -45.5748  -26.7851   11.0214 C.3       5 UNK        -0.1978 
     64 N         -47.0098  -24.8798   10.4090 N.am      5 UNK        -0.4737 
     65 C         -47.5690  -23.6670   10.5301 C.2       4 UNK         0.5027 
     66 O         -47.6238  -23.0465   11.5908 O.2       4 UNK        -0.5211 
     67 CA        -48.2073  -23.0558    9.2713 C.3       4 UNK         0.0297 
     68 CB        -47.1564  -22.2877    8.4549 C.3       4 UNK        -0.1993 
     69 N         -48.8682  -24.0436    8.4152 N.am      4 UNK        -0.4486 
     70 C         -49.9135  -24.7978    8.7851 C.2       3 UNK         0.4961 
     71 O         -50.4424  -24.7396    9.8930 O.2       3 UNK        -0.5105 
     72 CA        -50.4138  -25.8303    7.7620 C.3       3 UNK         0.0299 
     73 CB        -51.3876  -25.1680    6.7733 C.3       3 UNK        -0.1972 
     74 N         -49.3314  -26.4958    7.0254 N.am      3 UNK        -0.4305 
     75 C         -48.3229  -27.1834    7.5793 C.2       2 UNK         0.5006 
     76 O         -48.1702  -27.2991    8.7962 O.2       2 UNK        -0.5106 
     77 CA        -47.3061  -27.8224    6.6118 C.3       2 UNK         0.0296 
     78 CB        -46.1898  -28.5849    7.3505 C.3       2 UNK        -0.2002 
     79 N         -47.9256  -28.7264    5.6373 N.am      2 UNK        -0.4032 
     80 C         -48.5900  -28.3551    4.5328 C.2       1 UNK         0.5000 
     81 O         -48.8387  -27.1781    4.2640 O.2       1 UNK        -0.5238 
     82 H82       -46.0536  -29.3118    3.3777 H         1 UNK         0.0889 
     83 H83       -46.6349  -29.9433    1.8254 H         1 UNK         0.0889 
     84 H84       -45.2691  -30.6976    2.6345 H         1 UNK         0.0889 
     85 H85       -49.0381  -31.4268    4.2986 H         1 UNK         0.3028 
     86 H86       -48.7084  -29.1370    2.5699 H         1 UNK         0.0864 
     87 H87       -51.0348  -28.5940    3.2615 H         1 UNK         0.0720 
     88 H88       -50.8527  -30.1876    2.6075 H         1 UNK         0.0720 
     89 H89       -52.7498  -28.3486    5.1210 H         1 UNK         0.0814 
     90 H90       -51.1990  -28.1295    5.8958 H         1 UNK         0.0814 
     91 H91       -50.7202  -29.7013    7.9942 H         1 UNK         0.1469 
     92 H92       -54.1082  -29.9788   10.5958 H         1 UNK         0.1381 
     93 H93       -54.6255  -28.6716    6.5467 H         1 UNK         0.1206 
     94 H94       -56.5359  -29.9831    8.4814 H         1 UNK         0.0813 
     95 H95       -56.2193  -29.1347    9.9620 H         1 UNK         0.0813 
     96 H96       -56.6632  -25.3676    8.9838 H         1 UNK         0.0638 
     97 H97       -55.2808  -25.7926    8.0218 H         1 UNK         0.0638 
     98 H98       -54.2694  -27.0109    9.9160 H         1 UNK         0.0568 
     99 H99       -53.6630  -23.6887   11.8671 H         1 UNK         0.3450 
    100 H100      -54.5479  -25.0649   12.4730 H         1 UNK         0.3450 
    101 H101      -56.7846  -26.3940   11.3536 H         1 UNK         0.2987 
    102 H102      -56.8925  -26.8861   13.6228 H         1 UNK         0.0766 
    103 H103      -57.8293  -29.1639   14.0903 H         1 UNK         0.0798 
    104 H104      -56.5801  -29.9000   13.0847 H         1 UNK         0.0798 
    105 H105      -57.7961  -28.8566   12.3626 H         1 UNK         0.0798 
    106 H106      -55.4259  -28.9175   15.0384 H         1 UNK         0.3198 
    107 H107      -54.2405  -27.9598   17.1116 H         1 UNK         0.0843 
    108 H108      -52.2561  -28.4175   14.8089 H         1 UNK         0.0831 
    109 H109      -53.3496  -29.6039   15.5022 H         1 UNK         0.0831 
    110 H110      -52.0045  -29.0022   16.4516 H         1 UNK         0.0831 
    111 H111      -52.0589  -26.2186   16.0583 H         1 UNK         0.3133 
    112 H112      -52.3891  -23.7561   17.3785 H         1 UNK         0.0566 
    113 H113      -51.3177  -23.1893   19.5736 H         1 UNK         0.0814 
    114 H114      -52.9951  -23.6728   19.7562 H         1 UNK         0.0814 
    115 H115      -51.7148  -24.7979   20.1782 H         1 UNK         0.0814 
    116 H116      -50.3680  -24.2843   16.7431 H         1 UNK         0.3091 
    117 H117      -47.6623  -25.8136   18.0597 H         1 UNK         0.0702 
    118 H118      -47.3315  -27.4537   16.2057 H         1 UNK         0.0785 
    119 H119      -49.0685  -27.4866   15.9088 H         1 UNK         0.0785 
    120 H120      -48.4205  -28.0952   17.4246 H         1 UNK         0.0785 
    121 H121      -48.2573  -25.2292   15.2976 H         1 UNK         0.2998 
    122 H122      -48.0652  -21.6867   15.6068 H         1 UNK         0.0697 
    123 H123      -46.1625  -23.6619   14.2392 H         1 UNK         0.0825 
    124 H124      -45.6846  -22.4081   15.3744 H         1 UNK         0.0825 
    125 H125      -46.3705  -21.9624   13.8206 H         1 UNK         0.0825 
    126 H126      -48.4865  -23.2694   13.3110 H         1 UNK         0.3029 
    127 H127      -52.0664  -23.6674   13.6989 H         1 UNK         0.0897 
    128 H128      -51.8355  -22.7284   11.3797 H         1 UNK         0.0792 
    129 H129      -51.6082  -21.4877   12.6046 H         1 UNK         0.0792 
    130 H130      -50.2177  -22.1603   11.7674 H         1 UNK         0.0792 
    131 H131      -50.3548  -24.7183   11.7065 H         1 UNK         0.3086 
    132 H132      -49.5150  -27.7840   13.3698 H         1 UNK         0.0583 
    133 H133      -51.6849  -28.2092   12.2660 H         1 UNK         0.1020 
    134 H134      -51.2400  -27.2081   10.9029 H         1 UNK         0.1020 
    135 H135      -51.0388  -31.3728   10.2654 H         1 UNK         0.0694 
    136 H136      -52.0005  -30.5444   11.4652 H         1 UNK         0.0694 
    137 H137      -48.6781  -26.7124   10.8727 H         1 UNK         0.2989 
    138 H138      -45.8156  -24.9565   12.1132 H         1 UNK         0.1055 
    139 H139      -45.0895  -27.2998   11.8517 H         1 UNK         0.0806 
    140 H140      -44.7874  -26.4238   10.3600 H         1 UNK         0.0806 
    141 H141      -46.1568  -27.5296   10.4779 H         1 UNK         0.0806 
    142 H142      -47.0735  -25.3618    9.5225 H         1 UNK         0.3061 
    143 H143      -48.9682  -22.3456    9.6012 H         1 UNK         0.0734 
    144 H144      -47.6095  -21.7711    7.6085 H         1 UNK         0.0832 
    145 H145      -46.6655  -21.5305    9.0682 H         1 UNK         0.0832 
    146 H146      -46.3787  -22.9486    8.0702 H         1 UNK         0.0832 
    147 H147      -48.4958  -24.1684    7.4852 H         1 UNK         0.3156 
    148 H148      -50.9566  -26.6013    8.3132 H         1 UNK         0.0589 
    149 H149      -52.1945  -24.6616    7.3049 H         1 UNK         0.0808 
    150 H150      -50.8898  -24.4223    6.1524 H         1 UNK         0.0808 
    151 H151      -51.8535  -25.8966    6.1119 H         1 UNK         0.0808 
    152 H152      -49.3603  -26.4551    6.0104 H         1 UNK         0.3098 
    153 H153      -46.8341  -27.0026    6.0660 H         1 UNK         0.0720 
    154 H154      -46.5884  -29.4081    7.9450 H         1 UNK         0.0791 
    155 H155      -45.6483  -27.9246    8.0290 H         1 UNK         0.0791 
    156 H156      -45.4591  -28.9956    6.6535 H         1 UNK         0.0791 
    157 H157      -47.8119  -29.7154    5.8075 H         1 UNK         0.3028 
@<TRIPOS>BOND
     1    1    2 1    
     2    1   82 1    
     3    1   83 1    
     4    1   84 1    
     5    2    3 2    
     6    2    4 am   BACKBONE|DICT|INTERRES
     7    4    5 1    
     8    4   85 1    
     9    5    6 1    
    10    5   80 1    
    11    5   86 1    
    12    6    7 1    
    13    6   87 1    
    14    6   88 1    
    15    7    8 1    
    16    8    9 1    
    17    8   89 1    
    18    8   90 1    
    19    9   10 ar   
    20    9   14 ar   
    21   10   11 ar   
    22   10   91 1    
    23   11   12 ar   
    24   11   58 1    
    25   12   13 ar   
    26   12   92 1    
    27   13   14 ar   
    28   13   15 1    
    29   14   93 1    
    30   15   16 1    
    31   15   94 1    
    32   15   95 1    
    33   16   17 1    
    34   17   18 1    
    35   17   96 1    
    36   17   97 1    
    37   18   19 1    
    38   18   22 1    
    39   18   98 1    
    40   19   20 am   BACKBONE|DICT|INTERRES
    41   19   21 2    
    42   20   99 1    
    43   20  100 1    
    44   22   23 am   BACKBONE|DICT|INTERRES
    45   22  101 1    
    46   23   24 2    
    47   23   25 1    
    48   25   26 1    
    49   25   27 1    
    50   25  102 1    
    51   26  103 1    
    52   26  104 1    
    53   26  105 1    
    54   27   28 am   BACKBONE|DICT|INTERRES
    55   27  106 1    
    56   28   29 2    
    57   28   30 1    
    58   30   31 1    
    59   30   32 1    
    60   30  107 1    
    61   31  108 1    
    62   31  109 1    
    63   31  110 1    
    64   32   33 am   BACKBONE|DICT|INTERRES
    65   32  111 1    
    66   33   34 2    
    67   33   35 1    
    68   35   36 1    
    69   35   37 1    
    70   35  112 1    
    71   36  113 1    
    72   36  114 1    
    73   36  115 1    
    74   37   38 am   BACKBONE|DICT|INTERRES
    75   37  116 1    
    76   38   39 2    
    77   38   40 1    
    78   40   41 1    
    79   40   42 1    
    80   40  117 1    
    81   41  118 1    
    82   41  119 1    
    83   41  120 1    
    84   42   43 am   BACKBONE|DICT|INTERRES
    85   42  121 1    
    86   43   44 2    
    87   43   45 1    
    88   45   46 1    
    89   45   47 1    
    90   45  122 1    
    91   46  123 1    
    92   46  124 1    
    93   46  125 1    
    94   47   48 am   BACKBONE|DICT|INTERRES
    95   47  126 1    
    96   48   49 2    
    97   48   50 1    
    98   50   51 1    
    99   50   52 1    
   100   50  127 1    
   101   51  128 1    
   102   51  129 1    
   103   51  130 1    
   104   52   53 am   BACKBONE|DICT|INTERRES
   105   52  131 1    
   106   53   54 2    
   107   53   55 1    
   108   55   56 1    
   109   55   59 1    
   110   55  132 1    
   111   56   57 1    
   112   56  133 1    
   113   56  134 1    
   114   57   58 1    
   115   58  135 1    
   116   58  136 1    
   117   59   60 am   BACKBONE|DICT|INTERRES
   118   59  137 1    
   119   60   61 2    
   120   60   62 1    
   121   62   63 1    
   122   62   64 1    
   123   62  138 1    
   124   63  139 1    
   125   63  140 1    
   126   63  141 1    
   127   64   65 am   BACKBONE|DICT|INTERRES
   128   64  142 1    
   129   65   66 2    
   130   65   67 1    
   131   67   68 1    
   132   67   69 1    
   133   67  143 1    
   134   68  144 1    
   135   68  145 1    
   136   68  146 1    
   137   69   70 am   BACKBONE|DICT|INTERRES
   138   69  147 1    
   139   70   71 2    
   140   70   72 1    
   141   72   73 1    
   142   72   74 1    
   143   72  148 1    
   144   73  149 1    
   145   73  150 1    
   146   73  151 1    
   147   74   75 am   BACKBONE|DICT|INTERRES
   148   74  152 1    
   149   75   76 2    
   150   75   77 1    
   151   77   78 1    
   152   77   79 1    
   153   77  153 1    
   154   78  154 1    
   155   78  155 1    
   156   78  156 1    
   157   79   80 am   BACKBONE|DICT|INTERRES
   158   79  157 1    
   159   80   81 2    
@<TRIPOS>SUBSTRUCTURE
     1 UNK         1 GROUP             0       ****    0 ROOT    
