@<TRIPOS>MOLECULE
3R207
157   159    1
SMALL
USER_CHARGES


@<TRIPOS>ATOM
      1 CA        -44.5524  -26.8418    8.6198 C.3       0 UNK        -0.1975 
      2 C         -44.9278  -27.9763    7.6785 C.2       0 UNK         0.4852 
      3 O         -44.2873  -29.0275    7.7014 O.2       0 UNK        -0.5216 
      4 N         -45.9455  -27.7588    6.8387 N.am      1 UNK        -0.4461 
      5 CA        -46.4418  -28.7008    5.8314 C.3       1 UNK         0.0864 
      6 C6        -47.9364  -29.0528    6.0548 C.3       14 UNK        -0.0898 
      7 S7        -48.2206  -29.8965    7.6478 S.3       14 UNK        -0.2598 
      8 C8        -48.8740  -28.5393    8.6714 C.3       14 UNK         0.0286 
      9 C9        -50.3731  -28.3585    8.4853 C.ar      14 UNK        -0.0844 
     10 C10       -50.8699  -27.4185    7.5760 C.ar      14 UNK        -0.0881 
     11 C11       -52.2478  -27.2096    7.4561 C.ar      14 UNK        -0.0643 
     12 C12       -53.1300  -27.9671    8.2306 C.ar      14 UNK        -0.0930 
     13 C13       -52.6440  -28.8985    9.1507 C.ar      14 UNK        -0.0827 
     14 C14       -51.2658  -29.0975    9.2684 C.ar      14 UNK        -0.1249 
     15 C15       -53.6169  -29.6472   10.0439 C.3       14 UNK         0.0141 
     16 S16       -54.0697  -28.6260   11.4796 S.3       14 UNK        -0.2313 
     17 C17       -55.7374  -29.2775   11.8346 C.3       14 UNK        -0.0915 
     18 CA        -56.2446  -28.9512   13.2640 C.3       13 UNK         0.0968 
     19 C         -55.5592  -29.8384   14.3461 C.2       13 UNK         0.5732 
     20 N         -54.8918  -29.2879   15.3522 N.am      13 UNK        -0.7310 
     21 O         -55.6494  -31.0619   14.2785 O.2       13 UNK        -0.5035 
     22 N         -56.2169  -27.5035   13.5174 N.am      13 UNK        -0.4233 
     23 C         -56.9127  -26.8675   14.4651 C.2       13 UNK         0.4989 
     24 O         -57.7482  -27.4034   15.1962 O.2       13 UNK        -0.4996 
     25 CA        -56.6017  -25.3693   14.6320 C.3       12 UNK         0.0216 
     26 CB        -57.8502  -24.5166   14.3504 C.3       12 UNK        -0.1964 
     27 N         -56.0728  -25.0360   15.9600 N.am      12 UNK        -0.4276 
     28 C         -55.0279  -25.6256   16.5549 C.2       12 UNK         0.5020 
     29 O         -54.4074  -26.5877   16.0827 O.2       12 UNK        -0.5489 
     30 CA        -54.5717  -25.0345   17.8944 C.3       11 UNK         0.0294 
     31 CB        -55.4092  -25.5837   19.0623 C.3       11 UNK        -0.2019 
     32 N         -53.1833  -25.4370   18.0377 N.am      11 UNK        -0.4493 
     33 C         -52.2310  -24.9476   18.8347 C.2       11 UNK         0.4932 
     34 O         -52.4049  -24.0243   19.6311 O.2       11 UNK        -0.5029 
     35 CA        -50.8440  -25.6109   18.6860 C.3       10 UNK         0.0280 
     36 CB        -49.9820  -25.5166   19.9633 C.3       10 UNK        -0.1976 
     37 N         -50.9430  -26.9906   18.1787 N.am      10 UNK        -0.4242 
     38 C         -51.4909  -28.0445   18.8096 C.2       10 UNK         0.5072 
     39 O         -51.8076  -28.0351   20.0000 O.2       10 UNK        -0.5224 
     40 CA        -51.7993  -29.3039   17.9744 C.3       9 UNK         0.0343 
     41 CB        -53.1928  -29.8651   18.3159 C.3       9 UNK        -0.2003 
     42 N         -51.7429  -29.0533   16.5305 N.am      9 UNK        -0.4272 
     43 C         -50.7124  -29.3721   15.7374 C.2       9 UNK         0.4988 
     44 O         -49.6901  -29.9320   16.1346 O.2       9 UNK        -0.5108 
     45 CA        -50.8268  -28.9991   14.2466 C.3       8 UNK         0.0248 
     46 CB        -51.3479  -30.2001   13.4406 C.3       8 UNK        -0.2001 
     47 N         -51.6531  -27.8239   13.9394 N.am      8 UNK        -0.4140 
     48 C         -51.4939  -26.5935   14.4478 C.2       8 UNK         0.5028 
     49 O         -50.6892  -26.3175   15.3393 O.2       8 UNK        -0.5428 
     50 CA        -52.3513  -25.4908   13.8148 C.3       7 UNK         0.0264 
     51 CB        -52.1954  -24.1207   14.5046 C.3       7 UNK        -0.1988 
     52 N         -51.9883  -25.3871   12.4080 N.am      7 UNK        -0.4454 
     53 C         -52.7793  -24.9712   11.4154 C.2       7 UNK         0.5027 
     54 O         -53.9407  -24.5946   11.5856 O.2       7 UNK        -0.5083 
     55 CA        -52.1601  -24.9894   10.0004 C.3       6 UNK         0.0844 
     56 C56       -53.1393  -24.4922    8.8978 C.3       14 UNK        -0.0967 
     57 S57       -52.4027  -24.4537    7.2197 S.3       14 UNK        -0.2604 
     58 C58       -52.7852  -26.1084    6.5564 C.3       14 UNK         0.0134 
     59 N         -50.8589  -24.3134    9.9350 N.am      6 UNK        -0.4116 
     60 C         -49.6868  -24.8136   10.3462 C.2       5 UNK         0.5034 
     61 O         -49.5828  -25.8593   10.9911 O.2       5 UNK        -0.5045 
     62 CA        -48.4246  -24.0311    9.9340 C.3       5 UNK         0.0224 
     63 CB        -47.1283  -24.7078   10.4170 C.3       5 UNK        -0.1978 
     64 N         -48.3588  -23.8762    8.4784 N.am      5 UNK        -0.4737 
     65 C         -49.0244  -22.9681    7.7575 C.2       4 UNK         0.5027 
     66 O         -49.7267  -22.0934    8.2679 O.2       4 UNK        -0.5211 
     67 CA        -48.9037  -23.0800    6.2238 C.3       4 UNK         0.0297 
     68 CB        -49.7144  -21.9963    5.4886 C.3       4 UNK        -0.1993 
     69 N         -47.5159  -23.0367    5.7526 N.am      4 UNK        -0.4486 
     70 C         -46.6357  -24.0409    5.8302 C.2       3 UNK         0.4961 
     71 O         -46.8720  -25.1230    6.3785 O.2       3 UNK        -0.5105 
     72 CA        -45.2442  -23.7776    5.2386 C.3       3 UNK         0.0299 
     73 CB        -44.2876  -23.2754    6.3321 C.3       3 UNK        -0.1972 
     74 N         -44.7216  -25.0216    4.6795 N.am      3 UNK        -0.4305 
     75 C         -44.8436  -25.4067    3.4014 C.2       2 UNK         0.5006 
     76 O         -45.2513  -24.6795    2.4949 O.2       2 UNK        -0.5106 
     77 CA        -44.4809  -26.8727    3.0956 C.3       2 UNK         0.0296 
     78 CB        -42.9695  -27.0240    2.8583 C.3       2 UNK        -0.2002 
     79 N         -44.9043  -27.7674    4.1779 N.am      2 UNK        -0.4032 
     80 C         -46.1857  -28.0502    4.4606 C.2       1 UNK         0.5000 
     81 O         -47.1282  -27.7494    3.7245 O.2       1 UNK        -0.5238 
     82 H82       -45.1315  -25.9408    8.4214 H         1 UNK         0.0889 
     83 H83       -43.4966  -26.5952    8.5108 H         1 UNK         0.0889 
     84 H84       -44.7286  -27.1390    9.6531 H         1 UNK         0.0889 
     85 H85       -46.3862  -26.8401    6.8087 H         1 UNK         0.3028 
     86 H86       -45.8697  -29.6309    5.8516 H         1 UNK         0.0864 
     87 H87       -48.5583  -28.1592    5.9929 H         1 UNK         0.0720 
     88 H88       -48.2883  -29.7203    5.2661 H         1 UNK         0.0720 
     89 H89       -48.3450  -27.6110    8.4506 H         1 UNK         0.0814 
     90 H90       -48.6627  -28.7575    9.7194 H         1 UNK         0.0814 
     91 H91       -50.1880  -26.8138    6.9944 H         1 UNK         0.1469 
     92 H92       -54.1953  -27.7957    8.1575 H         1 UNK         0.1381 
     93 H93       -50.8843  -29.8114    9.9851 H         1 UNK         0.1206 
     94 H94       -53.1861  -30.5887   10.3881 H         1 UNK         0.0813 
     95 H95       -54.5094  -29.9046    9.4712 H         1 UNK         0.0813 
     96 H96       -55.7521  -30.3544   11.6554 H         1 UNK         0.0638 
     97 H97       -56.4216  -28.8483   11.1010 H         1 UNK         0.0638 
     98 H98       -57.2946  -29.2480   13.2932 H         1 UNK         0.0568 
     99 H99       -54.5015  -29.8999   16.0476 H         1 UNK         0.3450 
    100 H100      -54.8461  -28.2790   15.4714 H         1 UNK         0.3450 
    101 H101      -55.5465  -26.9867   12.9678 H         1 UNK         0.2987 
    102 H102      -55.8363  -25.0879   13.9053 H         1 UNK         0.0766 
    103 H103      -57.6193  -23.4514   14.3745 H         1 UNK         0.0798 
    104 H104      -58.6413  -24.7067   15.0772 H         1 UNK         0.0798 
    105 H105      -58.2569  -24.7352   13.3620 H         1 UNK         0.0798 
    106 H106      -56.5317  -24.2767   16.4423 H         1 UNK         0.3198 
    107 H107      -54.6315  -23.9450   17.8559 H         1 UNK         0.0843 
    108 H108      -56.4588  -25.3066   18.9579 H         1 UNK         0.0831 
    109 H109      -55.0642  -25.1901   20.0186 H         1 UNK         0.0831 
    110 H110      -55.3610  -26.6725   19.1130 H         1 UNK         0.0831 
    111 H111      -52.9372  -26.1682   17.3809 H         1 UNK         0.3133 
    112 H112      -50.3286  -25.0488   17.9059 H         1 UNK         0.0566 
    113 H113      -49.0237  -26.0194   19.8342 H         1 UNK         0.0814 
    114 H114      -49.7707  -24.4759   20.2116 H         1 UNK         0.0814 
    115 H115      -50.4804  -25.9564   20.8273 H         1 UNK         0.0814 
    116 H116      -50.7201  -27.0860   17.1909 H         1 UNK         0.3091 
    117 H117      -51.0599  -30.0569   18.2542 H         1 UNK         0.0702 
    118 H118      -53.4165  -30.7570   17.7306 H         1 UNK         0.0785 
    119 H119      -53.9787  -29.1300   18.1361 H         1 UNK         0.0785 
    120 H120      -53.2538  -30.1531   19.3663 H         1 UNK         0.0785 
    121 H121      -52.5311  -28.5737   16.1174 H         1 UNK         0.2998 
    122 H122      -49.8169  -28.7714   13.8996 H         1 UNK         0.0697 
    123 H123      -52.3789  -30.4438   13.7011 H         1 UNK         0.0825 
    124 H124      -50.7449  -31.0901   13.6266 H         1 UNK         0.0825 
    125 H125      -51.3097  -30.0053   12.3693 H         1 UNK         0.0825 
    126 H126      -52.3399  -27.9485   13.2076 H         1 UNK         0.3029 
    127 H127      -53.3930  -25.8049   13.8865 H         1 UNK         0.0897 
    128 H128      -52.8690  -23.3805   14.0728 H         1 UNK         0.0792 
    129 H129      -52.4277  -24.1870   15.5672 H         1 UNK         0.0792 
    130 H130      -51.1770  -23.7406   14.4163 H         1 UNK         0.0792 
    131 H131      -51.0505  -25.6987   12.1585 H         1 UNK         0.3086 
    132 H132      -51.9689  -26.0441    9.8137 H         1 UNK         0.0583 
    133 H133      -54.0376  -25.1121    8.8776 H         1 UNK         0.1020 
    134 H134      -53.4796  -23.4810    9.1285 H         1 UNK         0.1020 
    135 H135      -53.8645  -26.2010    6.4256 H         1 UNK         0.0694 
    136 H136      -52.3444  -26.2043    5.5632 H         1 UNK         0.0694 
    137 H137      -50.8344  -23.4504    9.4033 H         1 UNK         0.2989 
    138 H138      -48.4843  -23.0442   10.3988 H         1 UNK         0.1055 
    139 H139      -47.0308  -25.7186   10.0196 H         1 UNK         0.0806 
    140 H140      -47.1104  -24.7838   11.5050 H         1 UNK         0.0806 
    141 H141      -46.2469  -24.1402   10.1180 H         1 UNK         0.0806 
    142 H142      -47.8105  -24.5575    7.9615 H         1 UNK         0.3061 
    143 H143      -49.3287  -24.0479    5.9478 H         1 UNK         0.0734 
    144 H144      -50.7665  -22.0352    5.7750 H         1 UNK         0.0832 
    145 H145      -49.3512  -20.9938    5.7178 H         1 UNK         0.0832 
    146 H146      -49.6724  -22.1323    4.4078 H         1 UNK         0.0832 
    147 H147      -47.2165  -22.1677    5.3332 H         1 UNK         0.3156 
    148 H148      -45.3184  -23.0165    4.4588 H         1 UNK         0.0589 
    149 H149      -44.1894  -23.9907    7.1493 H         1 UNK         0.0808 
    150 H150      -43.2915  -23.0889    5.9302 H         1 UNK         0.0808 
    151 H151      -44.6428  -22.3378    6.7621 H         1 UNK         0.0808 
    152 H152      -44.4112  -25.7069    5.3504 H         1 UNK         0.3098 
    153 H153      -45.0024  -27.1648    2.1814 H         1 UNK         0.0720 
    154 H154      -42.7122  -28.0472    2.5837 H         1 UNK         0.0791 
    155 H155      -42.3889  -26.7571    3.7423 H         1 UNK         0.0791 
    156 H156      -42.6378  -26.3785    2.0437 H         1 UNK         0.0791 
    157 H157      -44.1918  -28.0753    4.8248 H         1 UNK         0.3028 
@<TRIPOS>BOND
     1    1    2 1    
     2    1   82 1    
     3    1   83 1    
     4    1   84 1    
     5    2    3 2    
     6    2    4 am   BACKBONE|DICT|INTERRES
     7    4    5 1    
     8    4   85 1    
     9    5    6 1    
    10    5   80 1    
    11    5   86 1    
    12    6    7 1    
    13    6   87 1    
    14    6   88 1    
    15    7    8 1    
    16    8    9 1    
    17    8   89 1    
    18    8   90 1    
    19    9   10 ar   
    20    9   14 ar   
    21   10   11 ar   
    22   10   91 1    
    23   11   12 ar   
    24   11   58 1    
    25   12   13 ar   
    26   12   92 1    
    27   13   14 ar   
    28   13   15 1    
    29   14   93 1    
    30   15   16 1    
    31   15   94 1    
    32   15   95 1    
    33   16   17 1    
    34   17   18 1    
    35   17   96 1    
    36   17   97 1    
    37   18   19 1    
    38   18   22 1    
    39   18   98 1    
    40   19   20 am   BACKBONE|DICT|INTERRES
    41   19   21 2    
    42   20   99 1    
    43   20  100 1    
    44   22   23 am   BACKBONE|DICT|INTERRES
    45   22  101 1    
    46   23   24 2    
    47   23   25 1    
    48   25   26 1    
    49   25   27 1    
    50   25  102 1    
    51   26  103 1    
    52   26  104 1    
    53   26  105 1    
    54   27   28 am   BACKBONE|DICT|INTERRES
    55   27  106 1    
    56   28   29 2    
    57   28   30 1    
    58   30   31 1    
    59   30   32 1    
    60   30  107 1    
    61   31  108 1    
    62   31  109 1    
    63   31  110 1    
    64   32   33 am   BACKBONE|DICT|INTERRES
    65   32  111 1    
    66   33   34 2    
    67   33   35 1    
    68   35   36 1    
    69   35   37 1    
    70   35  112 1    
    71   36  113 1    
    72   36  114 1    
    73   36  115 1    
    74   37   38 am   BACKBONE|DICT|INTERRES
    75   37  116 1    
    76   38   39 2    
    77   38   40 1    
    78   40   41 1    
    79   40   42 1    
    80   40  117 1    
    81   41  118 1    
    82   41  119 1    
    83   41  120 1    
    84   42   43 am   BACKBONE|DICT|INTERRES
    85   42  121 1    
    86   43   44 2    
    87   43   45 1    
    88   45   46 1    
    89   45   47 1    
    90   45  122 1    
    91   46  123 1    
    92   46  124 1    
    93   46  125 1    
    94   47   48 am   BACKBONE|DICT|INTERRES
    95   47  126 1    
    96   48   49 2    
    97   48   50 1    
    98   50   51 1    
    99   50   52 1    
   100   50  127 1    
   101   51  128 1    
   102   51  129 1    
   103   51  130 1    
   104   52   53 am   BACKBONE|DICT|INTERRES
   105   52  131 1    
   106   53   54 2    
   107   53   55 1    
   108   55   56 1    
   109   55   59 1    
   110   55  132 1    
   111   56   57 1    
   112   56  133 1    
   113   56  134 1    
   114   57   58 1    
   115   58  135 1    
   116   58  136 1    
   117   59   60 am   BACKBONE|DICT|INTERRES
   118   59  137 1    
   119   60   61 2    
   120   60   62 1    
   121   62   63 1    
   122   62   64 1    
   123   62  138 1    
   124   63  139 1    
   125   63  140 1    
   126   63  141 1    
   127   64   65 am   BACKBONE|DICT|INTERRES
   128   64  142 1    
   129   65   66 2    
   130   65   67 1    
   131   67   68 1    
   132   67   69 1    
   133   67  143 1    
   134   68  144 1    
   135   68  145 1    
   136   68  146 1    
   137   69   70 am   BACKBONE|DICT|INTERRES
   138   69  147 1    
   139   70   71 2    
   140   70   72 1    
   141   72   73 1    
   142   72   74 1    
   143   72  148 1    
   144   73  149 1    
   145   73  150 1    
   146   73  151 1    
   147   74   75 am   BACKBONE|DICT|INTERRES
   148   74  152 1    
   149   75   76 2    
   150   75   77 1    
   151   77   78 1    
   152   77   79 1    
   153   77  153 1    
   154   78  154 1    
   155   78  155 1    
   156   78  156 1    
   157   79   80 am   BACKBONE|DICT|INTERRES
   158   79  157 1    
   159   80   81 2    
@<TRIPOS>SUBSTRUCTURE
     1 UNK         1 GROUP             0       ****    0 ROOT    
