@<TRIPOS>MOLECULE
3R207
157   159    1
SMALL
USER_CHARGES


@<TRIPOS>ATOM
      1 CA        -47.8052  -26.9674    4.6246 C.3       0 UNK        -0.1975 
      2 C         -47.9136  -27.9375    5.7922 C.2       0 UNK         0.4852 
      3 O         -47.1397  -28.8924    5.8563 O.2       0 UNK        -0.5216 
      4 N         -48.8735  -27.6878    6.6954 N.am      1 UNK        -0.4461 
      5 CA        -49.1445  -28.4007    7.9523 C.3       1 UNK         0.0864 
      6 C6        -49.3734  -29.9247    7.7658 C.3       14 UNK        -0.0898 
      7 S7        -50.3493  -30.6639    9.1206 S.3       14 UNK        -0.2598 
      8 C8        -52.0369  -30.6192    8.4361 C.3       14 UNK         0.0286 
      9 C9        -52.5669  -29.1957    8.3527 C.ar      14 UNK        -0.0844 
     10 C10       -52.5239  -28.4936    7.1445 C.ar      14 UNK        -0.0881 
     11 C11       -52.9779  -27.1738    7.0758 C.ar      14 UNK        -0.0643 
     12 C12       -53.5112  -26.5697    8.2195 C.ar      14 UNK        -0.0930 
     13 C13       -53.5586  -27.2603    9.4330 C.ar      14 UNK        -0.0827 
     14 C14       -53.0820  -28.5729    9.4927 C.ar      14 UNK        -0.1249 
     15 C15       -54.0945  -26.5723   10.6818 C.3       14 UNK         0.0141 
     16 S16       -55.9130  -26.4819   10.7004 S.3       14 UNK        -0.2313 
     17 C17       -56.3847  -28.2310   10.9187 C.3       14 UNK        -0.0915 
     18 CA        -57.1478  -28.5005   12.2415 C.3       13 UNK         0.0968 
     19 C         -57.6602  -29.9718   12.2728 C.2       13 UNK         0.5732 
     20 N         -57.1005  -30.8611   13.0865 N.am      13 UNK        -0.7310 
     21 O         -58.5897  -30.3100   11.5437 O.2       13 UNK        -0.5035 
     22 N         -56.3578  -28.1117   13.4198 N.am      13 UNK        -0.4233 
     23 C         -56.8403  -28.0132   14.6655 C.2       13 UNK         0.4989 
     24 O         -58.0422  -28.0702   14.9324 O.2       13 UNK        -0.4996 
     25 CA        -55.8162  -27.8310   15.8081 C.3       12 UNK         0.0216 
     26 CB        -56.2737  -28.5178   17.1121 C.3       12 UNK        -0.1964 
     27 N         -54.4404  -28.2405   15.4815 N.am      12 UNK        -0.4276 
     28 C         -54.0259  -29.4456   15.0566 C.2       12 UNK         0.5020 
     29 O         -54.7821  -30.3909   14.8275 O.2       12 UNK        -0.5489 
     30 CA        -52.5196  -29.6200   14.8074 C.3       11 UNK         0.0294 
     31 CB        -52.1431  -29.1128   13.4066 C.3       11 UNK        -0.2019 
     32 N         -51.6807  -28.9594   15.8075 N.am      11 UNK        -0.4493 
     33 C         -51.5604  -29.3348   17.0867 C.2       11 UNK         0.4932 
     34 O         -52.1578  -30.2947   17.5740 O.2       11 UNK        -0.5029 
     35 CA        -50.6129  -28.5145   17.9849 C.3       10 UNK         0.0280 
     36 CB        -49.1576  -29.0031   17.8437 C.3       10 UNK        -0.1976 
     37 N         -50.7132  -27.0560   17.8210 N.am      10 UNK        -0.4242 
     38 C         -50.4019  -26.3082   16.7535 C.2       10 UNK         0.5072 
     39 O         -49.9299  -26.7537   15.7055 O.2       10 UNK        -0.5224 
     40 CA        -50.6961  -24.8041   16.8702 C.3       9 UNK         0.0343 
     41 CB        -49.3868  -24.0095   17.0026 C.3       9 UNK        -0.2003 
     42 N         -51.4524  -24.2946   15.7242 N.am      9 UNK        -0.4272 
     43 C         -52.6382  -24.7542   15.2949 C.2       9 UNK         0.4988 
     44 O         -53.2518  -25.6776   15.8305 O.2       9 UNK        -0.5108 
     45 CA        -53.2582  -24.0621   14.0677 C.3       8 UNK         0.0248 
     46 CB        -54.3267  -23.0482   14.5063 C.3       8 UNK        -0.2001 
     47 N         -52.2610  -23.3897   13.2283 N.am      8 UNK        -0.4140 
     48 C         -51.4403  -24.0403   12.3949 C.2       8 UNK         0.5028 
     49 O         -51.4854  -25.2573   12.2075 O.2       8 UNK        -0.5428 
     50 CA        -50.3727  -23.1943   11.6795 C.3       7 UNK         0.0264 
     51 CB        -49.0866  -23.1200   12.5201 C.3       7 UNK        -0.1988 
     52 N         -50.0556  -23.7492   10.3628 N.am      7 UNK        -0.4454 
     53 C         -50.9009  -23.7181    9.3211 C.2       7 UNK         0.5027 
     54 O         -51.9800  -23.1215    9.3459 O.2       7 UNK        -0.5083 
     55 CA        -50.4600  -24.4779    8.0490 C.3       6 UNK         0.0844 
     56 C56       -51.4069  -24.2464    6.8332 C.3       14 UNK        -0.0967 
     57 S57       -51.2656  -25.5731    5.5911 S.3       14 UNK        -0.2604 
     58 C58       -52.8802  -26.4038    5.7668 C.3       14 UNK         0.0134 
     59 N         -49.0448  -24.2237    7.7416 N.am      6 UNK        -0.4116 
     60 C         -48.5174  -23.0384    7.3949 C.2       5 UNK         0.5034 
     61 O         -49.1807  -22.0140    7.2294 O.2       5 UNK        -0.5045 
     62 CA        -46.9949  -22.9598    7.2122 C.3       5 UNK         0.0224 
     63 CB        -46.3967  -21.8218    8.0602 C.3       5 UNK        -0.1978 
     64 N         -46.3139  -24.2053    7.5708 N.am      5 UNK        -0.4737 
     65 C         -45.3972  -24.8242    6.8136 C.2       4 UNK         0.5027 
     66 O         -45.1529  -24.5091    5.6485 O.2       4 UNK        -0.5211 
     67 CA        -44.6116  -25.9809    7.4687 C.3       4 UNK         0.0297 
     68 CB        -43.1549  -26.0670    6.9665 C.3       4 UNK        -0.1993 
     69 N         -44.6676  -25.9570    8.9376 N.am      4 UNK        -0.4486 
     70 C         -44.2194  -24.9934    9.7632 C.2       3 UNK         0.4961 
     71 O         -43.5337  -24.0411    9.3903 O.2       3 UNK        -0.5105 
     72 CA        -44.6298  -25.0793   11.2511 C.3       3 UNK         0.0299 
     73 CB        -45.0345  -23.7000   11.8154 C.3       3 UNK        -0.1972 
     74 N         -45.6709  -26.0783   11.5325 N.am      3 UNK        -0.4305 
     75 C         -46.9294  -26.0996   11.0707 C.2       2 UNK         0.5006 
     76 O         -47.4423  -25.2136   10.3758 O.2       2 UNK        -0.5106 
     77 CA        -47.7182  -27.3822   11.3823 C.3       2 UNK         0.0296 
     78 CB        -48.5651  -27.2168   12.6501 C.3       2 UNK        -0.2002 
     79 N         -48.5655  -27.7829   10.2563 N.am      2 UNK        -0.4032 
     80 C         -48.0935  -28.0876    9.0374 C.2       1 UNK         0.5000 
     81 O         -46.8888  -28.1169    8.7724 O.2       1 UNK        -0.5238 
     82 H82       -48.3259  -26.0307    4.8227 H         1 UNK         0.0889 
     83 H83       -48.2291  -27.4128    3.7251 H         1 UNK         0.0889 
     84 H84       -46.7598  -26.7300    4.4282 H         1 UNK         0.0889 
     85 H85       -49.5016  -26.9164    6.5084 H         1 UNK         0.3028 
     86 H86       -50.0811  -27.9637    8.2967 H         1 UNK         0.0864 
     87 H87       -48.4228  -30.4558    7.6894 H         1 UNK         0.0720 
     88 H88       -49.8912  -30.1159    6.8249 H         1 UNK         0.0720 
     89 H89       -52.6919  -31.2134    9.0751 H         1 UNK         0.0814 
     90 H90       -52.0526  -31.0998    7.4567 H         1 UNK         0.0814 
     91 H91       -52.1132  -28.9645    6.2617 H         1 UNK         0.1469 
     92 H92       -53.8830  -25.5559    8.1760 H         1 UNK         0.1381 
     93 H93       -53.1041  -29.1129   10.4276 H         1 UNK         0.1206 
     94 H94       -53.7001  -25.5561   10.7237 H         1 UNK         0.0813 
     95 H95       -53.7401  -27.0704   11.5847 H         1 UNK         0.0813 
     96 H96       -55.5003  -28.8660   10.8637 H         1 UNK         0.0638 
     97 H97       -57.0019  -28.5022   10.0601 H         1 UNK         0.0638 
     98 H98       -58.0409  -27.8728   12.2372 H         1 UNK         0.0568 
     99 H99       -56.3244  -30.6079   13.6923 H         1 UNK         0.3450 
    100 H100      -57.4495  -31.8057   13.0933 H         1 UNK         0.3450 
    101 H101      -55.3613  -28.0518   13.2875 H         1 UNK         0.2987 
    102 H102      -55.7741  -26.7577   15.9983 H         1 UNK         0.0766 
    103 H103      -57.2314  -28.1226   17.4529 H         1 UNK         0.0798 
    104 H104      -55.5557  -28.3575   17.9166 H         1 UNK         0.0798 
    105 H105      -56.3931  -29.5937   16.9794 H         1 UNK         0.0798 
    106 H106      -53.7483  -27.5044   15.6094 H         1 UNK         0.3198 
    107 H107      -52.3072  -30.6906   14.8476 H         1 UNK         0.0843 
    108 H108      -52.2320  -28.0282   13.3262 H         1 UNK         0.0831 
    109 H109      -52.7885  -29.5579   12.6494 H         1 UNK         0.0831 
    110 H110      -51.1191  -29.3842   13.1520 H         1 UNK         0.0831 
    111 H111      -51.1215  -28.1632   15.5063 H         1 UNK         0.3133 
    112 H112      -50.9191  -28.7091   19.0141 H         1 UNK         0.0566 
    113 H113      -48.4939  -28.4757   18.5287 H         1 UNK         0.0814 
    114 H114      -48.7743  -28.8647   16.8323 H         1 UNK         0.0814 
    115 H115      -49.0818  -30.0667   18.0736 H         1 UNK         0.0814 
    116 H116      -51.1255  -26.5771   18.6102 H         1 UNK         0.3091 
    117 H117      -51.3004  -24.6274   17.7624 H         1 UNK         0.0702 
    118 H118      -49.5782  -22.9461   17.1470 H         1 UNK         0.0785 
    119 H119      -48.7572  -24.1218   16.1184 H         1 UNK         0.0785 
    120 H120      -48.8067  -24.3524   17.8606 H         1 UNK         0.0785 
    121 H121      -51.0200  -23.5502   15.2004 H         1 UNK         0.2998 
    122 H122      -53.7518  -24.8343   13.4729 H         1 UNK         0.0697 
    123 H123      -53.9006  -22.2422   15.1050 H         1 UNK         0.0825 
    124 H124      -55.0962  -23.5310   15.1108 H         1 UNK         0.0825 
    125 H125      -54.8267  -22.6020   13.6464 H         1 UNK         0.0825 
    126 H126      -52.1822  -22.3867   13.3218 H         1 UNK         0.3029 
    127 H127      -50.7576  -22.1817   11.5393 H         1 UNK         0.0897 
    128 H128      -48.6798  -24.1098   12.7276 H         1 UNK         0.0792 
    129 H129      -49.2715  -22.6375   13.4803 H         1 UNK         0.0792 
    130 H130      -48.3136  -22.5429   12.0121 H         1 UNK         0.0792 
    131 H131      -49.1880  -24.2725   10.2895 H         1 UNK         0.3086 
    132 H132      -50.5296  -25.5301    8.3276 H         1 UNK         0.0583 
    133 H133      -52.4495  -24.1768    7.1398 H         1 UNK         0.1020 
    134 H134      -51.2046  -23.2924    6.3464 H         1 UNK         0.1020 
    135 H135      -53.6851  -25.6709    5.6908 H         1 UNK         0.0694 
    136 H136      -53.0152  -27.0871    4.9269 H         1 UNK         0.0694 
    137 H137      -48.4072  -24.9914    7.8869 H         1 UNK         0.2989 
    138 H138      -46.8301  -22.7264    6.1580 H         1 UNK         0.1055 
    139 H139      -46.5815  -21.9745    9.1243 H         1 UNK         0.0806 
    140 H140      -46.8258  -20.8566    7.7880 H         1 UNK         0.0806 
    141 H141      -45.3184  -21.7462    7.9169 H         1 UNK         0.0806 
    142 H142      -46.4461  -24.5307    8.5224 H         1 UNK         0.3061 
    143 H143      -45.1172  -26.8970    7.1603 H         1 UNK         0.0734 
    144 H144      -42.6040  -25.1456    7.1567 H         1 UNK         0.0832 
    145 H145      -42.6176  -26.8856    7.4449 H         1 UNK         0.0832 
    146 H146      -43.1230  -26.2457    5.8911 H         1 UNK         0.0832 
    147 H147      -45.2336  -26.6963    9.3381 H         1 UNK         0.3156 
    148 H148      -43.7405  -25.4094   11.7899 H         1 UNK         0.0589 
    149 H149      -45.3252  -23.7687   12.8636 H         1 UNK         0.0808 
    150 H150      -44.2057  -22.9936   11.7569 H         1 UNK         0.0808 
    151 H151      -45.8684  -23.2641   11.2648 H         1 UNK         0.0808 
    152 H152      -45.3604  -26.8682   12.0826 H         1 UNK         0.3098 
    153 H153      -47.0088  -28.1946   11.5542 H         1 UNK         0.0720 
    154 H154      -47.9492  -26.9299   13.5035 H         1 UNK         0.0791 
    155 H155      -49.0695  -28.1444   12.9180 H         1 UNK         0.0791 
    156 H156      -49.3229  -26.4469   12.5294 H         1 UNK         0.0791 
    157 H157      -49.5623  -27.7816   10.4178 H         1 UNK         0.3028 
@<TRIPOS>BOND
     1    1    2 1    
     2    1   82 1    
     3    1   83 1    
     4    1   84 1    
     5    2    3 2    
     6    2    4 am   BACKBONE|DICT|INTERRES
     7    4    5 1    
     8    4   85 1    
     9    5    6 1    
    10    5   80 1    
    11    5   86 1    
    12    6    7 1    
    13    6   87 1    
    14    6   88 1    
    15    7    8 1    
    16    8    9 1    
    17    8   89 1    
    18    8   90 1    
    19    9   10 ar   
    20    9   14 ar   
    21   10   11 ar   
    22   10   91 1    
    23   11   12 ar   
    24   11   58 1    
    25   12   13 ar   
    26   12   92 1    
    27   13   14 ar   
    28   13   15 1    
    29   14   93 1    
    30   15   16 1    
    31   15   94 1    
    32   15   95 1    
    33   16   17 1    
    34   17   18 1    
    35   17   96 1    
    36   17   97 1    
    37   18   19 1    
    38   18   22 1    
    39   18   98 1    
    40   19   20 am   BACKBONE|DICT|INTERRES
    41   19   21 2    
    42   20   99 1    
    43   20  100 1    
    44   22   23 am   BACKBONE|DICT|INTERRES
    45   22  101 1    
    46   23   24 2    
    47   23   25 1    
    48   25   26 1    
    49   25   27 1    
    50   25  102 1    
    51   26  103 1    
    52   26  104 1    
    53   26  105 1    
    54   27   28 am   BACKBONE|DICT|INTERRES
    55   27  106 1    
    56   28   29 2    
    57   28   30 1    
    58   30   31 1    
    59   30   32 1    
    60   30  107 1    
    61   31  108 1    
    62   31  109 1    
    63   31  110 1    
    64   32   33 am   BACKBONE|DICT|INTERRES
    65   32  111 1    
    66   33   34 2    
    67   33   35 1    
    68   35   36 1    
    69   35   37 1    
    70   35  112 1    
    71   36  113 1    
    72   36  114 1    
    73   36  115 1    
    74   37   38 am   BACKBONE|DICT|INTERRES
    75   37  116 1    
    76   38   39 2    
    77   38   40 1    
    78   40   41 1    
    79   40   42 1    
    80   40  117 1    
    81   41  118 1    
    82   41  119 1    
    83   41  120 1    
    84   42   43 am   BACKBONE|DICT|INTERRES
    85   42  121 1    
    86   43   44 2    
    87   43   45 1    
    88   45   46 1    
    89   45   47 1    
    90   45  122 1    
    91   46  123 1    
    92   46  124 1    
    93   46  125 1    
    94   47   48 am   BACKBONE|DICT|INTERRES
    95   47  126 1    
    96   48   49 2    
    97   48   50 1    
    98   50   51 1    
    99   50   52 1    
   100   50  127 1    
   101   51  128 1    
   102   51  129 1    
   103   51  130 1    
   104   52   53 am   BACKBONE|DICT|INTERRES
   105   52  131 1    
   106   53   54 2    
   107   53   55 1    
   108   55   56 1    
   109   55   59 1    
   110   55  132 1    
   111   56   57 1    
   112   56  133 1    
   113   56  134 1    
   114   57   58 1    
   115   58  135 1    
   116   58  136 1    
   117   59   60 am   BACKBONE|DICT|INTERRES
   118   59  137 1    
   119   60   61 2    
   120   60   62 1    
   121   62   63 1    
   122   62   64 1    
   123   62  138 1    
   124   63  139 1    
   125   63  140 1    
   126   63  141 1    
   127   64   65 am   BACKBONE|DICT|INTERRES
   128   64  142 1    
   129   65   66 2    
   130   65   67 1    
   131   67   68 1    
   132   67   69 1    
   133   67  143 1    
   134   68  144 1    
   135   68  145 1    
   136   68  146 1    
   137   69   70 am   BACKBONE|DICT|INTERRES
   138   69  147 1    
   139   70   71 2    
   140   70   72 1    
   141   72   73 1    
   142   72   74 1    
   143   72  148 1    
   144   73  149 1    
   145   73  150 1    
   146   73  151 1    
   147   74   75 am   BACKBONE|DICT|INTERRES
   148   74  152 1    
   149   75   76 2    
   150   75   77 1    
   151   77   78 1    
   152   77   79 1    
   153   77  153 1    
   154   78  154 1    
   155   78  155 1    
   156   78  156 1    
   157   79   80 am   BACKBONE|DICT|INTERRES
   158   79  157 1    
   159   80   81 2    
@<TRIPOS>SUBSTRUCTURE
     1 UNK         1 GROUP             0       ****    0 ROOT    
