@<TRIPOS>MOLECULE
3R207
157   159    1
SMALL
USER_CHARGES


@<TRIPOS>ATOM
      1 CA        -45.8942  -30.2685    1.5933 C.3       0 UNK        -0.1975 
      2 C         -46.7177  -29.3161    2.4473 C.2       0 UNK         0.4852 
      3 O         -46.2738  -28.2001    2.7236 O.2       0 UNK        -0.5216 
      4 N         -47.9161  -29.7425    2.8676 N.am      1 UNK        -0.4461 
      5 CA        -48.8195  -28.9811    3.7324 C.3       1 UNK         0.0864 
      6 C6        -50.2888  -29.4400    3.5487 C.3       14 UNK        -0.0898 
      7 S7        -51.4802  -28.4269    4.4987 S.3       14 UNK        -0.2598 
      8 C8        -52.2548  -29.6868    5.5648 C.3       14 UNK         0.0286 
      9 C9        -52.5580  -29.1676    6.9637 C.ar      14 UNK        -0.0844 
     10 C10       -51.8837  -29.6984    8.0681 C.ar      14 UNK        -0.0881 
     11 C11       -52.2159  -29.2973    9.3654 C.ar      14 UNK        -0.0643 
     12 C12       -53.2141  -28.3379    9.5542 C.ar      14 UNK        -0.0930 
     13 C13       -53.8804  -27.7824    8.4578 C.ar      14 UNK        -0.0827 
     14 C14       -53.5492  -28.2024    7.1650 C.ar      14 UNK        -0.1249 
     15 C15       -54.9592  -26.7306    8.6751 C.3       14 UNK         0.0141 
     16 S16       -56.5946  -27.2596    8.0690 S.3       14 UNK        -0.2313 
     17 C17       -56.9611  -28.7269    9.0931 C.3       14 UNK        -0.0915 
     18 CA        -57.9869  -28.4148   10.2211 C.3       13 UNK         0.0968 
     19 C         -58.6742  -29.6897   10.8057 C.2       13 UNK         0.5732 
     20 N         -59.1297  -29.6762   12.0531 N.am      13 UNK        -0.7310 
     21 O         -58.8357  -30.6936   10.1151 O.2       13 UNK        -0.5035 
     22 N         -57.4463  -27.4799   11.2272 N.am      13 UNK        -0.4233 
     23 C         -56.4912  -27.7528   12.1274 C.2       13 UNK         0.4989 
     24 O         -55.9345  -28.8484   12.2360 O.2       13 UNK        -0.4996 
     25 CA        -56.0906  -26.6041   13.0660 C.3       12 UNK         0.0216 
     26 CB        -57.3079  -25.9064   13.7078 C.3       12 UNK        -0.1964 
     27 N         -55.2202  -27.1199   14.1221 N.am      12 UNK        -0.4276 
     28 C         -54.1969  -26.4620   14.6729 C.2       12 UNK         0.5020 
     29 O         -53.8517  -25.3278   14.3295 O.2       12 UNK        -0.5489 
     30 CA        -53.4442  -27.2014   15.7944 C.3       11 UNK         0.0294 
     31 CB        -52.6493  -28.4015   15.2494 C.3       11 UNK        -0.2019 
     32 N         -52.5200  -26.2862   16.4623 N.am      11 UNK        -0.4493 
     33 C         -52.8073  -25.5667   17.5538 C.2       11 UNK         0.4932 
     34 O         -53.8370  -25.7171   18.2148 O.2       11 UNK        -0.5029 
     35 CA        -51.7967  -24.4731   17.9564 C.3       10 UNK         0.0280 
     36 CB        -51.8891  -24.0785   19.4464 C.3       10 UNK        -0.1976 
     37 N         -50.4135  -24.7700   17.5651 N.am      10 UNK        -0.4242 
     38 C         -49.6184  -25.7471   18.0302 C.2       10 UNK         0.5072 
     39 O         -49.9564  -26.5390   18.9116 O.2       10 UNK        -0.5224 
     40 CA        -48.2073  -25.8866   17.4177 C.3       9 UNK         0.0343 
     41 CB        -48.0152  -27.2833   16.8009 C.3       9 UNK        -0.2003 
     42 N         -47.8979  -24.8772   16.4011 N.am      9 UNK        -0.4272 
     43 C         -47.5350  -23.6113   16.6487 C.2       9 UNK         0.4988 
     44 O         -47.3386  -23.1645   17.7791 O.2       9 UNK        -0.5108 
     45 CA        -47.4142  -22.6711   15.4337 C.3       8 UNK         0.0248 
     46 CB        -45.9991  -22.7331   14.8380 C.3       8 UNK        -0.2001 
     47 N         -48.4086  -22.9411   14.3869 N.am      8 UNK        -0.4140 
     48 C         -49.7360  -22.8391   14.5594 C.2       8 UNK         0.5028 
     49 O         -50.2587  -22.4577   15.6066 O.2       8 UNK        -0.5428 
     50 CA        -50.6381  -23.2945   13.4001 C.3       7 UNK         0.0264 
     51 CB        -50.7417  -22.2032   12.3232 C.3       7 UNK        -0.1988 
     52 N         -50.2010  -24.5548   12.7943 N.am      7 UNK        -0.4454 
     53 C         -50.1136  -25.7231   13.4475 C.2       7 UNK         0.5027 
     54 O         -50.4196  -25.8657   14.6303 O.2       7 UNK        -0.5083 
     55 CA        -49.5254  -26.9223   12.6774 C.3       6 UNK         0.0844 
     56 C56       -50.5745  -27.5488   11.7297 C.3       14 UNK        -0.0967 
     57 S57       -49.9629  -29.0859   10.9648 S.3       14 UNK        -0.2604 
     58 C58       -51.5206  -29.9308   10.5612 C.3       14 UNK         0.0134 
     59 N         -48.2823  -26.5577   11.9909 N.am      6 UNK        -0.4116 
     60 C         -47.1750  -26.1126   12.6029 C.2       5 UNK         0.5034 
     61 O         -47.0433  -26.0435   13.8241 O.2       5 UNK        -0.5045 
     62 CA        -46.0475  -25.5933   11.6999 C.3       5 UNK         0.0224 
     63 CB        -45.1417  -26.7411   11.2258 C.3       5 UNK        -0.1978 
     64 N         -46.5795  -24.8562   10.5511 N.am      5 UNK        -0.4737 
     65 C         -47.1482  -23.6448   10.6413 C.2       4 UNK         0.5027 
     66 O         -47.2235  -23.0052   11.6901 O.2       4 UNK        -0.5211 
     67 CA        -47.7744  -23.0684    9.3594 C.3       4 UNK         0.0297 
     68 CB        -46.7099  -22.3522    8.5140 C.3       4 UNK        -0.1993 
     69 N         -48.4457  -24.0869    8.5475 N.am      4 UNK        -0.4486 
     70 C         -49.5402  -24.7606    8.9306 C.2       3 UNK         0.4961 
     71 O         -50.1393  -24.5418    9.9816 O.2       3 UNK        -0.5105 
     72 CA        -50.0275  -25.8960    8.0125 C.3       3 UNK         0.0299 
     73 CB        -51.0842  -25.3682    7.0308 C.3       3 UNK        -0.1972 
     74 N         -48.9544  -26.5685    7.2713 N.am      3 UNK        -0.4305 
     75 C         -47.9068  -27.1998    7.8259 C.2       2 UNK         0.5006 
     76 O         -47.7095  -27.2373    9.0410 O.2       2 UNK        -0.5106 
     77 CA        -46.8729  -27.8303    6.8702 C.3       2 UNK         0.0296 
     78 CB        -46.1629  -29.0558    7.4850 C.3       2 UNK        -0.2002 
     79 N         -47.4100  -28.1193    5.5330 N.am      2 UNK        -0.4032 
     80 C         -48.3233  -29.0424    5.1943 C.2       1 UNK         0.5000 
     81 O         -48.7624  -29.9035    5.9593 O.2       1 UNK        -0.5238 
     82 H82       -44.9451  -30.4852    2.0827 H         1 UNK         0.0889 
     83 H83       -45.6830  -29.8160    0.6248 H         1 UNK         0.0889 
     84 H84       -46.4106  -31.2127    1.4210 H         1 UNK         0.0889 
     85 H85       -48.2186  -30.6777    2.6334 H         1 UNK         0.3028 
     86 H86       -48.7835  -27.9352    3.4178 H         1 UNK         0.0864 
     87 H87       -50.3929  -30.4976    3.7951 H         1 UNK         0.0720 
     88 H88       -50.5655  -29.3574    2.4965 H         1 UNK         0.0720 
     89 H89       -51.6129  -30.5654    5.6378 H         1 UNK         0.0814 
     90 H90       -53.1792  -30.0270    5.0963 H         1 UNK         0.0814 
     91 H91       -51.1123  -30.4427    7.9217 H         1 UNK         0.1469 
     92 H92       -53.4780  -28.0317   10.5573 H         1 UNK         0.1381 
     93 H93       -54.0738  -27.7879    6.3149 H         1 UNK         0.1206 
     94 H94       -55.0392  -26.4624    9.7290 H         1 UNK         0.0813 
     95 H95       -54.6699  -25.8190    8.1507 H         1 UNK         0.0813 
     96 H96       -57.3545  -29.4786    8.4073 H         1 UNK         0.0638 
     97 H97       -56.0450  -29.1519    9.5038 H         1 UNK         0.0638 
     98 H98       -58.8149  -27.8805    9.7541 H         1 UNK         0.0568 
     99 H99       -59.5831  -30.4979   12.4199 H         1 UNK         0.3450 
    100 H100      -59.0225  -28.8579   12.6296 H         1 UNK         0.3450 
    101 H101      -57.8562  -26.5576   11.2199 H         1 UNK         0.2987 
    102 H102      -55.5409  -25.8802   12.4604 H         1 UNK         0.0766 
    103 H103      -56.9929  -25.1301   14.4057 H         1 UNK         0.0798 
    104 H104      -57.9327  -26.6113   14.2578 H         1 UNK         0.0798 
    105 H105      -57.9359  -25.4194   12.9614 H         1 UNK         0.0798 
    106 H106      -55.3894  -28.0850   14.3758 H         1 UNK         0.3198 
    107 H107      -54.1821  -27.5727   16.5089 H         1 UNK         0.0843 
    108 H108      -51.8876  -28.0938   14.5357 H         1 UNK         0.0831 
    109 H109      -53.2992  -29.1178   14.7457 H         1 UNK         0.0831 
    110 H110      -52.1465  -28.9359   16.0557 H         1 UNK         0.0831 
    111 H111      -51.6871  -26.0456   15.9262 H         1 UNK         0.3133 
    112 H112      -52.0777  -23.5938   17.3755 H         1 UNK         0.0566 
    113 H113      -51.1709  -23.2973   19.6953 H         1 UNK         0.0814 
    114 H114      -52.8805  -23.6933   19.6877 H         1 UNK         0.0814 
    115 H115      -51.7044  -24.9280   20.1043 H         1 UNK         0.0814 
    116 H116      -50.0526  -24.1802   16.8232 H         1 UNK         0.3091 
    117 H117      -47.4928  -25.7801   18.2364 H         1 UNK         0.0702 
    118 H118      -48.1655  -28.0667   17.5448 H         1 UNK         0.0785 
    119 H119      -48.7197  -27.4655   15.9891 H         1 UNK         0.0785 
    120 H120      -47.0080  -27.4055   16.4020 H         1 UNK         0.0785 
    121 H121      -47.9753  -25.1777   15.4345 H         1 UNK         0.2998 
    122 H122      -47.5863  -21.6533   15.7895 H         1 UNK         0.0697 
    123 H123      -45.7626  -23.7281   14.4617 H         1 UNK         0.0825 
    124 H124      -45.2489  -22.4824   15.5891 H         1 UNK         0.0825 
    125 H125      -45.8828  -22.0273   14.0152 H         1 UNK         0.0825 
    126 H126      -48.0522  -23.2039   13.4717 H         1 UNK         0.3029 
    127 H127      -51.6370  -23.4634   13.8094 H         1 UNK         0.0897 
    128 H128      -51.4418  -22.4883   11.5376 H         1 UNK         0.0792 
    129 H129      -49.7779  -22.0034   11.8549 H         1 UNK         0.0792 
    130 H130      -51.0983  -21.2655   12.7513 H         1 UNK         0.0792 
    131 H131      -49.9902  -24.5317   11.7975 H         1 UNK         0.3086 
    132 H132      -49.2631  -27.6760   13.4232 H         1 UNK         0.0583 
    133 H133      -51.4914  -27.7741   12.2758 H         1 UNK         0.1020 
    134 H134      -50.8613  -26.8531   10.9419 H         1 UNK         0.1020 
    135 H135      -51.3019  -30.9772   10.3433 H         1 UNK         0.0694 
    136 H136      -52.1781  -29.9365   11.4321 H         1 UNK         0.0694 
    137 H137      -48.2765  -26.6422   10.9801 H         1 UNK         0.2989 
    138 H138      -45.4382  -24.9065   12.2916 H         1 UNK         0.1055 
    139 H139      -44.6801  -27.2439   12.0767 H         1 UNK         0.0806 
    140 H140      -44.3355  -26.3752   10.5901 H         1 UNK         0.0806 
    141 H141      -45.6943  -27.4966   10.6675 H         1 UNK         0.0806 
    142 H142      -46.6324  -25.3585    9.6749 H         1 UNK         0.3061 
    143 H143      -48.5231  -22.3320    9.6594 H         1 UNK         0.0734 
    144 H144      -47.1530  -21.8687    7.6432 H         1 UNK         0.0832 
    145 H145      -46.2116  -21.5746    9.0949 H         1 UNK         0.0832 
    146 H146      -45.9393  -23.0395    8.1627 H         1 UNK         0.0832 
    147 H147      -48.0235  -24.3233    7.6618 H         1 UNK         0.3156 
    148 H148      -50.5020  -26.6512    8.6415 H         1 UNK         0.0589 
    149 H149      -50.6676  -24.6360    6.3382 H         1 UNK         0.0808 
    150 H150      -51.5200  -26.1770    6.4461 H         1 UNK         0.0808 
    151 H151      -51.9041  -24.8857    7.5650 H         1 UNK         0.0808 
    152 H152      -49.0410  -26.5801    6.2664 H         1 UNK         0.3098 
    153 H153      -46.1115  -27.0640    6.7188 H         1 UNK         0.0720 
    154 H154      -45.4527  -29.4971    6.7859 H         1 UNK         0.0791 
    155 H155      -46.8716  -29.8299    7.7807 H         1 UNK         0.0791 
    156 H156      -45.6049  -28.7748    8.3789 H         1 UNK         0.0791 
    157 H157      -47.0532  -27.5347    4.7859 H         1 UNK         0.3028 
@<TRIPOS>BOND
     1    1    2 1    
     2    1   82 1    
     3    1   83 1    
     4    1   84 1    
     5    2    3 2    
     6    2    4 am   BACKBONE|DICT|INTERRES
     7    4    5 1    
     8    4   85 1    
     9    5    6 1    
    10    5   80 1    
    11    5   86 1    
    12    6    7 1    
    13    6   87 1    
    14    6   88 1    
    15    7    8 1    
    16    8    9 1    
    17    8   89 1    
    18    8   90 1    
    19    9   10 ar   
    20    9   14 ar   
    21   10   11 ar   
    22   10   91 1    
    23   11   12 ar   
    24   11   58 1    
    25   12   13 ar   
    26   12   92 1    
    27   13   14 ar   
    28   13   15 1    
    29   14   93 1    
    30   15   16 1    
    31   15   94 1    
    32   15   95 1    
    33   16   17 1    
    34   17   18 1    
    35   17   96 1    
    36   17   97 1    
    37   18   19 1    
    38   18   22 1    
    39   18   98 1    
    40   19   20 am   BACKBONE|DICT|INTERRES
    41   19   21 2    
    42   20   99 1    
    43   20  100 1    
    44   22   23 am   BACKBONE|DICT|INTERRES
    45   22  101 1    
    46   23   24 2    
    47   23   25 1    
    48   25   26 1    
    49   25   27 1    
    50   25  102 1    
    51   26  103 1    
    52   26  104 1    
    53   26  105 1    
    54   27   28 am   BACKBONE|DICT|INTERRES
    55   27  106 1    
    56   28   29 2    
    57   28   30 1    
    58   30   31 1    
    59   30   32 1    
    60   30  107 1    
    61   31  108 1    
    62   31  109 1    
    63   31  110 1    
    64   32   33 am   BACKBONE|DICT|INTERRES
    65   32  111 1    
    66   33   34 2    
    67   33   35 1    
    68   35   36 1    
    69   35   37 1    
    70   35  112 1    
    71   36  113 1    
    72   36  114 1    
    73   36  115 1    
    74   37   38 am   BACKBONE|DICT|INTERRES
    75   37  116 1    
    76   38   39 2    
    77   38   40 1    
    78   40   41 1    
    79   40   42 1    
    80   40  117 1    
    81   41  118 1    
    82   41  119 1    
    83   41  120 1    
    84   42   43 am   BACKBONE|DICT|INTERRES
    85   42  121 1    
    86   43   44 2    
    87   43   45 1    
    88   45   46 1    
    89   45   47 1    
    90   45  122 1    
    91   46  123 1    
    92   46  124 1    
    93   46  125 1    
    94   47   48 am   BACKBONE|DICT|INTERRES
    95   47  126 1    
    96   48   49 2    
    97   48   50 1    
    98   50   51 1    
    99   50   52 1    
   100   50  127 1    
   101   51  128 1    
   102   51  129 1    
   103   51  130 1    
   104   52   53 am   BACKBONE|DICT|INTERRES
   105   52  131 1    
   106   53   54 2    
   107   53   55 1    
   108   55   56 1    
   109   55   59 1    
   110   55  132 1    
   111   56   57 1    
   112   56  133 1    
   113   56  134 1    
   114   57   58 1    
   115   58  135 1    
   116   58  136 1    
   117   59   60 am   BACKBONE|DICT|INTERRES
   118   59  137 1    
   119   60   61 2    
   120   60   62 1    
   121   62   63 1    
   122   62   64 1    
   123   62  138 1    
   124   63  139 1    
   125   63  140 1    
   126   63  141 1    
   127   64   65 am   BACKBONE|DICT|INTERRES
   128   64  142 1    
   129   65   66 2    
   130   65   67 1    
   131   67   68 1    
   132   67   69 1    
   133   67  143 1    
   134   68  144 1    
   135   68  145 1    
   136   68  146 1    
   137   69   70 am   BACKBONE|DICT|INTERRES
   138   69  147 1    
   139   70   71 2    
   140   70   72 1    
   141   72   73 1    
   142   72   74 1    
   143   72  148 1    
   144   73  149 1    
   145   73  150 1    
   146   73  151 1    
   147   74   75 am   BACKBONE|DICT|INTERRES
   148   74  152 1    
   149   75   76 2    
   150   75   77 1    
   151   77   78 1    
   152   77   79 1    
   153   77  153 1    
   154   78  154 1    
   155   78  155 1    
   156   78  156 1    
   157   79   80 am   BACKBONE|DICT|INTERRES
   158   79  157 1    
   159   80   81 2    
@<TRIPOS>SUBSTRUCTURE
     1 UNK         1 GROUP             0       ****    0 ROOT    
