@<TRIPOS>MOLECULE
3R207
157   159    1
SMALL
USER_CHARGES


@<TRIPOS>ATOM
      1 CA        -46.5513  -31.6940    4.0425 C.3       0 UNK        -0.1975 
      2 C         -46.5143  -30.3798    4.8079 C.2       0 UNK         0.4852 
      3 O         -45.4298  -29.8475    5.0501 O.2       0 UNK        -0.5216 
      4 N         -47.6912  -29.8508    5.1752 N.am      1 UNK        -0.4461 
      5 CA        -47.9417  -28.6174    5.9429 C.3       1 UNK         0.0864 
      6 C6        -47.2649  -28.5789    7.3400 C.3       14 UNK        -0.0898 
      7 S7        -47.6727  -30.0246    8.3798 S.3       14 UNK        -0.2598 
      8 C8        -48.2756  -29.2382    9.9079 C.3       14 UNK         0.0286 
      9 C9        -49.7946  -29.1362    9.9597 C.ar      14 UNK        -0.0844 
     10 C10       -50.5014  -28.3932    9.0074 C.ar      14 UNK        -0.0881 
     11 C11       -51.8895  -28.2472    9.1060 C.ar      14 UNK        -0.0643 
     12 C12       -52.5712  -28.8529   10.1650 C.ar      14 UNK        -0.0930 
     13 C13       -51.8761  -29.5972   11.1210 C.ar      14 UNK        -0.0827 
     14 C14       -50.4924  -29.7471   11.0058 C.ar      14 UNK        -0.1249 
     15 C15       -52.6174  -30.1952   12.3034 C.3       14 UNK         0.0141 
     16 S16       -52.6108  -29.0194   13.6878 S.3       14 UNK        -0.2313 
     17 C17       -54.1712  -29.4410   14.5325 C.3       14 UNK        -0.0915 
     18 CA        -55.4402  -28.8090   13.8941 C.3       13 UNK         0.0968 
     19 C         -56.6872  -29.0656   14.7914 C.2       13 UNK         0.5732 
     20 N         -57.3244  -28.0480   15.3629 N.am      13 UNK        -0.7310 
     21 O         -57.0856  -30.2141   14.9688 O.2       13 UNK        -0.5035 
     22 N         -55.2561  -27.3978   13.5214 N.am      13 UNK        -0.4233 
     23 C         -56.0328  -26.7474   12.6418 C.2       13 UNK         0.4989 
     24 O         -56.9046  -27.3032   11.9712 O.2       13 UNK        -0.4996 
     25 CA        -55.8104  -25.2297   12.4721 C.3       12 UNK         0.0216 
     26 CB        -57.1121  -24.4748   12.1268 C.3       12 UNK        -0.1964 
     27 N         -55.1271  -24.5997   13.6075 N.am      12 UNK        -0.4276 
     28 C         -55.5532  -24.5354   14.8758 C.2       12 UNK         0.5020 
     29 O         -56.6327  -24.9840   15.2714 O.2       12 UNK        -0.5489 
     30 CA        -54.5736  -23.9212   15.8911 C.3       11 UNK         0.0294 
     31 CB        -55.1356  -22.6152   16.4749 C.3       11 UNK        -0.2019 
     32 N         -54.2835  -24.8609   16.9782 N.am      11 UNK        -0.4493 
     33 C         -53.7223  -26.0625   16.7988 C.2       11 UNK         0.4932 
     34 O         -53.3267  -26.4738   15.7045 O.2       11 UNK        -0.5029 
     35 CA        -53.6035  -26.9667   18.0303 C.3       10 UNK         0.0280 
     36 CB        -54.9842  -27.5350   18.4176 C.3       10 UNK        -0.1976 
     37 N         -52.6842  -28.0429   17.6796 N.am      10 UNK        -0.4242 
     38 C         -52.1734  -28.9830   18.4805 C.2       10 UNK         0.5072 
     39 O         -52.3903  -29.0524   19.6908 O.2       10 UNK        -0.5224 
     40 CA        -51.2673  -30.0320   17.8131 C.3       9 UNK         0.0343 
     41 CB        -52.0862  -31.2633   17.3922 C.3       9 UNK        -0.2003 
     42 N         -50.5602  -29.4995   16.6442 N.am      9 UNK        -0.4272 
     43 C         -49.4243  -28.7924   16.7165 C.2       9 UNK         0.4988 
     44 O         -48.8381  -28.5418   17.7701 O.2       9 UNK        -0.5108 
     45 CA        -48.8465  -28.2821   15.3872 C.3       8 UNK         0.0248 
     46 CB        -48.7218  -29.3989   14.3344 C.3       8 UNK        -0.2001 
     47 N         -49.6373  -27.1757   14.8466 N.am      8 UNK        -0.4140 
     48 C         -49.6141  -25.9199   15.3186 C.2       8 UNK         0.5028 
     49 O         -48.9329  -25.5647   16.2817 O.2       8 UNK        -0.5428 
     50 CA        -50.4533  -24.8797   14.5584 C.3       7 UNK         0.0264 
     51 CB        -49.9891  -23.4289   14.7962 C.3       7 UNK        -0.1988 
     52 N         -50.4524  -25.1725   13.1266 N.am      7 UNK        -0.4454 
     53 C         -51.4637  -24.9333   12.2873 C.2       7 UNK         0.5027 
     54 O         -52.5201  -24.3963   12.6264 O.2       7 UNK        -0.5083 
     55 CA        -51.2290  -25.3425   10.8214 C.3       6 UNK         0.0844 
     56 C56       -52.5036  -25.2287    9.9410 C.3       14 UNK        -0.0967 
     57 S57       -52.1910  -25.6384    8.1841 S.3       14 UNK        -0.2604 
     58 C58       -52.6513  -27.3994    8.0971 C.3       14 UNK         0.0134 
     59 N         -50.1079  -24.5972   10.2507 N.am      6 UNK        -0.4116 
     60 C         -48.8108  -24.8958   10.3650 C.2       5 UNK         0.5034 
     61 O         -48.3903  -25.7916   11.1003 O.2       5 UNK        -0.5045 
     62 CA        -47.8285  -24.0604    9.5115 C.3       5 UNK         0.0224 
     63 CB        -46.4132  -24.6673    9.4864 C.3       5 UNK        -0.1978 
     64 N         -48.2735  -23.8631    8.1239 N.am      5 UNK        -0.4737 
     65 C         -49.2672  -23.0585    7.7192 C.2       4 UNK         0.5027 
     66 O         -49.9468  -22.3841    8.4955 O.2       4 UNK        -0.5211 
     67 CA        -49.5552  -23.0216    6.2058 C.3       4 UNK         0.0297 
     68 CB        -50.5097  -21.8780    5.8019 C.3       4 UNK        -0.1993 
     69 N         -48.3335  -22.9939    5.3941 N.am      4 UNK        -0.4486 
     70 C         -47.3492  -22.0798    5.4268 C.2       3 UNK         0.4961 
     71 O         -47.3733  -21.0719    6.1346 O.2       3 UNK        -0.5105 
     72 CA        -46.1361  -22.3175    4.5000 C.3       3 UNK         0.0299 
     73 CB        -44.8082  -21.8735    5.1510 C.3       3 UNK        -0.1972 
     74 N         -46.0318  -23.6887    3.9778 N.am      3 UNK        -0.4305 
     75 C         -45.8454  -24.8141    4.6828 C.2       2 UNK         0.5006 
     76 O         -45.6916  -24.8531    5.9062 O.2       2 UNK        -0.5106 
     77 CA        -45.8474  -26.1168    3.8650 C.3       2 UNK         0.0296 
     78 CB        -44.4217  -26.4656    3.4084 C.3       2 UNK        -0.2002 
     79 N         -46.3979  -27.2499    4.6093 N.am      2 UNK        -0.4032 
     80 C         -47.6204  -27.3320    5.1508 C.2       1 UNK         0.5000 
     81 O         -48.4796  -26.4535    5.0431 O.2       1 UNK        -0.5238 
     82 H82       -45.9997  -32.4594    4.5878 H         1 UNK         0.0889 
     83 H83       -46.0876  -31.5714    3.0641 H         1 UNK         0.0889 
     84 H84       -47.5697  -32.0521    3.8933 H         1 UNK         0.0889 
     85 H85       -48.5320  -30.3458    4.9119 H         1 UNK         0.3028 
     86 H86       -49.0202  -28.6046    6.1075 H         1 UNK         0.0864 
     87 H87       -46.1786  -28.5345    7.2464 H         1 UNK         0.0720 
     88 H88       -47.5512  -27.6639    7.8614 H         1 UNK         0.0720 
     89 H89       -47.9099  -29.8292   10.7489 H         1 UNK         0.0814 
     90 H90       -47.8369  -28.2480   10.0350 H         1 UNK         0.0814 
     91 H91       -49.9717  -27.8969    8.2077 H         1 UNK         0.1469 
     92 H92       -53.6407  -28.7245   10.2624 H         1 UNK         0.1381 
     93 H93       -49.9556  -30.3171   11.7507 H         1 UNK         0.1206 
     94 H94       -52.1544  -31.1320   12.6169 H         1 UNK         0.0813 
     95 H95       -53.6415  -30.4356   12.0153 H         1 UNK         0.0813 
     96 H96       -54.0760  -29.1141   15.5674 H         1 UNK         0.0638 
     97 H97       -54.2656  -30.5278   14.5702 H         1 UNK         0.0638 
     98 H98       -55.6288  -29.3551   12.9683 H         1 UNK         0.0568 
     99 H99       -58.1323  -28.2355   15.9342 H         1 UNK         0.3450 
    100 H100      -57.0165  -27.0924   15.2260 H         1 UNK         0.3450 
    101 H101      -54.5543  -26.8924   14.0505 H         1 UNK         0.2987 
    102 H102      -55.1370  -25.1205   11.6223 H         1 UNK         0.0766 
    103 H103      -57.5409  -24.8382   11.1921 H         1 UNK         0.0798 
    104 H104      -56.9306  -23.4072   12.0032 H         1 UNK         0.0798 
    105 H105      -57.8701  -24.5993   12.9008 H         1 UNK         0.0798 
    106 H106      -54.1754  -24.2962   13.3981 H         1 UNK         0.3198 
    107 H107      -53.6322  -23.6928   15.3860 H         1 UNK         0.0843 
    108 H108      -56.0689  -22.7827   17.0143 H         1 UNK         0.0831 
    109 H109      -55.3428  -21.8936   15.6835 H         1 UNK         0.0831 
    110 H110      -54.4285  -22.1483   17.1607 H         1 UNK         0.0831 
    111 H111      -54.6148  -24.6079   17.8978 H         1 UNK         0.3133 
    112 H112      -53.1832  -26.3910   18.8569 H         1 UNK         0.0566 
    113 H113      -55.4045  -28.1468   17.6188 H         1 UNK         0.0814 
    114 H114      -55.6981  -26.7370   18.6250 H         1 UNK         0.0814 
    115 H115      -54.9288  -28.1516   19.3144 H         1 UNK         0.0814 
    116 H116      -52.4294  -28.0320   16.6987 H         1 UNK         0.3091 
    117 H117      -50.5348  -30.3561   18.5557 H         1 UNK         0.0702 
    118 H118      -51.4457  -32.0417   16.9772 H         1 UNK         0.0785 
    119 H119      -52.8401  -31.0160   16.6452 H         1 UNK         0.0785 
    120 H120      -52.6063  -31.6956   18.2482 H         1 UNK         0.0785 
    121 H121      -50.9779  -29.6636   15.7391 H         1 UNK         0.2998 
    122 H122      -47.8384  -27.9131   15.5894 H         1 UNK         0.0697 
    123 H123      -49.6903  -29.7996   14.0376 H         1 UNK         0.0825 
    124 H124      -48.1289  -30.2305   14.7177 H         1 UNK         0.0825 
    125 H125      -48.2237  -29.0366   13.4347 H         1 UNK         0.0825 
    126 H126      -50.2571  -27.3883   14.0774 H         1 UNK         0.3029 
    127 H127      -51.4693  -24.9702   14.9402 H         1 UNK         0.0897 
    128 H128      -48.9645  -23.2759   14.4556 H         1 UNK         0.0792 
    129 H129      -50.0261  -23.1729   15.8559 H         1 UNK         0.0792 
    130 H130      -50.6272  -22.7170   14.2725 H         1 UNK         0.0792 
    131 H131      -49.6018  -25.5757   12.7422 H         1 UNK         0.3086 
    132 H132      -50.9487  -26.3950   10.8575 H         1 UNK         0.0583 
    133 H133      -53.2896  -25.8801   10.3254 H         1 UNK         0.1020 
    134 H134      -52.9039  -24.2136    9.9777 H         1 UNK         0.1020 
    135 H135      -53.7286  -27.4910    8.2442 H         1 UNK         0.0694 
    136 H136      -52.4459  -27.7690    7.0916 H         1 UNK         0.0694 
    137 H137      -50.3485  -23.8114    9.6529 H         1 UNK         0.2989 
    138 H138      -47.7617  -23.0795    9.9871 H         1 UNK         0.1055 
    139 H139      -46.4099  -25.6625    9.0401 H         1 UNK         0.0806 
    140 H140      -46.0054  -24.7590   10.4940 H         1 UNK         0.0806 
    141 H141      -45.7237  -24.0444    8.9159 H         1 UNK         0.0806 
    142 H142      -47.7629  -24.3735    7.4148 H         1 UNK         0.3061 
    143 H143      -50.0546  -23.9639    5.9737 H         1 UNK         0.0734 
    144 H144      -50.0997  -20.8996    6.0543 H         1 UNK         0.0832 
    145 H145      -50.7152  -21.8909    4.7317 H         1 UNK         0.0832 
    146 H146      -51.4675  -21.9707    6.3156 H         1 UNK         0.0832 
    147 H147      -48.2001  -23.7968    4.7939 H         1 UNK         0.3156 
    148 H148      -46.3009  -21.6803    3.6300 H         1 UNK         0.0589 
    149 H149      -43.9628  -22.0401    4.4836 H         1 UNK         0.0808 
    150 H150      -44.8246  -20.8092    5.3892 H         1 UNK         0.0808 
    151 H151      -44.6131  -22.4088    6.0807 H         1 UNK         0.0808 
    152 H152      -46.1470  -23.7736    2.9764 H         1 UNK         0.3098 
    153 H153      -46.4744  -25.9755    2.9824 H         1 UNK         0.0720 
    154 H154      -43.7610  -26.6434    4.2582 H         1 UNK         0.0791 
    155 H155      -43.9870  -25.6560    2.8206 H         1 UNK         0.0791 
    156 H156      -44.4119  -27.3596    2.7843 H         1 UNK         0.0791 
    157 H157      -45.7838  -28.0477    4.7573 H         1 UNK         0.3028 
@<TRIPOS>BOND
     1    1    2 1    
     2    1   82 1    
     3    1   83 1    
     4    1   84 1    
     5    2    3 2    
     6    2    4 am   BACKBONE|DICT|INTERRES
     7    4    5 1    
     8    4   85 1    
     9    5    6 1    
    10    5   80 1    
    11    5   86 1    
    12    6    7 1    
    13    6   87 1    
    14    6   88 1    
    15    7    8 1    
    16    8    9 1    
    17    8   89 1    
    18    8   90 1    
    19    9   10 ar   
    20    9   14 ar   
    21   10   11 ar   
    22   10   91 1    
    23   11   12 ar   
    24   11   58 1    
    25   12   13 ar   
    26   12   92 1    
    27   13   14 ar   
    28   13   15 1    
    29   14   93 1    
    30   15   16 1    
    31   15   94 1    
    32   15   95 1    
    33   16   17 1    
    34   17   18 1    
    35   17   96 1    
    36   17   97 1    
    37   18   19 1    
    38   18   22 1    
    39   18   98 1    
    40   19   20 am   BACKBONE|DICT|INTERRES
    41   19   21 2    
    42   20   99 1    
    43   20  100 1    
    44   22   23 am   BACKBONE|DICT|INTERRES
    45   22  101 1    
    46   23   24 2    
    47   23   25 1    
    48   25   26 1    
    49   25   27 1    
    50   25  102 1    
    51   26  103 1    
    52   26  104 1    
    53   26  105 1    
    54   27   28 am   BACKBONE|DICT|INTERRES
    55   27  106 1    
    56   28   29 2    
    57   28   30 1    
    58   30   31 1    
    59   30   32 1    
    60   30  107 1    
    61   31  108 1    
    62   31  109 1    
    63   31  110 1    
    64   32   33 am   BACKBONE|DICT|INTERRES
    65   32  111 1    
    66   33   34 2    
    67   33   35 1    
    68   35   36 1    
    69   35   37 1    
    70   35  112 1    
    71   36  113 1    
    72   36  114 1    
    73   36  115 1    
    74   37   38 am   BACKBONE|DICT|INTERRES
    75   37  116 1    
    76   38   39 2    
    77   38   40 1    
    78   40   41 1    
    79   40   42 1    
    80   40  117 1    
    81   41  118 1    
    82   41  119 1    
    83   41  120 1    
    84   42   43 am   BACKBONE|DICT|INTERRES
    85   42  121 1    
    86   43   44 2    
    87   43   45 1    
    88   45   46 1    
    89   45   47 1    
    90   45  122 1    
    91   46  123 1    
    92   46  124 1    
    93   46  125 1    
    94   47   48 am   BACKBONE|DICT|INTERRES
    95   47  126 1    
    96   48   49 2    
    97   48   50 1    
    98   50   51 1    
    99   50   52 1    
   100   50  127 1    
   101   51  128 1    
   102   51  129 1    
   103   51  130 1    
   104   52   53 am   BACKBONE|DICT|INTERRES
   105   52  131 1    
   106   53   54 2    
   107   53   55 1    
   108   55   56 1    
   109   55   59 1    
   110   55  132 1    
   111   56   57 1    
   112   56  133 1    
   113   56  134 1    
   114   57   58 1    
   115   58  135 1    
   116   58  136 1    
   117   59   60 am   BACKBONE|DICT|INTERRES
   118   59  137 1    
   119   60   61 2    
   120   60   62 1    
   121   62   63 1    
   122   62   64 1    
   123   62  138 1    
   124   63  139 1    
   125   63  140 1    
   126   63  141 1    
   127   64   65 am   BACKBONE|DICT|INTERRES
   128   64  142 1    
   129   65   66 2    
   130   65   67 1    
   131   67   68 1    
   132   67   69 1    
   133   67  143 1    
   134   68  144 1    
   135   68  145 1    
   136   68  146 1    
   137   69   70 am   BACKBONE|DICT|INTERRES
   138   69  147 1    
   139   70   71 2    
   140   70   72 1    
   141   72   73 1    
   142   72   74 1    
   143   72  148 1    
   144   73  149 1    
   145   73  150 1    
   146   73  151 1    
   147   74   75 am   BACKBONE|DICT|INTERRES
   148   74  152 1    
   149   75   76 2    
   150   75   77 1    
   151   77   78 1    
   152   77   79 1    
   153   77  153 1    
   154   78  154 1    
   155   78  155 1    
   156   78  156 1    
   157   79   80 am   BACKBONE|DICT|INTERRES
   158   79  157 1    
   159   80   81 2    
@<TRIPOS>SUBSTRUCTURE
     1 UNK         1 GROUP             0       ****    0 ROOT    
