@<TRIPOS>MOLECULE
3R207
157   159    1
SMALL
USER_CHARGES


@<TRIPOS>ATOM
      1 CA        -44.1668  -29.3829   12.2018 C.3       0 UNK        -0.1975 
      2 C         -45.1765  -29.9316   11.2050 C.2       0 UNK         0.4852 
      3 O         -44.8086  -30.7327   10.3456 O.2       0 UNK        -0.5216 
      4 N         -46.4449  -29.5074   11.3077 N.am      1 UNK        -0.4461 
      5 CA        -47.5405  -29.9509   10.4354 C.3       1 UNK         0.0864 
      6 C6        -48.9251  -29.6797   11.0813 C.3       14 UNK        -0.0898 
      7 S7        -49.4394  -27.9228   11.1039 S.3       14 UNK        -0.2598 
      8 C8        -51.2235  -28.1097   11.4124 C.3       14 UNK         0.0286 
      9 C9        -52.0226  -26.9848   10.7732 C.ar      14 UNK        -0.0844 
     10 C10       -52.0651  -25.7206   11.3663 C.ar      14 UNK        -0.0881 
     11 C11       -52.8142  -24.6904   10.7916 C.ar      14 UNK        -0.0643 
     12 C12       -53.5328  -24.9336    9.6177 C.ar      14 UNK        -0.0930 
     13 C13       -53.5218  -26.2025    9.0312 C.ar      14 UNK        -0.0827 
     14 C14       -52.7497  -27.2183    9.6024 C.ar      14 UNK        -0.1249 
     15 C15       -54.3880  -26.4939    7.8152 C.3       14 UNK         0.0141 
     16 S16       -55.8367  -27.5108    8.2501 S.3       14 UNK        -0.2313 
     17 C17       -56.7459  -26.4264    9.4077 C.3       14 UNK        -0.0915 
     18 CA        -56.3934  -26.6776   10.9060 C.3       13 UNK         0.0968 
     19 C         -57.1101  -25.7028   11.8860 C.2       13 UNK         0.5732 
     20 N         -57.0607  -25.9471   13.1902 N.am      13 UNK        -0.7310 
     21 O         -57.7062  -24.7093   11.4751 O.2       13 UNK        -0.5035 
     22 N         -56.4908  -28.0905   11.2952 N.am      13 UNK        -0.4233 
     23 C         -57.6002  -28.8300   11.3902 C.2       13 UNK         0.4989 
     24 O         -58.7332  -28.4095   11.1523 O.2       13 UNK        -0.4996 
     25 CA        -57.4281  -30.2950   11.8403 C.3       12 UNK         0.0216 
     26 CB        -57.1014  -31.2077   10.6413 C.3       12 UNK        -0.1964 
     27 N         -56.4753  -30.4843   12.9479 N.am      12 UNK        -0.4276 
     28 C         -55.1497  -30.2860   12.9558 C.2       12 UNK         0.5020 
     29 O         -54.4869  -29.9656   11.9663 O.2       12 UNK        -0.5489 
     30 CA        -54.4469  -30.4209   14.3145 C.3       11 UNK         0.0294 
     31 CB        -53.6038  -31.7051   14.3670 C.3       11 UNK        -0.2019 
     32 N         -53.5851  -29.2679   14.5778 N.am      11 UNK        -0.4493 
     33 C         -53.9976  -27.9977   14.7100 C.2       11 UNK         0.4932 
     34 O         -55.1800  -27.6551   14.6436 O.2       11 UNK        -0.5029 
     35 CA        -52.9012  -26.9357   14.9408 C.3       10 UNK         0.0280 
     36 CB        -53.4156  -25.6875   15.6876 C.3       10 UNK        -0.1976 
     37 N         -51.6879  -27.4823   15.5657 N.am      10 UNK        -0.4242 
     38 C         -51.5698  -28.0281   16.7832 C.2       10 UNK         0.5072 
     39 O         -52.4678  -28.0279   17.6259 O.2       10 UNK        -0.5224 
     40 CA        -50.2503  -28.7531   17.1146 C.3       9 UNK         0.0343 
     41 CB        -50.3293  -30.2237   16.6568 C.3       9 UNK        -0.2003 
     42 N         -48.9989  -28.1364   16.6422 N.am      9 UNK        -0.4272 
     43 C         -48.5838  -27.9016   15.3894 C.2       9 UNK         0.4988 
     44 O         -49.2831  -28.0369   14.3851 O.2       9 UNK        -0.5108 
     45 CA        -47.1132  -27.5070   15.2366 C.3       8 UNK         0.0248 
     46 CB        -46.2284  -28.7704   15.2599 C.3       8 UNK        -0.2001 
     47 N         -46.9127  -26.7580   13.9938 N.am      8 UNK        -0.4140 
     48 C         -45.8402  -25.9929   13.7452 C.2       8 UNK         0.5028 
     49 O         -44.8918  -25.8860   14.5244 O.2       8 UNK        -0.5428 
     50 CA        -45.7790  -25.2115   12.4185 C.3       7 UNK         0.0264 
     51 CB        -44.8647  -25.9119   11.4015 C.3       7 UNK        -0.1988 
     52 N         -47.0662  -24.9144   11.7852 N.am      7 UNK        -0.4454 
     53 C         -47.9964  -24.1009   12.3037 C.2       7 UNK         0.5027 
     54 O         -47.9503  -23.6466   13.4486 O.2       7 UNK        -0.5083 
     55 CA        -49.1290  -23.6870   11.3444 C.3       6 UNK         0.0844 
     56 C56       -50.1608  -22.7318   12.0064 C.3       14 UNK        -0.0967 
     57 S57       -51.5258  -22.2465   10.8925 S.3       14 UNK        -0.2604 
     58 C58       -52.8791  -23.3234   11.4528 C.3       14 UNK         0.0134 
     59 N         -48.5796  -23.1801   10.0840 N.am      6 UNK        -0.4116 
     60 C         -47.8363  -22.0784    9.8979 C.2       5 UNK         0.5034 
     61 O         -47.4614  -21.3262   10.7978 O.2       5 UNK        -0.5045 
     62 CA        -47.4700  -21.7486    8.4399 C.3       5 UNK         0.0224 
     63 CB        -46.1873  -22.4857    8.0221 C.3       5 UNK        -0.1978 
     64 N         -48.5556  -22.0988    7.5212 N.am      5 UNK        -0.4737 
     65 C         -49.7327  -21.4640    7.4498 C.2       4 UNK         0.5027 
     66 O         -49.9519  -20.3810    7.9923 O.2       4 UNK        -0.5211 
     67 CA        -50.8758  -22.1647    6.6897 C.3       4 UNK         0.0297 
     68 CB        -50.9104  -21.7378    5.2090 C.3       4 UNK        -0.1993 
     69 N         -50.8958  -23.6303    6.8436 N.am      4 UNK        -0.4486 
     70 C         -50.0238  -24.5305    6.3701 C.2       3 UNK         0.4961 
     71 O         -49.0533  -24.2473    5.6639 O.2       3 UNK        -0.5105 
     72 CA        -50.2738  -25.9926    6.7719 C.3       3 UNK         0.0299 
     73 CB        -51.1973  -26.6740    5.7500 C.3       3 UNK        -0.1972 
     74 N         -49.0296  -26.7580    6.8734 N.am      3 UNK        -0.4305 
     75 C         -48.0426  -26.5139    7.7444 C.2       2 UNK         0.5006 
     76 O         -48.0798  -25.6400    8.6163 O.2       2 UNK        -0.5106 
     77 CA        -46.8056  -27.4171    7.6396 C.3       2 UNK         0.0296 
     78 CB        -45.5150  -26.5873    7.5331 C.3       2 UNK        -0.2002 
     79 N         -46.7501  -28.2583    8.8297 N.am      2 UNK        -0.4032 
     80 C         -47.4599  -29.3830    8.9987 C.2       1 UNK         0.5000 
     81 O         -48.0669  -29.9509    8.0882 O.2       1 UNK        -0.5238 
     82 H82       -44.5894  -28.5948   12.8218 H         1 UNK         0.0889 
     83 H83       -43.3058  -28.9708   11.6761 H         1 UNK         0.0889 
     84 H84       -43.8162  -30.1797   12.8572 H         1 UNK         0.0889 
     85 H85       -46.7096  -28.8699   12.0442 H         1 UNK         0.3028 
     86 H86       -47.4456  -31.0347   10.3354 H         1 UNK         0.0864 
     87 H87       -49.6803  -30.2536   10.5415 H         1 UNK         0.0720 
     88 H88       -48.9454  -30.0574   12.1051 H         1 UNK         0.0720 
     89 H89       -51.3972  -28.1317   12.4878 H         1 UNK         0.0814 
     90 H90       -51.5779  -29.0695   11.0339 H         1 UNK         0.0814 
     91 H91       -51.5073  -25.5368   12.2732 H         1 UNK         0.1469 
     92 H92       -54.1313  -24.1443    9.1837 H         1 UNK         0.1381 
     93 H93       -52.7440  -28.2012    9.1515 H         1 UNK         0.1206 
     94 H94       -54.7195  -25.5711    7.3368 H         1 UNK         0.0813 
     95 H95       -53.8004  -27.0337    7.0730 H         1 UNK         0.0813 
     96 H96       -56.5493  -25.3878    9.1371 H         1 UNK         0.0638 
     97 H97       -57.8129  -26.5827    9.2424 H         1 UNK         0.0638 
     98 H98       -55.3407  -26.4376   11.0354 H         1 UNK         0.0568 
     99 H99       -57.5254  -25.3159   13.8221 H         1 UNK         0.3450 
    100 H100      -56.5137  -26.7166   13.5632 H         1 UNK         0.3450 
    101 H101      -55.6097  -28.5589   11.4920 H         1 UNK         0.2987 
    102 H102      -58.3957  -30.6120   12.2331 H         1 UNK         0.0766 
    103 H103      -57.8800  -31.1400    9.8804 H         1 UNK         0.0798 
    104 H104      -57.0329  -32.2524   10.9441 H         1 UNK         0.0798 
    105 H105      -56.1609  -30.9339   10.1621 H         1 UNK         0.0798 
    106 H106      -56.9091  -30.7136   13.8322 H         1 UNK         0.3198 
    107 H107      -55.1968  -30.4628   15.1073 H         1 UNK         0.0843 
    108 H108      -52.8216  -31.7054   13.6064 H         1 UNK         0.0831 
    109 H109      -54.2243  -32.5857   14.1950 H         1 UNK         0.0831 
    110 H110      -53.1279  -31.8304   15.3398 H         1 UNK         0.0831 
    111 H111      -52.5936  -29.4470   14.6108 H         1 UNK         0.3133 
    112 H112      -52.6016  -26.6101   13.9478 H         1 UNK         0.0566 
    113 H113      -52.6227  -24.9527   15.8255 H         1 UNK         0.0814 
    114 H114      -54.2139  -25.1996   15.1267 H         1 UNK         0.0814 
    115 H115      -53.8177  -25.9384   16.6693 H         1 UNK         0.0814 
    116 H116      -50.8697  -27.5715   14.9616 H         1 UNK         0.3091 
    117 H117      -50.1748  -28.7572   18.2033 H         1 UNK         0.0702 
    118 H118      -49.4657  -30.7918   17.0026 H         1 UNK         0.0785 
    119 H119      -50.3723  -30.3120   15.5706 H         1 UNK         0.0785 
    120 H120      -51.2182  -30.7126   17.0583 H         1 UNK         0.0785 
    121 H121      -48.3363  -27.9426   17.3808 H         1 UNK         0.2998 
    122 H122      -46.8474  -26.8622   16.0773 H         1 UNK         0.0697 
    123 H123      -46.4529  -29.4347   14.4250 H         1 UNK         0.0825 
    124 H124      -46.3828  -29.3419   16.1761 H         1 UNK         0.0825 
    125 H125      -45.1681  -28.5217   15.2204 H         1 UNK         0.0825 
    126 H126      -47.6941  -26.7750   13.3494 H         1 UNK         0.3029 
    127 H127      -45.3187  -24.2505   12.6601 H         1 UNK         0.0897 
    128 H128      -44.6419  -25.2558   10.5602 H         1 UNK         0.0792 
    129 H129      -45.3156  -26.8216   11.0106 H         1 UNK         0.0792 
    130 H130      -43.9089  -26.1842   11.8520 H         1 UNK         0.0792 
    131 H131      -47.1999  -25.2331   10.8335 H         1 UNK         0.3086 
    132 H132      -49.6419  -24.6101   11.0790 H         1 UNK         0.0583 
    133 H133      -50.5732  -23.1851   12.9092 H         1 UNK         0.1020 
    134 H134      -49.6676  -21.8167   12.3390 H         1 UNK         0.1020 
    135 H135      -52.8672  -23.4206   12.5394 H         1 UNK         0.0694 
    136 H136      -53.8271  -22.8417   11.2082 H         1 UNK         0.0694 
    137 H137      -48.7397  -23.7784    9.2823 H         1 UNK         0.2989 
    138 H138      -47.2925  -20.6728    8.3740 H         1 UNK         0.1055 
    139 H139      -46.3156  -23.5681    8.0479 H         1 UNK         0.0806 
    140 H140      -45.3605  -22.2390    8.6896 H         1 UNK         0.0806 
    141 H141      -45.8825  -22.2092    7.0127 H         1 UNK         0.0806 
    142 H142      -48.4587  -22.9552    6.9827 H         1 UNK         0.3061 
    143 H143      -51.8033  -21.8170    7.1482 H         1 UNK         0.0734 
    144 H144      -51.7461  -22.1979    4.6822 H         1 UNK         0.0832 
    145 H145      -51.0277  -20.6568    5.1222 H         1 UNK         0.0832 
    146 H146      -49.9933  -22.0033    4.6828 H         1 UNK         0.0832 
    147 H147      -51.6344  -23.9762    7.4414 H         1 UNK         0.3156 
    148 H148      -50.7544  -26.0085    7.7525 H         1 UNK         0.0589 
    149 H149      -51.4682  -27.6804    6.0699 H         1 UNK         0.0808 
    150 H150      -52.1235  -26.1129    5.6213 H         1 UNK         0.0808 
    151 H151      -50.7272  -26.7467    4.7683 H         1 UNK         0.0808 
    152 H152      -48.9030  -27.4979    6.1987 H         1 UNK         0.3098 
    153 H153      -46.8801  -28.0452    6.7492 H         1 UNK         0.0720 
    154 H154      -45.5305  -25.9616    6.6398 H         1 UNK         0.0791 
    155 H155      -44.6359  -27.2284    7.4658 H         1 UNK         0.0791 
    156 H156      -45.3823  -25.9255    8.3884 H         1 UNK         0.0791 
    157 H157      -46.3169  -27.8554    9.6446 H         1 UNK         0.3028 
@<TRIPOS>BOND
     1    1    2 1    
     2    1   82 1    
     3    1   83 1    
     4    1   84 1    
     5    2    3 2    
     6    2    4 am   BACKBONE|DICT|INTERRES
     7    4    5 1    
     8    4   85 1    
     9    5    6 1    
    10    5   80 1    
    11    5   86 1    
    12    6    7 1    
    13    6   87 1    
    14    6   88 1    
    15    7    8 1    
    16    8    9 1    
    17    8   89 1    
    18    8   90 1    
    19    9   10 ar   
    20    9   14 ar   
    21   10   11 ar   
    22   10   91 1    
    23   11   12 ar   
    24   11   58 1    
    25   12   13 ar   
    26   12   92 1    
    27   13   14 ar   
    28   13   15 1    
    29   14   93 1    
    30   15   16 1    
    31   15   94 1    
    32   15   95 1    
    33   16   17 1    
    34   17   18 1    
    35   17   96 1    
    36   17   97 1    
    37   18   19 1    
    38   18   22 1    
    39   18   98 1    
    40   19   20 am   BACKBONE|DICT|INTERRES
    41   19   21 2    
    42   20   99 1    
    43   20  100 1    
    44   22   23 am   BACKBONE|DICT|INTERRES
    45   22  101 1    
    46   23   24 2    
    47   23   25 1    
    48   25   26 1    
    49   25   27 1    
    50   25  102 1    
    51   26  103 1    
    52   26  104 1    
    53   26  105 1    
    54   27   28 am   BACKBONE|DICT|INTERRES
    55   27  106 1    
    56   28   29 2    
    57   28   30 1    
    58   30   31 1    
    59   30   32 1    
    60   30  107 1    
    61   31  108 1    
    62   31  109 1    
    63   31  110 1    
    64   32   33 am   BACKBONE|DICT|INTERRES
    65   32  111 1    
    66   33   34 2    
    67   33   35 1    
    68   35   36 1    
    69   35   37 1    
    70   35  112 1    
    71   36  113 1    
    72   36  114 1    
    73   36  115 1    
    74   37   38 am   BACKBONE|DICT|INTERRES
    75   37  116 1    
    76   38   39 2    
    77   38   40 1    
    78   40   41 1    
    79   40   42 1    
    80   40  117 1    
    81   41  118 1    
    82   41  119 1    
    83   41  120 1    
    84   42   43 am   BACKBONE|DICT|INTERRES
    85   42  121 1    
    86   43   44 2    
    87   43   45 1    
    88   45   46 1    
    89   45   47 1    
    90   45  122 1    
    91   46  123 1    
    92   46  124 1    
    93   46  125 1    
    94   47   48 am   BACKBONE|DICT|INTERRES
    95   47  126 1    
    96   48   49 2    
    97   48   50 1    
    98   50   51 1    
    99   50   52 1    
   100   50  127 1    
   101   51  128 1    
   102   51  129 1    
   103   51  130 1    
   104   52   53 am   BACKBONE|DICT|INTERRES
   105   52  131 1    
   106   53   54 2    
   107   53   55 1    
   108   55   56 1    
   109   55   59 1    
   110   55  132 1    
   111   56   57 1    
   112   56  133 1    
   113   56  134 1    
   114   57   58 1    
   115   58  135 1    
   116   58  136 1    
   117   59   60 am   BACKBONE|DICT|INTERRES
   118   59  137 1    
   119   60   61 2    
   120   60   62 1    
   121   62   63 1    
   122   62   64 1    
   123   62  138 1    
   124   63  139 1    
   125   63  140 1    
   126   63  141 1    
   127   64   65 am   BACKBONE|DICT|INTERRES
   128   64  142 1    
   129   65   66 2    
   130   65   67 1    
   131   67   68 1    
   132   67   69 1    
   133   67  143 1    
   134   68  144 1    
   135   68  145 1    
   136   68  146 1    
   137   69   70 am   BACKBONE|DICT|INTERRES
   138   69  147 1    
   139   70   71 2    
   140   70   72 1    
   141   72   73 1    
   142   72   74 1    
   143   72  148 1    
   144   73  149 1    
   145   73  150 1    
   146   73  151 1    
   147   74   75 am   BACKBONE|DICT|INTERRES
   148   74  152 1    
   149   75   76 2    
   150   75   77 1    
   151   77   78 1    
   152   77   79 1    
   153   77  153 1    
   154   78  154 1    
   155   78  155 1    
   156   78  156 1    
   157   79   80 am   BACKBONE|DICT|INTERRES
   158   79  157 1    
   159   80   81 2    
@<TRIPOS>SUBSTRUCTURE
     1 UNK         1 GROUP             0       ****    0 ROOT    
