@<TRIPOS>MOLECULE
3R207
157   159    1
SMALL
USER_CHARGES


@<TRIPOS>ATOM
      1 CA        -45.6727  -31.0308    3.8677 C.3       0 UNK        -0.1975 
      2 C         -46.9237  -30.2308    3.5347 C.2       0 UNK         0.4852 
      3 O         -47.0715  -29.7710    2.4012 O.2       0 UNK        -0.5216 
      4 N         -47.8274  -30.0691    4.5101 N.am      1 UNK        -0.4461 
      5 CA        -49.0492  -29.2662    4.3924 C.3       1 UNK         0.0864 
      6 C6        -50.0710  -29.6357    5.5016 C.3       14 UNK        -0.0898 
      7 S7        -51.7919  -29.6121    4.8990 S.3       14 UNK        -0.2598 
      8 C8        -52.4388  -28.0509    5.5790 C.3       14 UNK         0.0286 
      9 C9        -52.5265  -28.0560    7.0987 C.ar      14 UNK        -0.0844 
     10 C10       -51.7071  -27.2138    7.8541 C.ar      14 UNK        -0.0881 
     11 C11       -51.8172  -27.1741    9.2466 C.ar      14 UNK        -0.0643 
     12 C12       -52.7597  -27.9865    9.8873 C.ar      14 UNK        -0.0930 
     13 C13       -53.5823  -28.8402    9.1426 C.ar      14 UNK        -0.0827 
     14 C14       -53.4543  -28.8730    7.7495 C.ar      14 UNK        -0.1249 
     15 C15       -54.5957  -29.7427    9.8366 C.3       14 UNK         0.0141 
     16 S16       -56.2922  -29.4540    9.2365 S.3       14 UNK        -0.2313 
     17 C17       -57.2059  -30.7646   10.1200 C.3       14 UNK        -0.0915 
     18 CA        -58.4446  -30.2234   10.8938 C.3       13 UNK         0.0968 
     19 C         -59.3080  -31.3630   11.5181 C.2       13 UNK         0.5732 
     20 N         -59.9493  -31.1559   12.6622 N.am      13 UNK        -0.7310 
     21 O         -59.4307  -32.4421   10.9425 O.2       13 UNK        -0.5035 
     22 N         -58.1168  -29.1168   11.8124 N.am      13 UNK        -0.4233 
     23 C         -57.3084  -29.1892   12.8759 C.2       13 UNK         0.4989 
     24 O         -56.7570  -30.2217   13.2675 O.2       13 UNK        -0.4996 
     25 CA        -57.0937  -27.8791   13.6406 C.3       12 UNK         0.0216 
     26 CB        -58.2737  -27.5893   14.5850 C.3       12 UNK        -0.1964 
     27 N         -55.8662  -27.9912   14.4231 N.am      12 UNK        -0.4276 
     28 C         -54.9131  -27.0603   14.5071 C.2       12 UNK         0.5020 
     29 O         -54.9738  -25.9585   13.9538 O.2       12 UNK        -0.5489 
     30 CA        -53.6630  -27.4550   15.3136 C.3       11 UNK         0.0294 
     31 CB        -52.7117  -28.2914   14.4422 C.3       11 UNK        -0.2019 
     32 N         -52.9424  -26.2826   15.8118 N.am      11 UNK        -0.4493 
     33 C         -53.3919  -25.4598   16.7691 C.2       11 UNK         0.4932 
     34 O         -54.4279  -25.6557   17.4088 O.2       11 UNK        -0.5029 
     35 CA        -52.5277  -24.2167   17.0542 C.3       10 UNK         0.0280 
     36 CB        -53.0153  -23.3957   18.2672 C.3       10 UNK        -0.1976 
     37 N         -51.1031  -24.5406   17.1757 N.am      10 UNK        -0.4242 
     38 C         -50.5152  -25.3394   18.0805 C.2       10 UNK         0.5072 
     39 O         -51.1154  -25.9002   18.9985 O.2       10 UNK        -0.5224 
     40 CA        -48.9970  -25.5728   17.9414 C.3       9 UNK         0.0343 
     41 CB        -48.7227  -27.0115   17.4723 C.3       9 UNK        -0.2003 
     42 N         -48.3358  -24.6454   17.0200 N.am      9 UNK        -0.4272 
     43 C         -48.1125  -23.3444   17.2520 C.2       9 UNK         0.4988 
     44 O         -48.3647  -22.7828   18.3181 O.2       9 UNK        -0.5108 
     45 CA        -47.5549  -22.5244   16.0751 C.3       8 UNK         0.0248 
     46 CB        -46.0230  -22.6358   16.0053 C.3       8 UNK        -0.2001 
     47 N         -48.1422  -22.9196   14.7898 N.am      8 UNK        -0.4140 
     48 C         -49.4265  -22.7320   14.4497 C.2       8 UNK         0.5028 
     49 O         -50.2492  -22.1633   15.1665 O.2       8 UNK        -0.5428 
     50 CA        -49.8837  -23.3211   13.1069 C.3       7 UNK         0.0264 
     51 CB        -49.5540  -22.3703   11.9451 C.3       7 UNK        -0.1988 
     52 N         -49.2885  -24.6338   12.8558 N.am      7 UNK        -0.4454 
     53 C         -49.6581  -25.7608   13.4850 C.2       7 UNK         0.5027 
     54 O         -50.5535  -25.8021   14.3293 O.2       7 UNK        -0.5083 
     55 CA        -48.8828  -27.0545   13.1400 C.3       6 UNK         0.0844 
     56 C56       -49.5249  -27.8007   11.9399 C.3       14 UNK        -0.0967 
     57 S57       -49.2811  -26.9594   10.3313 S.3       14 UNK        -0.2604 
     58 C58       -50.9246  -26.2323   10.0401 C.3       14 UNK         0.0134 
     59 N         -47.4527  -26.8250   12.9199 N.am      6 UNK        -0.4116 
     60 C         -46.6051  -26.2125   13.7568 C.2       5 UNK         0.5034 
     61 O         -46.8957  -25.8899   14.9071 O.2       5 UNK        -0.5045 
     62 CA        -45.2208  -25.8273   13.1990 C.3       5 UNK         0.0224 
     63 CB        -44.1487  -26.7985   13.7171 C.3       5 UNK        -0.1978 
     64 N         -45.1398  -25.7534   11.7316 N.am      5 UNK        -0.4737 
     65 C         -45.9074  -24.9938   10.9361 C.2       4 UNK         0.5027 
     66 O         -46.8032  -24.2576   11.3598 O.2       4 UNK        -0.5211 
     67 CA        -45.6804  -25.1196    9.4218 C.3       4 UNK         0.0297 
     68 CB        -45.3575  -26.5676    8.9844 C.3       4 UNK        -0.1993 
     69 N         -46.8840  -24.6452    8.7449 N.am      4 UNK        -0.4486 
     70 C         -46.9838  -24.3166    7.4559 C.2       3 UNK         0.4961 
     71 O         -46.0361  -24.3149    6.6649 O.2       3 UNK        -0.5105 
     72 CA        -48.3790  -23.9215    6.9617 C.3       3 UNK         0.0299 
     73 CB        -48.6018  -22.4025    7.0488 C.3       3 UNK        -0.1972 
     74 N         -48.4838  -24.3706    5.5797 N.am      3 UNK        -0.4305 
     75 C         -49.5883  -24.8279    4.9841 C.2       2 UNK         0.5006 
     76 O         -50.7110  -24.7744    5.4865 O.2       2 UNK        -0.5106 
     77 CA        -49.4207  -25.4871    3.6004 C.3       2 UNK         0.0296 
     78 CB        -48.1466  -25.0471    2.8422 C.3       2 UNK        -0.2002 
     79 N         -49.4974  -26.9523    3.6894 N.am      2 UNK        -0.4032 
     80 C         -48.7090  -27.7606    4.4167 C.2       1 UNK         0.5000 
     81 O         -47.7625  -27.3687    5.1054 O.2       1 UNK        -0.5238 
     82 H82       -44.7857  -30.4130    3.7306 H         1 UNK         0.0889 
     83 H83       -45.5926  -31.8944    3.2080 H         1 UNK         0.0889 
     84 H84       -45.6799  -31.3899    4.8967 H         1 UNK         0.0889 
     85 H85       -47.6319  -30.4358    5.4304 H         1 UNK         0.3028 
     86 H86       -49.4830  -29.5005    3.4172 H         1 UNK         0.0864 
     87 H87       -49.8991  -30.6568    5.8464 H         1 UNK         0.0720 
     88 H88       -49.9593  -29.0145    6.3925 H         1 UNK         0.0720 
     89 H89       -53.4362  -27.8810    5.1710 H         1 UNK         0.0814 
     90 H90       -51.8275  -27.2201    5.2284 H         1 UNK         0.0814 
     91 H91       -50.9848  -26.5790    7.3597 H         1 UNK         0.1469 
     92 H92       -52.8517  -27.9535   10.9640 H         1 UNK         0.1381 
     93 H93       -54.0880  -29.5285    7.1676 H         1 UNK         0.1206 
     94 H94       -54.5736  -29.5956   10.9178 H         1 UNK         0.0813 
     95 H95       -54.3210  -30.7829    9.6559 H         1 UNK         0.0813 
     96 H96       -56.5347  -31.2938   10.7981 H         1 UNK         0.0638 
     97 H97       -57.5141  -31.4969    9.3720 H         1 UNK         0.0638 
     98 H98       -59.1045  -29.7777   10.1489 H         1 UNK         0.0568 
     99 H99       -60.5139  -31.8945   13.0510 H         1 UNK         0.3450 
    100 H100      -59.8695  -30.2742   13.1417 H         1 UNK         0.3450 
    101 H101      -58.5404  -28.2293   11.5835 H         1 UNK         0.2987 
    102 H102      -57.0055  -27.0715   12.9103 H         1 UNK         0.0766 
    103 H103      -58.1175  -26.6619   15.1367 H         1 UNK         0.0798 
    104 H104      -58.4149  -28.3899   15.3126 H         1 UNK         0.0798 
    105 H105      -59.2068  -27.4809   14.0309 H         1 UNK         0.0798 
    106 H106      -55.7037  -28.9101   14.8160 H         1 UNK         0.3198 
    107 H107      -53.9731  -28.0523   16.1740 H         1 UNK         0.0843 
    108 H108      -53.1837  -29.2208   14.1209 H         1 UNK         0.0831 
    109 H109      -51.8035  -28.5579   14.9834 H         1 UNK         0.0831 
    110 H110      -52.4212  -27.7464   13.5444 H         1 UNK         0.0831 
    111 H111      -52.0865  -26.0361   15.3171 H         1 UNK         0.3133 
    112 H112      -52.6158  -23.5797   16.1729 H         1 UNK         0.0566 
    113 H113      -52.3959  -22.5121   18.4213 H         1 UNK         0.0814 
    114 H114      -54.0393  -23.0514   18.1178 H         1 UNK         0.0814 
    115 H115      -53.0012  -23.9807   19.1873 H         1 UNK         0.0814 
    116 H116      -50.5132  -24.1421   16.4573 H         1 UNK         0.3091 
    117 H117      -48.5540  -25.4427   18.9309 H         1 UNK         0.0702 
    118 H118      -47.6529  -27.2132   17.4125 H         1 UNK         0.0785 
    119 H119      -49.1549  -27.2013   16.4892 H         1 UNK         0.0785 
    120 H120      -49.1517  -27.7384   18.1634 H         1 UNK         0.0785 
    121 H121      -48.0041  -25.0419   16.1434 H         1 UNK         0.2998 
    122 H122      -47.8110  -21.4772   16.2502 H         1 UNK         0.0697 
    123 H123      -45.6949  -23.6631   15.8458 H         1 UNK         0.0825 
    124 H124      -45.5675  -22.2921   16.9350 H         1 UNK         0.0825 
    125 H125      -45.6156  -22.0232   15.2009 H         1 UNK         0.0825 
    126 H126      -47.5446  -23.4159   14.1450 H         1 UNK         0.3029 
    127 H127      -50.9690  -23.4403   13.1480 H         1 UNK         0.0897 
    128 H128      -49.9071  -22.7692   10.9940 H         1 UNK         0.0792 
    129 H129      -50.0337  -21.4011   12.0886 H         1 UNK         0.0792 
    130 H130      -48.4817  -22.1923   11.8561 H         1 UNK         0.0792 
    131 H131      -48.5081  -24.6634   12.2045 H         1 UNK         0.3086 
    132 H132      -48.9613  -27.7048   14.0133 H         1 UNK         0.0583 
    133 H133      -49.0818  -28.7944   11.8584 H         1 UNK         0.1020 
    134 H134      -50.5862  -27.9806   12.1122 H         1 UNK         0.1020 
    135 H135      -51.3945  -25.9561   10.9852 H         1 UNK         0.0694 
    136 H136      -50.7984  -25.3006    9.4865 H         1 UNK         0.0694 
    137 H137      -47.1196  -27.0338   11.9906 H         1 UNK         0.2989 
    138 H138      -44.9950  -24.8309   13.5846 H         1 UNK         0.1055 
    139 H139      -44.1656  -26.8546   14.8068 H         1 UNK         0.0806 
    140 H140      -43.1476  -26.4773   13.4288 H         1 UNK         0.0806 
    141 H141      -44.3013  -27.8095   13.3369 H         1 UNK         0.0806 
    142 H142      -44.4371  -26.3338   11.2959 H         1 UNK         0.3061 
    143 H143      -44.8474  -24.4648    9.1587 H         1 UNK         0.0734 
    144 H144      -44.4110  -26.9141    9.3996 H         1 UNK         0.0832 
    145 H145      -46.1355  -27.2649    9.2983 H         1 UNK         0.0832 
    146 H146      -45.2651  -26.6483    7.9012 H         1 UNK         0.0832 
    147 H147      -47.6835  -24.5433    9.3578 H         1 UNK         0.3156 
    148 H148      -49.1247  -24.4371    7.5714 H         1 UNK         0.0589 
    149 H149      -47.8689  -21.8538    6.4559 H         1 UNK         0.0808 
    150 H150      -49.5947  -22.1275    6.6925 H         1 UNK         0.0808 
    151 H151      -48.5181  -22.0540    8.0790 H         1 UNK         0.0808 
    152 H152      -47.5874  -24.5249    5.1331 H         1 UNK         0.3098 
    153 H153      -50.2786  -25.1671    3.0070 H         1 UNK         0.0720 
    154 H154      -48.0914  -23.9603    2.7650 H         1 UNK         0.0791 
    155 H155      -48.1460  -25.4391    1.8250 H         1 UNK         0.0791 
    156 H156      -47.2310  -25.3919    3.3237 H         1 UNK         0.0791 
    157 H157      -50.2627  -27.3732    3.1809 H         1 UNK         0.3028 
@<TRIPOS>BOND
     1    1    2 1    
     2    1   82 1    
     3    1   83 1    
     4    1   84 1    
     5    2    3 2    
     6    2    4 am   BACKBONE|DICT|INTERRES
     7    4    5 1    
     8    4   85 1    
     9    5    6 1    
    10    5   80 1    
    11    5   86 1    
    12    6    7 1    
    13    6   87 1    
    14    6   88 1    
    15    7    8 1    
    16    8    9 1    
    17    8   89 1    
    18    8   90 1    
    19    9   10 ar   
    20    9   14 ar   
    21   10   11 ar   
    22   10   91 1    
    23   11   12 ar   
    24   11   58 1    
    25   12   13 ar   
    26   12   92 1    
    27   13   14 ar   
    28   13   15 1    
    29   14   93 1    
    30   15   16 1    
    31   15   94 1    
    32   15   95 1    
    33   16   17 1    
    34   17   18 1    
    35   17   96 1    
    36   17   97 1    
    37   18   19 1    
    38   18   22 1    
    39   18   98 1    
    40   19   20 am   BACKBONE|DICT|INTERRES
    41   19   21 2    
    42   20   99 1    
    43   20  100 1    
    44   22   23 am   BACKBONE|DICT|INTERRES
    45   22  101 1    
    46   23   24 2    
    47   23   25 1    
    48   25   26 1    
    49   25   27 1    
    50   25  102 1    
    51   26  103 1    
    52   26  104 1    
    53   26  105 1    
    54   27   28 am   BACKBONE|DICT|INTERRES
    55   27  106 1    
    56   28   29 2    
    57   28   30 1    
    58   30   31 1    
    59   30   32 1    
    60   30  107 1    
    61   31  108 1    
    62   31  109 1    
    63   31  110 1    
    64   32   33 am   BACKBONE|DICT|INTERRES
    65   32  111 1    
    66   33   34 2    
    67   33   35 1    
    68   35   36 1    
    69   35   37 1    
    70   35  112 1    
    71   36  113 1    
    72   36  114 1    
    73   36  115 1    
    74   37   38 am   BACKBONE|DICT|INTERRES
    75   37  116 1    
    76   38   39 2    
    77   38   40 1    
    78   40   41 1    
    79   40   42 1    
    80   40  117 1    
    81   41  118 1    
    82   41  119 1    
    83   41  120 1    
    84   42   43 am   BACKBONE|DICT|INTERRES
    85   42  121 1    
    86   43   44 2    
    87   43   45 1    
    88   45   46 1    
    89   45   47 1    
    90   45  122 1    
    91   46  123 1    
    92   46  124 1    
    93   46  125 1    
    94   47   48 am   BACKBONE|DICT|INTERRES
    95   47  126 1    
    96   48   49 2    
    97   48   50 1    
    98   50   51 1    
    99   50   52 1    
   100   50  127 1    
   101   51  128 1    
   102   51  129 1    
   103   51  130 1    
   104   52   53 am   BACKBONE|DICT|INTERRES
   105   52  131 1    
   106   53   54 2    
   107   53   55 1    
   108   55   56 1    
   109   55   59 1    
   110   55  132 1    
   111   56   57 1    
   112   56  133 1    
   113   56  134 1    
   114   57   58 1    
   115   58  135 1    
   116   58  136 1    
   117   59   60 am   BACKBONE|DICT|INTERRES
   118   59  137 1    
   119   60   61 2    
   120   60   62 1    
   121   62   63 1    
   122   62   64 1    
   123   62  138 1    
   124   63  139 1    
   125   63  140 1    
   126   63  141 1    
   127   64   65 am   BACKBONE|DICT|INTERRES
   128   64  142 1    
   129   65   66 2    
   130   65   67 1    
   131   67   68 1    
   132   67   69 1    
   133   67  143 1    
   134   68  144 1    
   135   68  145 1    
   136   68  146 1    
   137   69   70 am   BACKBONE|DICT|INTERRES
   138   69  147 1    
   139   70   71 2    
   140   70   72 1    
   141   72   73 1    
   142   72   74 1    
   143   72  148 1    
   144   73  149 1    
   145   73  150 1    
   146   73  151 1    
   147   74   75 am   BACKBONE|DICT|INTERRES
   148   74  152 1    
   149   75   76 2    
   150   75   77 1    
   151   77   78 1    
   152   77   79 1    
   153   77  153 1    
   154   78  154 1    
   155   78  155 1    
   156   78  156 1    
   157   79   80 am   BACKBONE|DICT|INTERRES
   158   79  157 1    
   159   80   81 2    
@<TRIPOS>SUBSTRUCTURE
     1 UNK         1 GROUP             0       ****    0 ROOT    
