@<TRIPOS>MOLECULE
3R207
157   159    1
SMALL
USER_CHARGES


@<TRIPOS>ATOM
      1 CA        -47.3642  -28.4718    4.1190 C.3       0 UNK        -0.1975 
      2 C         -48.4173  -27.4672    4.5599 C.2       0 UNK         0.4852 
      3 O         -48.5249  -26.3941    3.9642 O.2       0 UNK        -0.5216 
      4 N         -49.1838  -27.8000    5.6081 N.am      1 UNK        -0.4461 
      5 CA        -50.2399  -26.9725    6.2044 C.3       1 UNK         0.0864 
      6 C6        -50.9359  -27.6898    7.3848 C.3       14 UNK        -0.0898 
      7 S7        -51.8140  -29.2061    6.8836 S.3       14 UNK        -0.2598 
      8 C8        -50.7607  -30.5222    7.5803 C.3       14 UNK         0.0286 
      9 C9        -50.7633  -30.5517    9.1048 C.ar      14 UNK        -0.0844 
     10 C10       -49.5683  -30.3926    9.8148 C.ar      14 UNK        -0.0881 
     11 C11       -49.5504  -30.4714   11.2128 C.ar      14 UNK        -0.0643 
     12 C12       -50.7474  -30.7062   11.8974 C.ar      14 UNK        -0.0930 
     13 C13       -51.9461  -30.8818   11.2006 C.ar      14 UNK        -0.0827 
     14 C14       -51.9480  -30.8005    9.8049 C.ar      14 UNK        -0.1249 
     15 C15       -53.2260  -31.2124   11.9562 C.3       14 UNK         0.0141 
     16 S16       -54.0497  -29.7232   12.5935 S.3       14 UNK        -0.2313 
     17 C17       -54.6594  -28.9716   11.0462 C.3       14 UNK        -0.0915 
     18 CA        -55.9164  -28.0836   11.2380 C.3       13 UNK         0.0968 
     19 C         -57.2142  -28.9347   11.3875 C.2       13 UNK         0.5732 
     20 N         -57.9601  -28.8553   12.4830 N.am      13 UNK        -0.7310 
     21 O         -57.5627  -29.6779   10.4728 O.2       13 UNK        -0.5035 
     22 N         -55.7041  -27.0624   12.2749 N.am      13 UNK        -0.4233 
     23 C         -56.4374  -25.9545   12.4263 C.2       13 UNK         0.4989 
     24 O         -57.2996  -25.5937   11.6223 O.2       13 UNK        -0.4996 
     25 CA        -56.1730  -25.1245   13.7006 C.3       12 UNK         0.0216 
     26 CB        -57.3200  -24.1404   14.0141 C.3       12 UNK        -0.1964 
     27 N         -55.8675  -25.9358   14.8898 N.am      12 UNK        -0.4276 
     28 C         -56.6021  -26.9216   15.4250 C.2       12 UNK         0.5020 
     29 O         -57.6412  -27.3446   14.9151 O.2       12 UNK        -0.5489 
     30 CA        -56.0957  -27.5391   16.7489 C.3       11 UNK         0.0294 
     31 CB        -56.9691  -28.7184   17.2187 C.3       11 UNK        -0.2019 
     32 N         -54.6967  -27.9820   16.7091 N.am      11 UNK        -0.4493 
     33 C         -53.6237  -27.1816   16.7225 C.2       11 UNK         0.4932 
     34 O         -53.7124  -25.9516   16.7116 O.2       11 UNK        -0.5029 
     35 CA        -52.2451  -27.8775   16.7556 C.3       10 UNK         0.0280 
     36 CB        -52.0986  -28.9105   15.6234 C.3       10 UNK        -0.1976 
     37 N         -51.1501  -26.9166   16.6362 N.am      10 UNK        -0.4242 
     38 C         -50.7401  -26.0593   17.5809 C.2       10 UNK         0.5072 
     39 O         -51.1059  -26.0965   18.7570 O.2       10 UNK        -0.5224 
     40 CA        -49.7797  -24.9501   17.1169 C.3       9 UNK         0.0343 
     41 CB        -48.3195  -25.4317   17.1453 C.3       9 UNK        -0.2003 
     42 N         -50.1258  -24.4849   15.7698 N.am      9 UNK        -0.4272 
     43 C         -51.1248  -23.6294   15.5014 C.2       9 UNK         0.4988 
     44 O         -51.7552  -23.0234   16.3685 O.2       9 UNK        -0.5108 
     45 CA        -51.4845  -23.3934   14.0234 C.3       8 UNK         0.0248 
     46 CB        -50.8267  -22.1024   13.5092 C.3       8 UNK        -0.2001 
     47 N         -51.1004  -24.5125   13.1597 N.am      8 UNK        -0.4140 
     48 C         -51.8296  -25.6285   13.0002 C.2       8 UNK         0.5028 
     49 O         -52.9316  -25.8083   13.5158 O.2       8 UNK        -0.5428 
     50 CA        -51.2339  -26.7479   12.1265 C.3       7 UNK         0.0264 
     51 CB        -51.7191  -26.6066   10.6784 C.3       7 UNK        -0.1988 
     52 N         -49.7718  -26.8067   12.1296 N.am      7 UNK        -0.4454 
     53 C         -48.9970  -26.9471   13.2138 C.2       7 UNK         0.5027 
     54 O         -49.4426  -27.1221   14.3471 O.2       7 UNK        -0.5083 
     55 CA        -47.4731  -26.7877   13.0181 C.3       6 UNK         0.0844 
     56 C56       -46.7586  -28.1577   12.9472 C.3       14 UNK        -0.0967 
     57 S57       -47.1109  -29.0842   11.4093 S.3       14 UNK        -0.2604 
     58 C58       -48.2420  -30.3919   11.9953 C.3       14 UNK         0.0134 
     59 N         -47.1022  -25.9276   11.8879 N.am      6 UNK        -0.4116 
     60 C         -47.4929  -24.6656   11.6716 C.2       5 UNK         0.5034 
     61 O         -48.2420  -24.0501   12.4309 O.2       5 UNK        -0.5045 
     62 CA        -47.0295  -23.9836   10.3716 C.3       5 UNK         0.0224 
     63 CB        -45.9023  -22.9702   10.6465 C.3       5 UNK        -0.1978 
     64 N         -46.6754  -24.8973    9.2729 N.am      5 UNK        -0.4737 
     65 C         -45.6336  -25.7357    9.1609 C.2       4 UNK         0.5027 
     66 O         -44.8082  -25.9274   10.0526 O.2       4 UNK        -0.5211 
     67 CA        -45.5043  -26.5065    7.8376 C.3       4 UNK         0.0297 
     68 CB        -46.2737  -27.8362    7.9059 C.3       4 UNK        -0.1993 
     69 N         -45.9878  -25.7135    6.7050 N.am      4 UNK        -0.4486 
     70 C         -45.2493  -24.8095    6.0442 C.2       3 UNK         0.4961 
     71 O         -44.0555  -24.6079    6.2688 O.2       3 UNK        -0.5105 
     72 CA        -45.9467  -23.9891    4.9434 C.3       3 UNK         0.0299 
     73 CB        -45.6443  -24.5798    3.5567 C.3       3 UNK        -0.1972 
     74 N         -47.3971  -23.9016    5.1343 N.am      3 UNK        -0.4305 
     75 C         -47.9890  -23.0598    5.9967 C.2       2 UNK         0.5006 
     76 O         -47.3780  -22.2218    6.6601 O.2       2 UNK        -0.5106 
     77 CA        -49.5150  -23.1822    6.1800 C.3       2 UNK         0.0296 
     78 CB        -50.2478  -22.1953    5.2570 C.3       2 UNK        -0.2002 
     79 N         -50.0373  -24.5346    5.9587 N.am      2 UNK        -0.4032 
     80 C         -49.6765  -25.6143    6.6652 C.2       1 UNK         0.5000 
     81 O         -48.8814  -25.5778    7.6067 O.2       1 UNK        -0.5238 
     82 H82       -47.4321  -29.4059    4.6762 H         1 UNK         0.0889 
     83 H83       -46.3669  -28.0586    4.2677 H         1 UNK         0.0889 
     84 H84       -47.4846  -28.6998    3.0603 H         1 UNK         0.0889 
     85 H85       -49.0456  -28.6957    6.0497 H         1 UNK         0.3028 
     86 H86       -50.9875  -26.7910    5.4292 H         1 UNK         0.0864 
     87 H87       -51.6839  -27.0305    7.8280 H         1 UNK         0.0720 
     88 H88       -50.2195  -27.9189    8.1761 H         1 UNK         0.0720 
     89 H89       -49.7470  -30.4148    7.1930 H         1 UNK         0.0814 
     90 H90       -51.1224  -31.4842    7.2147 H         1 UNK         0.0814 
     91 H91       -48.6434  -30.2324    9.2782 H         1 UNK         0.1469 
     92 H92       -50.7453  -30.7834   12.9762 H         1 UNK         0.1381 
     93 H93       -52.8697  -30.9456    9.2583 H         1 UNK         0.1206 
     94 H94       -52.9940  -31.8682   12.7965 H         1 UNK         0.0813 
     95 H95       -53.9159  -31.7707   11.3215 H         1 UNK         0.0813 
     96 H96       -54.8517  -29.7540   10.3101 H         1 UNK         0.0638 
     97 H97       -53.8503  -28.3799   10.6242 H         1 UNK         0.0638 
     98 H98       -56.0517  -27.5421   10.3001 H         1 UNK         0.0568 
     99 H99       -57.7124  -28.2435   13.2566 H         1 UNK         0.3450 
    100 H100      -58.7955  -29.4138   12.5435 H         1 UNK         0.3450 
    101 H101      -55.0025  -27.2758   12.9703 H         1 UNK         0.2987 
    102 H102      -55.2799  -24.5329   13.4957 H         1 UNK         0.0766 
    103 H103      -57.0984  -23.5416   14.8975 H         1 UNK         0.0798 
    104 H104      -58.2611  -24.6629   14.1901 H         1 UNK         0.0798 
    105 H105      -57.4809  -23.4468   13.1878 H         1 UNK         0.0798 
    106 H106      -54.9939  -25.7129   15.3657 H         1 UNK         0.3198 
    107 H107      -56.1780  -26.7536   17.5034 H         1 UNK         0.0843 
    108 H108      -56.9455  -29.5454   16.5077 H         1 UNK         0.0831 
    109 H109      -58.0110  -28.4146   17.3299 H         1 UNK         0.0831 
    110 H110      -56.6421  -29.0963   18.1875 H         1 UNK         0.0831 
    111 H111      -54.5485  -28.9805   16.6840 H         1 UNK         0.3133 
    112 H112      -52.1509  -28.3911   17.7142 H         1 UNK         0.0566 
    113 H113      -51.1030  -29.3550   15.6173 H         1 UNK         0.0814 
    114 H114      -52.8114  -29.7292   15.7236 H         1 UNK         0.0814 
    115 H115      -52.2604  -28.4522   14.6482 H         1 UNK         0.0814 
    116 H116      -50.7258  -26.8406   15.7165 H         1 UNK         0.3091 
    117 H117      -49.8710  -24.1135   17.8130 H         1 UNK         0.0702 
    118 H118      -47.6360  -24.6440   16.8281 H         1 UNK         0.0785 
    119 H119      -48.1591  -26.2955   16.5002 H         1 UNK         0.0785 
    120 H120      -48.0298  -25.7248   18.1552 H         1 UNK         0.0785 
    121 H121      -49.6731  -24.9549   14.9984 H         1 UNK         0.2998 
    122 H122      -52.5677  -23.2642   13.9664 H         1 UNK         0.0697 
    123 H123      -49.7391  -22.1467   13.5759 H         1 UNK         0.0825 
    124 H124      -51.1522  -21.2411   14.0941 H         1 UNK         0.0825 
    125 H125      -51.0921  -21.9071   12.4702 H         1 UNK         0.0825 
    126 H126      -50.1895  -24.4461   12.7159 H         1 UNK         0.3029 
    127 H127      -51.6047  -27.6965   12.5186 H         1 UNK         0.0897 
    128 H128      -51.1892  -25.8176   10.1432 H         1 UNK         0.0792 
    129 H129      -51.5750  -27.5443   10.1426 H         1 UNK         0.0792 
    130 H130      -52.7822  -26.3666   10.6347 H         1 UNK         0.0792 
    131 H131      -49.3121  -26.6952   11.2379 H         1 UNK         0.3086 
    132 H132      -47.1089  -26.2786   13.9128 H         1 UNK         0.0583 
    133 H133      -45.6798  -27.9993   12.9906 H         1 UNK         0.1020 
    134 H134      -46.9874  -28.7598   13.8283 H         1 UNK         0.1020 
    135 H135      -47.7311  -31.3519   11.9128 H         1 UNK         0.0694 
    136 H136      -48.4563  -30.2533   13.0554 H         1 UNK         0.0694 
    137 H137      -46.4464  -26.3233   11.2244 H         1 UNK         0.2989 
    138 H138      -47.8913  -23.4203   10.0090 H         1 UNK         0.1055 
    139 H139      -46.2183  -22.2269   11.3797 H         1 UNK         0.0806 
    140 H140      -45.6252  -22.4328    9.7393 H         1 UNK         0.0806 
    141 H141      -45.0063  -23.4509   11.0401 H         1 UNK         0.0806 
    142 H142      -47.3668  -24.9384    8.5271 H         1 UNK         0.3061 
    143 H143      -44.4475  -26.7384    7.6872 H         1 UNK         0.0734 
    144 H144      -46.1862  -28.3948    6.9746 H         1 UNK         0.0832 
    145 H145      -45.8735  -28.4705    8.6975 H         1 UNK         0.0832 
    146 H146      -47.3336  -27.6888    8.1152 H         1 UNK         0.0832 
    147 H147      -46.9778  -25.7668    6.5072 H         1 UNK         0.3156 
    148 H148      -45.5298  -22.9799    4.9717 H         1 UNK         0.0589 
    149 H149      -45.9998  -25.6059    3.4639 H         1 UNK         0.0808 
    150 H150      -46.1075  -23.9913    2.7645 H         1 UNK         0.0808 
    151 H151      -44.5705  -24.5912    3.3653 H         1 UNK         0.0808 
    152 H152      -47.9632  -24.5799    4.6312 H         1 UNK         0.3098 
    153 H153      -49.7380  -22.9117    7.2144 H         1 UNK         0.0720 
    154 H154      -51.3220  -22.1994    5.4431 H         1 UNK         0.0791 
    155 H155      -50.0868  -22.4311    4.2042 H         1 UNK         0.0791 
    156 H156      -49.8972  -21.1750    5.4197 H         1 UNK         0.0791 
    157 H157      -50.6619  -24.6537    5.1736 H         1 UNK         0.3028 
@<TRIPOS>BOND
     1    1    2 1    
     2    1   82 1    
     3    1   83 1    
     4    1   84 1    
     5    2    3 2    
     6    2    4 am   BACKBONE|DICT|INTERRES
     7    4    5 1    
     8    4   85 1    
     9    5    6 1    
    10    5   80 1    
    11    5   86 1    
    12    6    7 1    
    13    6   87 1    
    14    6   88 1    
    15    7    8 1    
    16    8    9 1    
    17    8   89 1    
    18    8   90 1    
    19    9   10 ar   
    20    9   14 ar   
    21   10   11 ar   
    22   10   91 1    
    23   11   12 ar   
    24   11   58 1    
    25   12   13 ar   
    26   12   92 1    
    27   13   14 ar   
    28   13   15 1    
    29   14   93 1    
    30   15   16 1    
    31   15   94 1    
    32   15   95 1    
    33   16   17 1    
    34   17   18 1    
    35   17   96 1    
    36   17   97 1    
    37   18   19 1    
    38   18   22 1    
    39   18   98 1    
    40   19   20 am   BACKBONE|DICT|INTERRES
    41   19   21 2    
    42   20   99 1    
    43   20  100 1    
    44   22   23 am   BACKBONE|DICT|INTERRES
    45   22  101 1    
    46   23   24 2    
    47   23   25 1    
    48   25   26 1    
    49   25   27 1    
    50   25  102 1    
    51   26  103 1    
    52   26  104 1    
    53   26  105 1    
    54   27   28 am   BACKBONE|DICT|INTERRES
    55   27  106 1    
    56   28   29 2    
    57   28   30 1    
    58   30   31 1    
    59   30   32 1    
    60   30  107 1    
    61   31  108 1    
    62   31  109 1    
    63   31  110 1    
    64   32   33 am   BACKBONE|DICT|INTERRES
    65   32  111 1    
    66   33   34 2    
    67   33   35 1    
    68   35   36 1    
    69   35   37 1    
    70   35  112 1    
    71   36  113 1    
    72   36  114 1    
    73   36  115 1    
    74   37   38 am   BACKBONE|DICT|INTERRES
    75   37  116 1    
    76   38   39 2    
    77   38   40 1    
    78   40   41 1    
    79   40   42 1    
    80   40  117 1    
    81   41  118 1    
    82   41  119 1    
    83   41  120 1    
    84   42   43 am   BACKBONE|DICT|INTERRES
    85   42  121 1    
    86   43   44 2    
    87   43   45 1    
    88   45   46 1    
    89   45   47 1    
    90   45  122 1    
    91   46  123 1    
    92   46  124 1    
    93   46  125 1    
    94   47   48 am   BACKBONE|DICT|INTERRES
    95   47  126 1    
    96   48   49 2    
    97   48   50 1    
    98   50   51 1    
    99   50   52 1    
   100   50  127 1    
   101   51  128 1    
   102   51  129 1    
   103   51  130 1    
   104   52   53 am   BACKBONE|DICT|INTERRES
   105   52  131 1    
   106   53   54 2    
   107   53   55 1    
   108   55   56 1    
   109   55   59 1    
   110   55  132 1    
   111   56   57 1    
   112   56  133 1    
   113   56  134 1    
   114   57   58 1    
   115   58  135 1    
   116   58  136 1    
   117   59   60 am   BACKBONE|DICT|INTERRES
   118   59  137 1    
   119   60   61 2    
   120   60   62 1    
   121   62   63 1    
   122   62   64 1    
   123   62  138 1    
   124   63  139 1    
   125   63  140 1    
   126   63  141 1    
   127   64   65 am   BACKBONE|DICT|INTERRES
   128   64  142 1    
   129   65   66 2    
   130   65   67 1    
   131   67   68 1    
   132   67   69 1    
   133   67  143 1    
   134   68  144 1    
   135   68  145 1    
   136   68  146 1    
   137   69   70 am   BACKBONE|DICT|INTERRES
   138   69  147 1    
   139   70   71 2    
   140   70   72 1    
   141   72   73 1    
   142   72   74 1    
   143   72  148 1    
   144   73  149 1    
   145   73  150 1    
   146   73  151 1    
   147   74   75 am   BACKBONE|DICT|INTERRES
   148   74  152 1    
   149   75   76 2    
   150   75   77 1    
   151   77   78 1    
   152   77   79 1    
   153   77  153 1    
   154   78  154 1    
   155   78  155 1    
   156   78  156 1    
   157   79   80 am   BACKBONE|DICT|INTERRES
   158   79  157 1    
   159   80   81 2    
@<TRIPOS>SUBSTRUCTURE
     1 UNK         1 GROUP             0       ****    0 ROOT    
