@<TRIPOS>MOLECULE
3R207
157   159    1
SMALL
USER_CHARGES


@<TRIPOS>ATOM
      1 CA        -46.5691  -27.8787    1.5130 C.3       0 UNK        -0.1975 
      2 C         -47.7704  -27.2980    2.2433 C.2       0 UNK         0.4852 
      3 O         -48.1378  -26.1491    1.9966 O.2       0 UNK        -0.5216 
      4 N         -48.3849  -28.0843    3.1385 N.am      1 UNK        -0.4461 
      5 CA        -49.5447  -27.6897    3.9495 C.3       1 UNK         0.0864 
      6 C6        -50.2060  -28.9242    4.6125 C.3       14 UNK        -0.0898 
      7 S7        -52.0020  -28.7264    4.8524 S.3       14 UNK        -0.2598 
      8 C8        -52.4464  -30.3544    5.5404 C.3       14 UNK         0.0286 
      9 C9        -52.2506  -30.4011    7.0491 C.ar      14 UNK        -0.0844 
     10 C10       -50.9918  -30.6732    7.5929 C.ar      14 UNK        -0.0881 
     11 C11       -50.8032  -30.6817    8.9772 C.ar      14 UNK        -0.0643 
     12 C12       -51.8954  -30.4707    9.8223 C.ar      14 UNK        -0.0930 
     13 C13       -53.1630  -30.2138    9.2930 C.ar      14 UNK        -0.0827 
     14 C14       -53.3326  -30.1728    7.9054 C.ar      14 UNK        -0.1249 
     15 C15       -54.3524  -29.9878   10.2134 C.3       14 UNK         0.0141 
     16 S16       -54.6669  -28.2150   10.4650 S.3       14 UNK        -0.2313 
     17 C17       -56.3134  -28.2776   11.2492 C.3       14 UNK        -0.0915 
     18 CA        -56.4437  -27.3046   12.4552 C.3       13 UNK         0.0968 
     19 C         -57.9092  -27.1460   12.9673 C.2       13 UNK         0.5732 
     20 N         -58.1376  -26.8534   14.2440 N.am      13 UNK        -0.7310 
     21 O         -58.8589  -27.2595   12.1952 O.2       13 UNK        -0.5035 
     22 N         -55.4670  -27.5529   13.5275 N.am      13 UNK        -0.4233 
     23 C         -55.3955  -28.6387   14.3124 C.2       13 UNK         0.4989 
     24 O         -56.0476  -29.6663   14.1278 O.2       13 UNK        -0.4996 
     25 CA        -54.4698  -28.5604   15.5449 C.3       12 UNK         0.0216 
     26 CB        -53.2916  -29.5396   15.4223 C.3       12 UNK        -0.1964 
     27 N         -53.9763  -27.2043   15.8237 N.am      12 UNK        -0.4276 
     28 C         -54.7499  -26.2128   16.2926 C.2       12 UNK         0.5020 
     29 O         -55.9401  -26.3542   16.5794 O.2       12 UNK        -0.5489 
     30 CA        -54.1148  -24.8178   16.3893 C.3       11 UNK         0.0294 
     31 CB        -53.3047  -24.6837   17.6872 C.3       11 UNK        -0.2019 
     32 N         -53.2720  -24.4955   15.2329 N.am      11 UNK        -0.4493 
     33 C         -53.7258  -24.3522   13.9766 C.2       11 UNK         0.4932 
     34 O         -54.9122  -24.4868   13.6757 O.2       11 UNK        -0.5029 
     35 CA        -52.7031  -24.0531   12.8595 C.3       10 UNK         0.0280 
     36 CB        -53.3015  -23.2294   11.7005 C.3       10 UNK        -0.1976 
     37 N         -51.4496  -23.4602   13.3312 N.am      10 UNK        -0.4242 
     38 C         -51.2819  -22.2920   13.9730 C.2       10 UNK         0.5072 
     39 O         -52.1882  -21.4840   14.1816 O.2       10 UNK        -0.5224 
     40 CA        -49.8568  -21.9977   14.4900 C.3       9 UNK         0.0343 
     41 CB        -49.8401  -20.9987   15.6675 C.3       9 UNK        -0.2003 
     42 N         -49.1128  -23.2224   14.8238 N.am      9 UNK        -0.4272 
     43 C         -49.4562  -24.1288   15.7510 C.2       9 UNK         0.4988 
     44 O         -50.4258  -24.0037   16.4991 O.2       9 UNK        -0.5108 
     45 CA        -48.6070  -25.4090   15.8048 C.3       8 UNK         0.0248 
     46 CB        -48.6282  -26.0632   17.2020 C.3       8 UNK        -0.2001 
     47 N         -49.0047  -26.3819   14.7785 N.am      8 UNK        -0.4140 
     48 C         -50.2126  -26.9443   14.5876 C.2       8 UNK         0.5028 
     49 O         -51.2105  -26.6944   15.2653 O.2       8 UNK        -0.5428 
     50 CA        -50.3398  -27.9936   13.4684 C.3       7 UNK         0.0264 
     51 CB        -51.6017  -27.7888   12.6044 C.3       7 UNK        -0.1988 
     52 N         -49.1534  -28.0420   12.6097 N.am      7 UNK        -0.4454 
     53 C         -48.2381  -29.0213   12.6297 C.2       7 UNK         0.5027 
     54 O         -48.3329  -30.0281   13.3335 O.2       7 UNK        -0.5083 
     55 CA        -46.9855  -28.8568   11.7414 C.3       6 UNK         0.0844 
     56 C56       -47.0156  -29.7609   10.4827 C.3       14 UNK        -0.0967 
     57 S57       -48.3872  -29.4154    9.3313 S.3       14 UNK        -0.2604 
     58 C58       -49.4165  -30.8991    9.5581 C.3       14 UNK         0.0134 
     59 N         -46.6345  -27.4641   11.4326 N.am      6 UNK        -0.4116 
     60 C         -46.1403  -26.6031   12.3354 C.2       5 UNK         0.5034 
     61 O         -46.1455  -26.8093   13.5492 O.2       5 UNK        -0.5045 
     62 CA        -45.5278  -25.3021   11.8009 C.3       5 UNK         0.0224 
     63 CB        -44.3750  -25.5804   10.8191 C.3       5 UNK        -0.1978 
     64 N         -46.5464  -24.4930   11.1436 N.am      5 UNK        -0.4737 
     65 C         -47.2305  -23.5075   11.7379 C.2       4 UNK         0.5027 
     66 O         -47.0264  -23.1295   12.8912 O.2       4 UNK        -0.5211 
     67 CA        -48.3716  -22.8617   10.9273 C.3       4 UNK         0.0297 
     68 CB        -47.8496  -21.6618   10.1232 C.3       4 UNK        -0.1993 
     69 N         -49.0467  -23.7988   10.0280 N.am      4 UNK        -0.4486 
     70 C         -49.6323  -24.9396   10.4177 C.2       3 UNK         0.4961 
     71 O         -49.7526  -25.2684   11.5980 O.2       3 UNK        -0.5105 
     72 CA        -50.0908  -25.9045    9.3100 C.3       3 UNK         0.0299 
     73 CB        -51.5840  -25.7108    9.0037 C.3       3 UNK        -0.1972 
     74 N         -49.3173  -25.7945    8.0656 N.am      3 UNK        -0.4305 
     75 C         -47.9916  -25.9554    7.9420 C.2       2 UNK         0.5006 
     76 O         -47.2459  -26.2105    8.8906 O.2       2 UNK        -0.5106 
     77 CA        -47.4009  -25.7650    6.5311 C.3       2 UNK         0.0296 
     78 CB        -45.8664  -25.9020    6.5158 C.3       2 UNK        -0.2002 
     79 N         -47.9662  -26.6929    5.5494 N.am      2 UNK        -0.4032 
     80 C         -49.1874  -26.6139    4.9995 C.2       1 UNK         0.5000 
     81 O         -50.0050  -25.7359    5.2849 O.2       1 UNK        -0.5238 
     82 H82       -46.7571  -27.8982    0.4400 H         1 UNK         0.0889 
     83 H83       -46.3464  -28.8954    1.8366 H         1 UNK         0.0889 
     84 H84       -45.6870  -27.2644    1.6938 H         1 UNK         0.0889 
     85 H85       -48.0433  -29.0240    3.2832 H         1 UNK         0.3028 
     86 H86       -50.2639  -27.2388    3.2618 H         1 UNK         0.0864 
     87 H87       -49.7263  -29.1615    5.5623 H         1 UNK         0.0720 
     88 H88       -50.0738  -29.8046    3.9813 H         1 UNK         0.0720 
     89 H89       -51.8638  -31.1400    5.0569 H         1 UNK         0.0814 
     90 H90       -53.4892  -30.5613    5.2956 H         1 UNK         0.0814 
     91 H91       -50.1482  -30.8581    6.9437 H         1 UNK         0.1469 
     92 H92       -51.7554  -30.5073   10.8924 H         1 UNK         0.1381 
     93 H93       -54.3100  -29.9617    7.4933 H         1 UNK         0.1206 
     94 H94       -54.1887  -30.4644   11.1816 H         1 UNK         0.0813 
     95 H95       -55.2378  -30.4581    9.7825 H         1 UNK         0.0813 
     96 H96       -57.0381  -28.0250   10.4736 H         1 UNK         0.0638 
     97 H97       -56.5458  -29.2981   11.5556 H         1 UNK         0.0638 
     98 H98       -56.1962  -26.3122   12.0777 H         1 UNK         0.0568 
     99 H99       -59.0885  -26.7438   14.5582 H         1 UNK         0.3450 
    100 H100      -57.3742  -26.7296   14.8963 H         1 UNK         0.3450 
    101 H101      -54.9262  -26.7413   13.7906 H         1 UNK         0.2987 
    102 H102      -55.0645  -28.8735   16.4057 H         1 UNK         0.0766 
    103 H103      -52.7389  -29.3967   14.4974 H         1 UNK         0.0798 
    104 H104      -53.6477  -30.5707   15.4217 H         1 UNK         0.0798 
    105 H105      -52.5947  -29.4374   16.2546 H         1 UNK         0.0798 
    106 H106      -52.9951  -27.0052   15.6206 H         1 UNK         0.3198 
    107 H107      -54.9259  -24.0870   16.4192 H         1 UNK         0.0843 
    108 H108      -52.9084  -23.6749   17.8042 H         1 UNK         0.0831 
    109 H109      -52.4630  -25.3777   17.7095 H         1 UNK         0.0831 
    110 H110      -53.9251  -24.8930   18.5596 H         1 UNK         0.0831 
    111 H111      -52.2748  -24.4255   15.4118 H         1 UNK         0.3133 
    112 H112      -52.4294  -25.0241   12.4500 H         1 UNK         0.0566 
    113 H113      -54.1427  -23.7510   11.2424 H         1 UNK         0.0814 
    114 H114      -53.6659  -22.2593   12.0396 H         1 UNK         0.0814 
    115 H115      -52.5645  -23.0574   10.9159 H         1 UNK         0.0814 
    116 H116      -50.6319  -24.0404   13.1812 H         1 UNK         0.3091 
    117 H117      -49.3208  -21.5251   13.6675 H         1 UNK         0.0702 
    118 H118      -48.8248  -20.8192   16.0209 H         1 UNK         0.0785 
    119 H119      -50.4323  -21.3535   16.5115 H         1 UNK         0.0785 
    120 H120      -50.2524  -20.0348   15.3669 H         1 UNK         0.0785 
    121 H121      -48.2911  -23.3910   14.2456 H         1 UNK         0.2998 
    122 H122      -47.5753  -25.1273   15.5870 H         1 UNK         0.0697 
    123 H123      -47.9664  -26.9281   17.2440 H         1 UNK         0.0825 
    124 H124      -48.2943  -25.3596   17.9655 H         1 UNK         0.0825 
    125 H125      -49.6290  -26.3939   17.4827 H         1 UNK         0.0825 
    126 H126      -48.2547  -26.6737   14.1638 H         1 UNK         0.3029 
    127 H127      -50.4615  -28.9426   13.9935 H         1 UNK         0.0897 
    128 H128      -51.9007  -28.7216   12.1355 H         1 UNK         0.0792 
    129 H129      -52.4584  -27.4496   13.1856 H         1 UNK         0.0792 
    130 H130      -51.4527  -27.0679   11.8066 H         1 UNK         0.0792 
    131 H131      -49.0080  -27.2335   12.0155 H         1 UNK         0.3086 
    132 H132      -46.1603  -29.2349   12.3496 H         1 UNK         0.0583 
    133 H133      -46.0812  -29.6476    9.9309 H         1 UNK         0.1020 
    134 H134      -47.0431  -30.8109   10.7800 H         1 UNK         0.1020 
    135 H135      -48.9389  -31.7528    9.0750 H         1 UNK         0.0694 
    136 H136      -49.4852  -31.1378   10.6209 H         1 UNK         0.0694 
    137 H137      -46.6946  -27.1826   10.4569 H         1 UNK         0.2989 
    138 H138      -45.1105  -24.7600   12.6530 H         1 UNK         0.1055 
    139 H139      -44.7133  -26.0829    9.9123 H         1 UNK         0.0806 
    140 H140      -43.6144  -26.2129   11.2791 H         1 UNK         0.0806 
    141 H141      -43.8850  -24.6541   10.5189 H         1 UNK         0.0806 
    142 H142      -46.8361  -24.8048   10.2218 H         1 UNK         0.3061 
    143 H143      -49.1211  -22.5007   11.6304 H         1 UNK         0.0734 
    144 H144      -48.6597  -21.1430    9.6103 H         1 UNK         0.0832 
    145 H145      -47.3662  -20.9355   10.7783 H         1 UNK         0.0832 
    146 H146      -47.1154  -21.9644    9.3753 H         1 UNK         0.0832 
    147 H147      -48.9947  -23.6053    9.0388 H         1 UNK         0.3156 
    148 H148      -49.9539  -26.9177    9.6906 H         1 UNK         0.0589 
    149 H149      -51.7829  -24.7347    8.5600 H         1 UNK         0.0808 
    150 H150      -51.9468  -26.4750    8.3153 H         1 UNK         0.0808 
    151 H151      -52.1872  -25.7857    9.9093 H         1 UNK         0.0808 
    152 H152      -49.8396  -25.6188    7.2109 H         1 UNK         0.3098 
    153 H153      -47.6435  -24.7471    6.2191 H         1 UNK         0.0720 
    154 H154      -45.4028  -25.1893    7.1994 H         1 UNK         0.0791 
    155 H155      -45.5471  -26.8995    6.8206 H         1 UNK         0.0791 
    156 H156      -45.4593  -25.7064    5.5236 H         1 UNK         0.0791 
    157 H157      -47.3733  -27.4600    5.2692 H         1 UNK         0.3028 
@<TRIPOS>BOND
     1    1    2 1    
     2    1   82 1    
     3    1   83 1    
     4    1   84 1    
     5    2    3 2    
     6    2    4 am   BACKBONE|DICT|INTERRES
     7    4    5 1    
     8    4   85 1    
     9    5    6 1    
    10    5   80 1    
    11    5   86 1    
    12    6    7 1    
    13    6   87 1    
    14    6   88 1    
    15    7    8 1    
    16    8    9 1    
    17    8   89 1    
    18    8   90 1    
    19    9   10 ar   
    20    9   14 ar   
    21   10   11 ar   
    22   10   91 1    
    23   11   12 ar   
    24   11   58 1    
    25   12   13 ar   
    26   12   92 1    
    27   13   14 ar   
    28   13   15 1    
    29   14   93 1    
    30   15   16 1    
    31   15   94 1    
    32   15   95 1    
    33   16   17 1    
    34   17   18 1    
    35   17   96 1    
    36   17   97 1    
    37   18   19 1    
    38   18   22 1    
    39   18   98 1    
    40   19   20 am   BACKBONE|DICT|INTERRES
    41   19   21 2    
    42   20   99 1    
    43   20  100 1    
    44   22   23 am   BACKBONE|DICT|INTERRES
    45   22  101 1    
    46   23   24 2    
    47   23   25 1    
    48   25   26 1    
    49   25   27 1    
    50   25  102 1    
    51   26  103 1    
    52   26  104 1    
    53   26  105 1    
    54   27   28 am   BACKBONE|DICT|INTERRES
    55   27  106 1    
    56   28   29 2    
    57   28   30 1    
    58   30   31 1    
    59   30   32 1    
    60   30  107 1    
    61   31  108 1    
    62   31  109 1    
    63   31  110 1    
    64   32   33 am   BACKBONE|DICT|INTERRES
    65   32  111 1    
    66   33   34 2    
    67   33   35 1    
    68   35   36 1    
    69   35   37 1    
    70   35  112 1    
    71   36  113 1    
    72   36  114 1    
    73   36  115 1    
    74   37   38 am   BACKBONE|DICT|INTERRES
    75   37  116 1    
    76   38   39 2    
    77   38   40 1    
    78   40   41 1    
    79   40   42 1    
    80   40  117 1    
    81   41  118 1    
    82   41  119 1    
    83   41  120 1    
    84   42   43 am   BACKBONE|DICT|INTERRES
    85   42  121 1    
    86   43   44 2    
    87   43   45 1    
    88   45   46 1    
    89   45   47 1    
    90   45  122 1    
    91   46  123 1    
    92   46  124 1    
    93   46  125 1    
    94   47   48 am   BACKBONE|DICT|INTERRES
    95   47  126 1    
    96   48   49 2    
    97   48   50 1    
    98   50   51 1    
    99   50   52 1    
   100   50  127 1    
   101   51  128 1    
   102   51  129 1    
   103   51  130 1    
   104   52   53 am   BACKBONE|DICT|INTERRES
   105   52  131 1    
   106   53   54 2    
   107   53   55 1    
   108   55   56 1    
   109   55   59 1    
   110   55  132 1    
   111   56   57 1    
   112   56  133 1    
   113   56  134 1    
   114   57   58 1    
   115   58  135 1    
   116   58  136 1    
   117   59   60 am   BACKBONE|DICT|INTERRES
   118   59  137 1    
   119   60   61 2    
   120   60   62 1    
   121   62   63 1    
   122   62   64 1    
   123   62  138 1    
   124   63  139 1    
   125   63  140 1    
   126   63  141 1    
   127   64   65 am   BACKBONE|DICT|INTERRES
   128   64  142 1    
   129   65   66 2    
   130   65   67 1    
   131   67   68 1    
   132   67   69 1    
   133   67  143 1    
   134   68  144 1    
   135   68  145 1    
   136   68  146 1    
   137   69   70 am   BACKBONE|DICT|INTERRES
   138   69  147 1    
   139   70   71 2    
   140   70   72 1    
   141   72   73 1    
   142   72   74 1    
   143   72  148 1    
   144   73  149 1    
   145   73  150 1    
   146   73  151 1    
   147   74   75 am   BACKBONE|DICT|INTERRES
   148   74  152 1    
   149   75   76 2    
   150   75   77 1    
   151   77   78 1    
   152   77   79 1    
   153   77  153 1    
   154   78  154 1    
   155   78  155 1    
   156   78  156 1    
   157   79   80 am   BACKBONE|DICT|INTERRES
   158   79  157 1    
   159   80   81 2    
@<TRIPOS>SUBSTRUCTURE
     1 UNK         1 GROUP             0       ****    0 ROOT    
