@<TRIPOS>MOLECULE
3R207
157   159    1
SMALL
USER_CHARGES


@<TRIPOS>ATOM
      1 CA        -47.3794  -33.0375    4.4892 C.3       0 UNK        -0.1975 
      2 C         -47.3065  -31.5683    4.8790 C.2       0 UNK         0.4852 
      3 O         -46.3531  -30.8833    4.5046 O.2       0 UNK        -0.5216 
      4 N         -48.3092  -31.0788    5.6201 N.am      1 UNK        -0.4461 
      5 CA        -48.3684  -29.7103    6.1452 C.3       1 UNK         0.0864 
      6 C6        -49.8197  -29.3163    6.5275 C.3       14 UNK        -0.0898 
      7 S7        -50.1457  -27.5431    6.2428 S.3       14 UNK        -0.2598 
      8 C8        -51.9321  -27.5402    5.8805 C.3       14 UNK         0.0286 
      9 C9        -52.7755  -27.4687    7.1473 C.ar      14 UNK        -0.0844 
     10 C10       -53.4729  -26.2981    7.4635 C.ar      14 UNK        -0.0881 
     11 C11       -54.2719  -26.2275    8.6112 C.ar      14 UNK        -0.0643 
     12 C12       -54.3555  -27.3401    9.4530 C.ar      14 UNK        -0.0930 
     13 C13       -53.6767  -28.5218    9.1393 C.ar      14 UNK        -0.0827 
     14 C14       -52.8938  -28.5821    7.9841 C.ar      14 UNK        -0.1249 
     15 C15       -53.8095  -29.7371   10.0412 C.3       14 UNK         0.0141 
     16 S16       -55.4144  -30.5597    9.7887 S.3       14 UNK        -0.2313 
     17 C17       -55.5751  -31.5257   11.3290 C.3       14 UNK        -0.0915 
     18 CA        -56.6528  -30.9445   12.2950 C.3       13 UNK         0.0968 
     19 C         -56.9138  -31.8679   13.5258 C.2       13 UNK         0.5732 
     20 N         -57.1391  -31.3397   14.7240 N.am      13 UNK        -0.7310 
     21 O         -56.9527  -33.0886   13.3879 O.2       13 UNK        -0.5035 
     22 N         -56.4368  -29.5230   12.6240 N.am      13 UNK        -0.4233 
     23 C         -55.3846  -29.0206   13.2811 C.2       13 UNK         0.4989 
     24 O         -54.4384  -29.6997   13.6834 O.2       13 UNK        -0.4996 
     25 CA        -55.3598  -27.4998   13.5291 C.3       12 UNK         0.0216 
     26 CB        -56.6649  -26.7581   13.1589 C.3       12 UNK        -0.1964 
     27 N         -54.9634  -27.2102   14.9093 N.am      12 UNK        -0.4276 
     28 C         -55.5711  -27.6166   16.0355 C.2       12 UNK         0.5020 
     29 O         -56.6483  -28.2163   16.0543 O.2       12 UNK        -0.5489 
     30 CA        -54.8401  -27.3428   17.3658 C.3       11 UNK         0.0294 
     31 CB        -54.6596  -28.6432   18.1682 C.3       11 UNK        -0.2019 
     32 N         -53.5216  -26.7355   17.1632 N.am      11 UNK        -0.4493 
     33 C         -53.2737  -25.4263   17.0583 C.2       11 UNK         0.4932 
     34 O         -54.1292  -24.5545   17.2079 O.2       11 UNK        -0.5029 
     35 CA        -51.8398  -25.0218   16.6794 C.3       10 UNK         0.0280 
     36 CB        -50.8823  -25.1361   17.8809 C.3       10 UNK        -0.1976 
     37 N         -51.3099  -25.7138   15.4951 N.am      10 UNK        -0.4242 
     38 C         -50.9779  -27.0046   15.3317 C.2       10 UNK         0.5072 
     39 O         -51.1596  -27.8761   16.1830 O.2       10 UNK        -0.5224 
     40 CA        -50.3185  -27.3840   13.9914 C.3       9 UNK         0.0343 
     41 CB        -51.3804  -27.6713   12.9173 C.3       9 UNK        -0.2003 
     42 N         -49.3943  -26.3539   13.5076 N.am      9 UNK        -0.4272 
     43 C         -48.2605  -25.9974   14.1324 C.2       9 UNK         0.4988 
     44 O         -47.8090  -26.5769   15.1206 O.2       9 UNK        -0.5108 
     45 CA        -47.5196  -24.7667   13.5864 C.3       8 UNK         0.0248 
     46 CB        -46.5596  -25.1481   12.4509 C.3       8 UNK        -0.2001 
     47 N         -48.4500  -23.7296   13.1359 N.am      8 UNK        -0.4140 
     48 C         -49.1095  -22.9076   13.9646 C.2       8 UNK         0.5028 
     49 O         -48.9243  -22.8647   15.1809 O.2       8 UNK        -0.5428 
     50 CA        -50.1749  -21.9934   13.3405 C.3       7 UNK         0.0264 
     51 CB        -49.5729  -20.6287   12.9705 C.3       7 UNK        -0.1988 
     52 N         -50.8147  -22.5875   12.1637 N.am      7 UNK        -0.4454 
     53 C         -51.7155  -23.5814   12.2215 C.2       7 UNK         0.5027 
     54 O         -52.0778  -24.1094   13.2725 O.2       7 UNK        -0.5083 
     55 CA        -52.3024  -24.0815   10.8849 C.3       6 UNK         0.0844 
     56 C56       -53.5593  -23.2449   10.5274 C.3       14 UNK        -0.0967 
     57 S57       -54.1559  -23.4388    8.8128 S.3       14 UNK        -0.2604 
     58 C58       -55.1108  -24.9868    8.9004 C.3       14 UNK         0.0134 
     59 N         -51.3172  -24.1116    9.8031 N.am      6 UNK        -0.4116 
     60 C         -50.1529  -24.7720    9.8034 C.2       5 UNK         0.5034 
     61 O         -49.7273  -25.4182   10.7634 O.2       5 UNK        -0.5045 
     62 CA        -49.2832  -24.6457    8.5380 C.3       5 UNK         0.0224 
     63 CB        -49.9915  -23.9621    7.3466 C.3       5 UNK        -0.1978 
     64 N         -48.0025  -23.9794    8.8005 N.am      5 UNK        -0.4737 
     65 C         -47.7976  -22.8265    9.4596 C.2       4 UNK         0.5027 
     66 O         -48.6993  -22.1578    9.9675 O.2       4 UNK        -0.5211 
     67 CA        -46.3389  -22.3564    9.5943 C.3       4 UNK         0.0297 
     68 CB        -46.0976  -21.5354   10.8757 C.3       4 UNK        -0.1993 
     69 N         -45.4212  -23.4980    9.5561 N.am      4 UNK        -0.4486 
     70 C         -44.3504  -23.6033    8.7620 C.2       3 UNK         0.4961 
     71 O         -43.9436  -22.7007    8.0296 O.2       3 UNK        -0.5105 
     72 CA        -43.6089  -24.9544    8.7691 C.3       3 UNK         0.0299 
     73 CB        -42.4532  -24.9165    9.7826 C.3       3 UNK        -0.1972 
     74 N         -44.4378  -26.1425    9.0292 N.am      3 UNK        -0.4305 
     75 C         -45.5278  -26.5124    8.3412 C.2       2 UNK         0.5006 
     76 O         -46.0743  -25.8158    7.4815 O.2       2 UNK        -0.5106 
     77 CA        -46.1227  -27.8824    8.6879 C.3       2 UNK         0.0296 
     78 CB        -46.9011  -27.8435   10.0164 C.3       2 UNK        -0.2002 
     79 N         -47.0101  -28.2863    7.6019 N.am      2 UNK        -0.4032 
     80 C         -47.4079  -29.5351    7.3417 C.2       1 UNK         0.5000 
     81 O         -47.0760  -30.5141    8.0179 O.2       1 UNK        -0.5238 
     82 H82       -47.3777  -33.1386    3.4043 H         1 UNK         0.0889 
     83 H83       -48.2796  -33.5174    4.8729 H         1 UNK         0.0889 
     84 H84       -46.5159  -33.5728    4.8832 H         1 UNK         0.0889 
     85 H85       -49.0431  -31.6995    5.9298 H         1 UNK         0.3028 
     86 H86       -48.0247  -29.0519    5.3436 H         1 UNK         0.0864 
     87 H87       -50.0503  -29.5680    7.5647 H         1 UNK         0.0720 
     88 H88       -50.5282  -29.8820    5.9205 H         1 UNK         0.0720 
     89 H89       -52.1452  -26.6837    5.2392 H         1 UNK         0.0814 
     90 H90       -52.2072  -28.4208    5.2987 H         1 UNK         0.0814 
     91 H91       -53.4136  -25.4433    6.8038 H         1 UNK         0.1469 
     92 H92       -54.9812  -27.3042   10.3333 H         1 UNK         0.1381 
     93 H93       -52.3838  -29.5006    7.7321 H         1 UNK         0.1206 
     94 H94       -53.0078  -30.4524    9.8516 H         1 UNK         0.0813 
     95 H95       -53.6949  -29.4231   11.0771 H         1 UNK         0.0813 
     96 H96       -54.6059  -31.6029   11.8238 H         1 UNK         0.0638 
     97 H97       -55.8403  -32.5430   11.0362 H         1 UNK         0.0638 
     98 H98       -57.5988  -30.9604   11.7530 H         1 UNK         0.0568 
     99 H99       -57.0966  -30.3410   14.8677 H         1 UNK         0.3450 
    100 H100      -57.3202  -31.9519   15.5032 H         1 UNK         0.3450 
    101 H101      -57.1796  -28.8967   12.3516 H         1 UNK         0.2987 
    102 H102      -54.5658  -27.1044   12.8942 H         1 UNK         0.0766 
    103 H103      -56.8920  -26.8540   12.0965 H         1 UNK         0.0798 
    104 H104      -56.5767  -25.6912   13.3653 H         1 UNK         0.0798 
    105 H105      -57.5234  -27.1289   13.7204 H         1 UNK         0.0798 
    106 H106      -54.0729  -26.7491   15.0209 H         1 UNK         0.3198 
    107 H107      -55.4679  -26.6647   17.9478 H         1 UNK         0.0843 
    108 H108      -55.6226  -29.1049   18.3905 H         1 UNK         0.0831 
    109 H109      -54.1652  -28.4561   19.1216 H         1 UNK         0.0831 
    110 H110      -54.0659  -29.3753   17.6190 H         1 UNK         0.0831 
    111 H111      -52.7410  -27.3678   16.9892 H         1 UNK         0.3133 
    112 H112      -51.8773  -23.9680   16.3978 H         1 UNK         0.0566 
    113 H113      -49.8872  -24.7710   17.6252 H         1 UNK         0.0814 
    114 H114      -51.2405  -24.5402   18.7213 H         1 UNK         0.0814 
    115 H115      -50.7818  -26.1634   18.2319 H         1 UNK         0.0814 
    116 H116      -51.2366  -25.1181   14.6742 H         1 UNK         0.3091 
    117 H117      -49.7425  -28.2976   14.1525 H         1 UNK         0.0702 
    118 H118      -52.0052  -26.8010   12.7199 H         1 UNK         0.0785 
    119 H119      -52.0379  -28.4830   13.2304 H         1 UNK         0.0785 
    120 H120      -50.9216  -27.9718   11.9748 H         1 UNK         0.0785 
    121 H121      -49.6418  -25.8844   12.6411 H         1 UNK         0.2998 
    122 H122      -46.9173  -24.3643   14.4042 H         1 UNK         0.0697 
    123 H123      -47.0971  -25.3795   11.5326 H         1 UNK         0.0825 
    124 H124      -45.9636  -26.0214   12.7198 H         1 UNK         0.0825 
    125 H125      -45.8590  -24.3400   12.2479 H         1 UNK         0.0825 
    126 H126      -48.6953  -23.7194   12.1550 H         1 UNK         0.3029 
    127 H127      -50.9444  -21.8266   14.0980 H         1 UNK         0.0897 
    128 H128      -50.3335  -19.9513   12.5821 H         1 UNK         0.0792 
    129 H129      -49.1286  -20.1497   13.8441 H         1 UNK         0.0792 
    130 H130      -48.7901  -20.7207   12.2179 H         1 UNK         0.0792 
    131 H131      -50.5034  -22.2529   11.2580 H         1 UNK         0.3086 
    132 H132      -52.6206  -25.1149   11.0347 H         1 UNK         0.0583 
    133 H133      -54.3730  -23.4717   11.2192 H         1 UNK         0.1020 
    134 H134      -53.3570  -22.1790   10.6552 H         1 UNK         0.1020 
    135 H135      -55.6039  -25.0594    9.8709 H         1 UNK         0.0694 
    136 H136      -55.9083  -24.9385    8.1579 H         1 UNK         0.0694 
    137 H137      -51.5757  -23.6008    8.9718 H         1 UNK         0.2989 
    138 H138      -49.0445  -25.6679    8.2429 H         1 UNK         0.1055 
    139 H139      -50.9252  -24.4675    7.0953 H         1 UNK         0.0806 
    140 H140      -49.3667  -23.9994    6.4541 H         1 UNK         0.0806 
    141 H141      -50.2153  -22.9131    7.5451 H         1 UNK         0.0806 
    142 H142      -47.1951  -24.4428    8.3937 H         1 UNK         0.3061 
    143 H143      -46.1580  -21.7042    8.7375 H         1 UNK         0.0734 
    144 H144      -46.6838  -20.6159   10.8634 H         1 UNK         0.0832 
    145 H145      -46.3769  -22.0856   11.7737 H         1 UNK         0.0832 
    146 H146      -45.0510  -21.2461   10.9701 H         1 UNK         0.0832 
    147 H147      -45.6746  -24.2990   10.1149 H         1 UNK         0.3156 
    148 H148      -43.1792  -25.0833    7.7736 H         1 UNK         0.0589 
    149 H149      -42.8175  -24.8379   10.8078 H         1 UNK         0.0808 
    150 H150      -41.8319  -25.8095    9.7129 H         1 UNK         0.0808 
    151 H151      -41.8024  -24.0594    9.6023 H         1 UNK         0.0808 
    152 H152      -44.0806  -26.7811    9.7261 H         1 UNK         0.3098 
    153 H153      -45.3043  -28.6018    8.7616 H         1 UNK         0.0720 
    154 H154      -47.3358  -28.8146   10.2534 H         1 UNK         0.0791 
    155 H155      -47.7149  -27.1187    9.9860 H         1 UNK         0.0791 
    156 H156      -46.2465  -27.5823   10.8471 H         1 UNK         0.0791 
    157 H157      -47.2913  -27.5256    6.9941 H         1 UNK         0.3028 
@<TRIPOS>BOND
     1    1    2 1    
     2    1   82 1    
     3    1   83 1    
     4    1   84 1    
     5    2    3 2    
     6    2    4 am   BACKBONE|DICT|INTERRES
     7    4    5 1    
     8    4   85 1    
     9    5    6 1    
    10    5   80 1    
    11    5   86 1    
    12    6    7 1    
    13    6   87 1    
    14    6   88 1    
    15    7    8 1    
    16    8    9 1    
    17    8   89 1    
    18    8   90 1    
    19    9   10 ar   
    20    9   14 ar   
    21   10   11 ar   
    22   10   91 1    
    23   11   12 ar   
    24   11   58 1    
    25   12   13 ar   
    26   12   92 1    
    27   13   14 ar   
    28   13   15 1    
    29   14   93 1    
    30   15   16 1    
    31   15   94 1    
    32   15   95 1    
    33   16   17 1    
    34   17   18 1    
    35   17   96 1    
    36   17   97 1    
    37   18   19 1    
    38   18   22 1    
    39   18   98 1    
    40   19   20 am   BACKBONE|DICT|INTERRES
    41   19   21 2    
    42   20   99 1    
    43   20  100 1    
    44   22   23 am   BACKBONE|DICT|INTERRES
    45   22  101 1    
    46   23   24 2    
    47   23   25 1    
    48   25   26 1    
    49   25   27 1    
    50   25  102 1    
    51   26  103 1    
    52   26  104 1    
    53   26  105 1    
    54   27   28 am   BACKBONE|DICT|INTERRES
    55   27  106 1    
    56   28   29 2    
    57   28   30 1    
    58   30   31 1    
    59   30   32 1    
    60   30  107 1    
    61   31  108 1    
    62   31  109 1    
    63   31  110 1    
    64   32   33 am   BACKBONE|DICT|INTERRES
    65   32  111 1    
    66   33   34 2    
    67   33   35 1    
    68   35   36 1    
    69   35   37 1    
    70   35  112 1    
    71   36  113 1    
    72   36  114 1    
    73   36  115 1    
    74   37   38 am   BACKBONE|DICT|INTERRES
    75   37  116 1    
    76   38   39 2    
    77   38   40 1    
    78   40   41 1    
    79   40   42 1    
    80   40  117 1    
    81   41  118 1    
    82   41  119 1    
    83   41  120 1    
    84   42   43 am   BACKBONE|DICT|INTERRES
    85   42  121 1    
    86   43   44 2    
    87   43   45 1    
    88   45   46 1    
    89   45   47 1    
    90   45  122 1    
    91   46  123 1    
    92   46  124 1    
    93   46  125 1    
    94   47   48 am   BACKBONE|DICT|INTERRES
    95   47  126 1    
    96   48   49 2    
    97   48   50 1    
    98   50   51 1    
    99   50   52 1    
   100   50  127 1    
   101   51  128 1    
   102   51  129 1    
   103   51  130 1    
   104   52   53 am   BACKBONE|DICT|INTERRES
   105   52  131 1    
   106   53   54 2    
   107   53   55 1    
   108   55   56 1    
   109   55   59 1    
   110   55  132 1    
   111   56   57 1    
   112   56  133 1    
   113   56  134 1    
   114   57   58 1    
   115   58  135 1    
   116   58  136 1    
   117   59   60 am   BACKBONE|DICT|INTERRES
   118   59  137 1    
   119   60   61 2    
   120   60   62 1    
   121   62   63 1    
   122   62   64 1    
   123   62  138 1    
   124   63  139 1    
   125   63  140 1    
   126   63  141 1    
   127   64   65 am   BACKBONE|DICT|INTERRES
   128   64  142 1    
   129   65   66 2    
   130   65   67 1    
   131   67   68 1    
   132   67   69 1    
   133   67  143 1    
   134   68  144 1    
   135   68  145 1    
   136   68  146 1    
   137   69   70 am   BACKBONE|DICT|INTERRES
   138   69  147 1    
   139   70   71 2    
   140   70   72 1    
   141   72   73 1    
   142   72   74 1    
   143   72  148 1    
   144   73  149 1    
   145   73  150 1    
   146   73  151 1    
   147   74   75 am   BACKBONE|DICT|INTERRES
   148   74  152 1    
   149   75   76 2    
   150   75   77 1    
   151   77   78 1    
   152   77   79 1    
   153   77  153 1    
   154   78  154 1    
   155   78  155 1    
   156   78  156 1    
   157   79   80 am   BACKBONE|DICT|INTERRES
   158   79  157 1    
   159   80   81 2    
@<TRIPOS>SUBSTRUCTURE
     1 UNK         1 GROUP             0       ****    0 ROOT    
