@<TRIPOS>MOLECULE
3R207
157   159    1
SMALL
USER_CHARGES


@<TRIPOS>ATOM
      1 CA        -53.3658  -26.2818    8.7908 C.3       0 UNK        -0.1975 
      2 C         -52.1364  -26.8725    8.1172 C.2       0 UNK         0.4852 
      3 O         -51.0406  -26.7797    8.6674 O.2       0 UNK        -0.5216 
      4 N         -52.3052  -27.4698    6.9274 N.am      1 UNK        -0.4461 
      5 CA        -51.2286  -28.1309    6.1755 C.3       1 UNK         0.0864 
      6 C6        -51.7503  -29.0329    5.0254 C.3       14 UNK        -0.0898 
      7 S7        -52.9997  -30.2634    5.5273 S.3       14 UNK        -0.2598 
      8 C8        -51.9637  -31.6789    6.0288 C.3       14 UNK         0.0286 
      9 C9        -51.3634  -31.4521    7.4074 C.ar      14 UNK        -0.0844 
     10 C10       -49.9998  -31.1887    7.5648 C.ar      14 UNK        -0.0881 
     11 C11       -49.4678  -30.8842    8.8234 C.ar      14 UNK        -0.0643 
     12 C12       -50.3180  -30.9002    9.9408 C.ar      14 UNK        -0.0930 
     13 C13       -51.6846  -31.1594    9.7914 C.ar      14 UNK        -0.0827 
     14 C14       -52.1954  -31.4518    8.5268 C.ar      14 UNK        -0.1249 
     15 C15       -52.6389  -31.0591   10.9699 C.3       14 UNK         0.0141 
     16 S16       -53.4756  -29.4439   10.9422 S.3       14 UNK        -0.2313 
     17 C17       -54.8912  -29.7271   12.0556 C.3       14 UNK        -0.0915 
     18 CA        -55.9414  -28.5883   11.9633 C.3       13 UNK         0.0968 
     19 C         -57.2037  -28.9033   12.8187 C.2       13 UNK         0.5732 
     20 N         -57.5882  -28.0809   13.7891 N.am      13 UNK        -0.7310 
     21 O         -57.8639  -29.9126   12.5826 O.2       13 UNK        -0.5035 
     22 N         -55.3464  -27.2749   12.2489 N.am      13 UNK        -0.4233 
     23 C         -55.7822  -26.1134   11.7467 C.2       13 UNK         0.4989 
     24 O         -56.6848  -26.0285   10.9121 O.2       13 UNK        -0.4996 
     25 CA        -55.0859  -24.8310   12.2511 C.3       12 UNK         0.0216 
     26 CB        -55.9978  -23.5895   12.1624 C.3       12 UNK        -0.1964 
     27 N         -54.5115  -24.9472   13.5987 N.am      12 UNK        -0.4276 
     28 C         -55.1478  -25.2734   14.7318 C.2       12 UNK         0.5020 
     29 O         -56.3485  -25.5492   14.7926 O.2       12 UNK        -0.5489 
     30 CA        -54.2636  -25.3541   15.9907 C.3       11 UNK         0.0294 
     31 CB        -55.0770  -25.6336   17.2719 C.3       11 UNK        -0.2019 
     32 N         -53.1737  -26.3317   15.8587 N.am      11 UNK        -0.4493 
     33 C         -53.2775  -27.6383   15.5606 C.2       11 UNK         0.4932 
     34 O         -54.3401  -28.1946   15.2851 O.2       11 UNK        -0.5029 
     35 CA        -51.9897  -28.4829   15.5747 C.3       10 UNK         0.0280 
     36 CB        -51.8660  -29.3579   14.3172 C.3       10 UNK        -0.1976 
     37 N         -50.7800  -27.6694   15.7044 N.am      10 UNK        -0.4242 
     38 C         -50.1372  -27.4525   16.8588 C.2       10 UNK         0.5072 
     39 O         -50.5136  -27.8869   17.9484 O.2       10 UNK        -0.5224 
     40 CA        -48.8546  -26.6107   16.7968 C.3       9 UNK         0.0343 
     41 CB        -47.6527  -27.5013   16.4444 C.3       9 UNK        -0.2003 
     42 N         -48.9259  -25.4759   15.8706 N.am      9 UNK        -0.4272 
     43 C         -49.7252  -24.4121   16.0454 C.2       9 UNK         0.4988 
     44 O         -50.5709  -24.3307   16.9371 O.2       9 UNK        -0.5108 
     45 CA        -49.5431  -23.2317   15.0775 C.3       8 UNK         0.0248 
     46 CB        -48.1773  -22.5559   15.2852 C.3       8 UNK        -0.2001 
     47 N         -49.6974  -23.6230   13.6777 N.am      8 UNK        -0.4140 
     48 C         -50.8559  -24.0101   13.1268 C.2       8 UNK         0.5028 
     49 O         -51.9314  -24.0177   13.7256 O.2       8 UNK        -0.5428 
     50 CA        -50.8077  -24.5257   11.6779 C.3       7 UNK         0.0264 
     51 CB        -50.8127  -23.3640   10.6740 C.3       7 UNK        -0.1988 
     52 N         -49.6670  -25.4055   11.4170 N.am      7 UNK        -0.4454 
     53 C         -49.4255  -26.5401   12.0902 C.2       7 UNK         0.5027 
     54 O         -50.1238  -26.9541   13.0161 O.2       7 UNK        -0.5083 
     55 CA        -48.1633  -27.3273   11.7057 C.3       6 UNK         0.0844 
     56 C56       -48.3816  -28.1354   10.4010 C.3       14 UNK        -0.0967 
     57 S57       -47.4139  -29.6811   10.4233 S.3       14 UNK        -0.2604 
     58 C58       -47.9802  -30.5225    8.9018 C.3       14 UNK         0.0134 
     59 N         -46.9907  -26.4498   11.6439 N.am      6 UNK        -0.4116 
     60 C         -46.4706  -25.7981   12.6951 C.2       5 UNK         0.5034 
     61 O         -46.8906  -25.8952   13.8472 O.2       5 UNK        -0.5045 
     62 CA        -45.3178  -24.8254   12.4032 C.3       5 UNK         0.0224 
     63 CB        -44.0041  -25.5858   12.1601 C.3       5 UNK        -0.1978 
     64 N         -45.6011  -23.9467   11.2668 N.am      5 UNK        -0.4737 
     65 C         -46.6078  -23.0619   11.2219 C.2       4 UNK         0.5027 
     66 O         -47.3829  -22.8543   12.1535 O.2       4 UNK        -0.5211 
     67 CA        -46.8104  -22.3118    9.8966 C.3       4 UNK         0.0297 
     68 CB        -45.9688  -21.0264    9.8725 C.3       4 UNK        -0.1993 
     69 N         -46.5097  -23.1207    8.7110 N.am      4 UNK        -0.4486 
     70 C         -47.1252  -24.2653    8.3855 C.2       3 UNK         0.4961 
     71 O         -47.9833  -24.8143    9.0812 O.2       3 UNK        -0.5105 
     72 CA        -46.6789  -24.9236    7.0722 C.3       3 UNK         0.0299 
     73 CB        -45.9228  -26.2337    7.3475 C.3       3 UNK        -0.1972 
     74 N         -47.8222  -25.1966    6.2050 N.am      3 UNK        -0.4305 
     75 C         -48.6048  -24.2747    5.6323 C.2       2 UNK         0.5006 
     76 O         -48.4044  -23.0623    5.7198 O.2       2 UNK        -0.5106 
     77 CA        -49.8113  -24.7690    4.8109 C.3       2 UNK         0.0296 
     78 CB        -49.3966  -25.0746    3.3580 C.3       2 UNK        -0.2002 
     79 N         -50.5648  -25.8895    5.3963 N.am      2 UNK        -0.4032 
     80 C         -50.1726  -27.1543    5.6188 C.2       1 UNK         0.5000 
     81 O         -49.0345  -27.5715    5.3952 O.2       1 UNK        -0.5238 
     82 H82       -54.2885  -26.5835    8.2954 H         1 UNK         0.0889 
     83 H83       -53.4145  -26.6161    9.8261 H         1 UNK         0.0889 
     84 H84       -53.3107  -25.1937    8.7871 H         1 UNK         0.0889 
     85 H85       -53.2302  -27.5477    6.5286 H         1 UNK         0.3028 
     86 H86       -50.6982  -28.7584    6.8895 H         1 UNK         0.0864 
     87 H87       -52.2013  -28.4189    4.2433 H         1 UNK         0.0720 
     88 H88       -50.9217  -29.5599    4.5478 H         1 UNK         0.0720 
     89 H89       -51.1895  -31.8610    5.2820 H         1 UNK         0.0814 
     90 H90       -52.5821  -32.5773    6.0532 H         1 UNK         0.0814 
     91 H91       -49.3563  -31.1736    6.6953 H         1 UNK         0.1469 
     92 H92       -49.9343  -30.6705   10.9244 H         1 UNK         0.1381 
     93 H93       -53.2557  -31.6286    8.4050 H         1 UNK         0.1206 
     94 H94       -52.1084  -31.1829   11.9148 H         1 UNK         0.0813 
     95 H95       -53.3756  -31.8619   10.9145 H         1 UNK         0.0813 
     96 H96       -54.5295  -29.8313   13.0777 H         1 UNK         0.0638 
     97 H97       -55.3453  -30.6832   11.7891 H         1 UNK         0.0638 
     98 H98       -56.2943  -28.5731   10.9303 H         1 UNK         0.0568 
     99 H99       -57.0550  -27.2474   14.0174 H         1 UNK         0.3450 
    100 H100      -58.4114  -28.3061   14.3233 H         1 UNK         0.3450 
    101 H101      -54.6387  -27.2628   12.9687 H         1 UNK         0.2987 
    102 H102      -54.2426  -24.6664   11.5792 H         1 UNK         0.0766 
    103 H103      -55.4781  -22.6917   12.4970 H         1 UNK         0.0798 
    104 H104      -56.8950  -23.7049   12.7716 H         1 UNK         0.0798 
    105 H105      -56.3213  -23.4099   11.1364 H         1 UNK         0.0798 
    106 H106      -53.5196  -24.7056   13.6734 H         1 UNK         0.3198 
    107 H107      -53.7919  -24.3762   16.1036 H         1 UNK         0.0843 
    108 H108      -55.5812  -26.5998   17.2287 H         1 UNK         0.0831 
    109 H109      -55.8448  -24.8731   17.4196 H         1 UNK         0.0831 
    110 H110      -54.4394  -25.6270   18.1558 H         1 UNK         0.0831 
    111 H111      -52.2462  -25.9694   16.0391 H         1 UNK         0.3133 
    112 H112      -52.0688  -29.1590   16.4282 H         1 UNK         0.0566 
    113 H113      -51.9751  -28.7700   13.4061 H         1 UNK         0.0814 
    114 H114      -50.9022  -29.8653   14.2742 H         1 UNK         0.0814 
    115 H115      -52.6333  -30.1313   14.3078 H         1 UNK         0.0814 
    116 H116      -50.4121  -27.2775   14.8382 H         1 UNK         0.3091 
    117 H117      -48.6849  -26.2034   17.7958 H         1 UNK         0.0702 
    118 H118      -47.7512  -27.9341   15.4479 H         1 UNK         0.0785 
    119 H119      -47.5565  -28.3269   17.1509 H         1 UNK         0.0785 
    120 H120      -46.7193  -26.9388   16.4747 H         1 UNK         0.0785 
    121 H121      -48.2658  -25.4855   15.0961 H         1 UNK         0.2998 
    122 H122      -50.3169  -22.4953   15.3049 H         1 UNK         0.0697 
    123 H123      -47.3514  -23.2171   15.0194 H         1 UNK         0.0825 
    124 H124      -48.0399  -22.2607   16.3262 H         1 UNK         0.0825 
    125 H125      -48.0874  -21.6549   14.6781 H         1 UNK         0.0825 
    126 H126      -48.8612  -23.5906   13.0985 H         1 UNK         0.3029 
    127 H127      -51.7080  -25.1205   11.5112 H         1 UNK         0.0897 
    128 H128      -51.6964  -22.7384   10.8062 H         1 UNK         0.0792 
    129 H129      -50.8215  -23.7297    9.6465 H         1 UNK         0.0792 
    130 H130      -49.9380  -22.7252   10.7951 H         1 UNK         0.0792 
    131 H131      -49.0585  -25.1573   10.6394 H         1 UNK         0.3086 
    132 H132      -47.9936  -28.0303   12.5249 H         1 UNK         0.0583 
    133 H133      -49.4334  -28.3970   10.2742 H         1 UNK         0.1020 
    134 H134      -48.1294  -27.5456    9.5189 H         1 UNK         0.1020 
    135 H135      -47.7205  -29.8848    8.0549 H         1 UNK         0.0694 
    136 H136      -47.4000  -31.4387    8.7859 H         1 UNK         0.0694 
    137 H137      -46.6189  -26.2591   10.7260 H         1 UNK         0.2989 
    138 H138      -45.1908  -24.1955   13.2868 H         1 UNK         0.1055 
    139 H139      -43.7725  -26.2406   13.0016 H         1 UNK         0.0806 
    140 H140      -43.1645  -24.8997   12.0466 H         1 UNK         0.0806 
    141 H141      -44.0517  -26.2089   11.2662 H         1 UNK         0.0806 
    142 H142      -45.0146  -24.0423   10.4506 H         1 UNK         0.3061 
    143 H143      -47.8629  -22.0289    9.8379 H         1 UNK         0.0734 
    144 H144      -46.1921  -20.3993   10.7371 H         1 UNK         0.0832 
    145 H145      -46.1760  -20.4315    8.9827 H         1 UNK         0.0832 
    146 H146      -44.8995  -21.2407    9.8939 H         1 UNK         0.0832 
    147 H147      -45.8198  -22.7477    8.0743 H         1 UNK         0.3156 
    148 H148      -46.0081  -24.2462    6.5396 H         1 UNK         0.0589 
    149 H149      -45.0692  -26.0648    8.0053 H         1 UNK         0.0808 
    150 H150      -46.5616  -26.9782    7.8232 H         1 UNK         0.0808 
    151 H151      -45.5386  -26.6687    6.4247 H         1 UNK         0.0808 
    152 H152      -48.0793  -26.1710    6.0626 H         1 UNK         0.3098 
    153 H153      -50.5167  -23.9370    4.7764 H         1 UNK         0.0720 
    154 H154      -50.2598  -25.3362    2.7459 H         1 UNK         0.0791 
    155 H155      -48.6832  -25.8972    3.3007 H         1 UNK         0.0791 
    156 H156      -48.9248  -24.2055    2.8974 H         1 UNK         0.0791 
    157 H157      -51.5130  -25.6661    5.6643 H         1 UNK         0.3028 
@<TRIPOS>BOND
     1    1    2 1    
     2    1   82 1    
     3    1   83 1    
     4    1   84 1    
     5    2    3 2    
     6    2    4 am   BACKBONE|DICT|INTERRES
     7    4    5 1    
     8    4   85 1    
     9    5    6 1    
    10    5   80 1    
    11    5   86 1    
    12    6    7 1    
    13    6   87 1    
    14    6   88 1    
    15    7    8 1    
    16    8    9 1    
    17    8   89 1    
    18    8   90 1    
    19    9   10 ar   
    20    9   14 ar   
    21   10   11 ar   
    22   10   91 1    
    23   11   12 ar   
    24   11   58 1    
    25   12   13 ar   
    26   12   92 1    
    27   13   14 ar   
    28   13   15 1    
    29   14   93 1    
    30   15   16 1    
    31   15   94 1    
    32   15   95 1    
    33   16   17 1    
    34   17   18 1    
    35   17   96 1    
    36   17   97 1    
    37   18   19 1    
    38   18   22 1    
    39   18   98 1    
    40   19   20 am   BACKBONE|DICT|INTERRES
    41   19   21 2    
    42   20   99 1    
    43   20  100 1    
    44   22   23 am   BACKBONE|DICT|INTERRES
    45   22  101 1    
    46   23   24 2    
    47   23   25 1    
    48   25   26 1    
    49   25   27 1    
    50   25  102 1    
    51   26  103 1    
    52   26  104 1    
    53   26  105 1    
    54   27   28 am   BACKBONE|DICT|INTERRES
    55   27  106 1    
    56   28   29 2    
    57   28   30 1    
    58   30   31 1    
    59   30   32 1    
    60   30  107 1    
    61   31  108 1    
    62   31  109 1    
    63   31  110 1    
    64   32   33 am   BACKBONE|DICT|INTERRES
    65   32  111 1    
    66   33   34 2    
    67   33   35 1    
    68   35   36 1    
    69   35   37 1    
    70   35  112 1    
    71   36  113 1    
    72   36  114 1    
    73   36  115 1    
    74   37   38 am   BACKBONE|DICT|INTERRES
    75   37  116 1    
    76   38   39 2    
    77   38   40 1    
    78   40   41 1    
    79   40   42 1    
    80   40  117 1    
    81   41  118 1    
    82   41  119 1    
    83   41  120 1    
    84   42   43 am   BACKBONE|DICT|INTERRES
    85   42  121 1    
    86   43   44 2    
    87   43   45 1    
    88   45   46 1    
    89   45   47 1    
    90   45  122 1    
    91   46  123 1    
    92   46  124 1    
    93   46  125 1    
    94   47   48 am   BACKBONE|DICT|INTERRES
    95   47  126 1    
    96   48   49 2    
    97   48   50 1    
    98   50   51 1    
    99   50   52 1    
   100   50  127 1    
   101   51  128 1    
   102   51  129 1    
   103   51  130 1    
   104   52   53 am   BACKBONE|DICT|INTERRES
   105   52  131 1    
   106   53   54 2    
   107   53   55 1    
   108   55   56 1    
   109   55   59 1    
   110   55  132 1    
   111   56   57 1    
   112   56  133 1    
   113   56  134 1    
   114   57   58 1    
   115   58  135 1    
   116   58  136 1    
   117   59   60 am   BACKBONE|DICT|INTERRES
   118   59  137 1    
   119   60   61 2    
   120   60   62 1    
   121   62   63 1    
   122   62   64 1    
   123   62  138 1    
   124   63  139 1    
   125   63  140 1    
   126   63  141 1    
   127   64   65 am   BACKBONE|DICT|INTERRES
   128   64  142 1    
   129   65   66 2    
   130   65   67 1    
   131   67   68 1    
   132   67   69 1    
   133   67  143 1    
   134   68  144 1    
   135   68  145 1    
   136   68  146 1    
   137   69   70 am   BACKBONE|DICT|INTERRES
   138   69  147 1    
   139   70   71 2    
   140   70   72 1    
   141   72   73 1    
   142   72   74 1    
   143   72  148 1    
   144   73  149 1    
   145   73  150 1    
   146   73  151 1    
   147   74   75 am   BACKBONE|DICT|INTERRES
   148   74  152 1    
   149   75   76 2    
   150   75   77 1    
   151   77   78 1    
   152   77   79 1    
   153   77  153 1    
   154   78  154 1    
   155   78  155 1    
   156   78  156 1    
   157   79   80 am   BACKBONE|DICT|INTERRES
   158   79  157 1    
   159   80   81 2    
@<TRIPOS>SUBSTRUCTURE
     1 UNK         1 GROUP             0       ****    0 ROOT    
