@<TRIPOS>MOLECULE
3R207
157   159    1
SMALL
USER_CHARGES


@<TRIPOS>ATOM
      1 CA        -50.2373  -26.5375    1.8026 C.3       0 UNK        -0.1975 
      2 C         -50.5033  -26.1868    3.2591 C.2       0 UNK         0.4852 
      3 O         -51.2071  -25.2142    3.5352 O.2       0 UNK        -0.5216 
      4 N         -49.9534  -26.9761    4.1908 N.am      1 UNK        -0.4461 
      5 CA        -50.0559  -26.7694    5.6389 C.3       1 UNK         0.0864 
      6 C6        -49.6077  -28.0212    6.4305 C.3       14 UNK        -0.0898 
      7 S7        -50.5929  -29.5001    6.0111 S.3       14 UNK        -0.2598 
      8 C8        -51.8859  -29.4749    7.3034 C.3       14 UNK         0.0286 
      9 C9        -51.4423  -29.8488    8.7207 C.ar      14 UNK        -0.0844 
     10 C10       -50.1458  -30.2825    9.0313 C.ar      14 UNK        -0.0881 
     11 C11       -49.7921  -30.5993   10.3456 C.ar      14 UNK        -0.0643 
     12 C12       -50.7472  -30.5040   11.3592 C.ar      14 UNK        -0.0930 
     13 C13       -52.0423  -30.0706   11.0680 C.ar      14 UNK        -0.0827 
     14 C14       -52.3821  -29.7464    9.7516 C.ar      14 UNK        -0.1249 
     15 C15       -53.0571  -29.8975   12.1844 C.3       14 UNK         0.0141 
     16 S16       -54.2992  -31.2233   12.1873 S.3       14 UNK        -0.2313 
     17 C17       -55.2097  -30.8334   13.7198 C.3       14 UNK        -0.0915 
     18 CA        -56.4613  -29.9479   13.4777 C.3       13 UNK         0.0968 
     19 C         -57.3743  -29.8970   14.7385 C.2       13 UNK         0.5732 
     20 N         -57.6917  -28.7376   15.3044 N.am      13 UNK        -0.7310 
     21 O         -57.8224  -30.9399   15.2095 O.2       13 UNK        -0.5035 
     22 N         -56.0924  -28.6203   12.9651 N.am      13 UNK        -0.4233 
     23 C         -56.8533  -27.8780   12.1516 C.2       13 UNK         0.4989 
     24 O         -57.9151  -28.2742   11.6667 O.2       13 UNK        -0.4996 
     25 CA        -56.3479  -26.4559   11.8209 C.3       12 UNK         0.0216 
     26 CB        -57.4899  -25.5057   11.4027 C.3       12 UNK        -0.1964 
     27 N         -55.5409  -25.8386   12.8818 N.am      12 UNK        -0.4276 
     28 C         -55.8889  -25.6397   14.1610 C.2       12 UNK         0.5020 
     29 O         -56.9674  -25.9810   14.6519 O.2       12 UNK        -0.5489 
     30 CA        -54.8203  -24.9824   15.0512 C.3       11 UNK         0.0294 
     31 CB        -55.4478  -23.9347   15.9873 C.3       11 UNK        -0.2019 
     32 N         -54.0266  -25.9186   15.8574 N.am      11 UNK        -0.4493 
     33 C         -53.5471  -27.1259   15.5198 C.2       11 UNK         0.4932 
     34 O         -53.7968  -27.7223   14.4724 O.2       11 UNK        -0.5029 
     35 CA        -52.5396  -27.7183   16.5126 C.3       10 UNK         0.0280 
     36 CB        -52.2484  -29.2096   16.2679 C.3       10 UNK        -0.1976 
     37 N         -51.3064  -26.9552   16.3526 N.am      10 UNK        -0.4242 
     38 C         -50.8576  -26.0315   17.2111 C.2       10 UNK         0.5072 
     39 O         -51.3451  -25.8298   18.3242 O.2       10 UNK        -0.5224 
     40 CA        -49.7035  -25.1419   16.7201 C.3       9 UNK         0.0343 
     41 CB        -48.3671  -25.8990   16.7675 C.3       9 UNK        -0.2003 
     42 N         -49.9312  -24.6190   15.3693 N.am      9 UNK        -0.4272 
     43 C         -50.9285  -23.7880   15.0246 C.2       9 UNK         0.4988 
     44 O         -51.7570  -23.3421   15.8182 O.2       9 UNK        -0.5108 
     45 CA        -51.0259  -23.3867   13.5459 C.3       8 UNK         0.0248 
     46 CB        -50.0624  -22.2302   13.2310 C.3       8 UNK        -0.2001 
     47 N         -50.7319  -24.5216   12.6721 N.am      8 UNK        -0.4140 
     48 C         -51.6558  -25.3373   12.1463 C.2       8 UNK         0.5028 
     49 O         -52.8703  -25.1742   12.2712 O.2       8 UNK        -0.5428 
     50 CA        -51.1542  -26.5332   11.3193 C.3       7 UNK         0.0264 
     51 CB        -51.2027  -26.1946    9.8216 C.3       7 UNK        -0.1988 
     52 N         -49.8050  -26.9896   11.6633 N.am      7 UNK        -0.4454 
     53 C         -49.4401  -27.5203   12.8402 C.2       7 UNK         0.5027 
     54 O         -50.2157  -27.7145   13.7764 O.2       7 UNK        -0.5083 
     55 CA        -47.9331  -27.7907   13.0450 C.3       6 UNK         0.0844 
     56 C56       -47.5329  -29.2510   12.7150 C.3       14 UNK        -0.0967 
     57 S57       -47.2886  -29.5970   10.9353 S.3       14 UNK        -0.2604 
     58 C58       -48.3713  -31.0337   10.6614 C.3       14 UNK         0.0134 
     59 N         -47.0746  -26.8022   12.3813 N.am      6 UNK        -0.4116 
     60 C         -47.1148  -25.4788   12.5777 C.2       5 UNK         0.5034 
     61 O         -47.8706  -24.9394   13.3867 O.2       5 UNK        -0.5045 
     62 CA        -46.2267  -24.5914   11.6936 C.3       5 UNK         0.0224 
     63 CB        -44.8749  -24.3021   12.3729 C.3       5 UNK        -0.1978 
     64 N         -46.0575  -25.0670   10.3120 N.am      5 UNK        -0.4737 
     65 C         -45.3611  -26.1194    9.8523 C.2       4 UNK         0.5027 
     66 O         -44.8041  -26.9359   10.5853 O.2       4 UNK        -0.5211 
     67 CA        -45.2846  -26.3157    8.3222 C.3       4 UNK         0.0297 
     68 CB        -46.2068  -27.4669    7.8928 C.3       4 UNK        -0.1993 
     69 N         -45.6282  -25.1163    7.5503 N.am      4 UNK        -0.4486 
     70 C         -44.9493  -23.9594    7.5830 C.2       3 UNK         0.4961 
     71 O         -43.8552  -23.8287    8.1329 O.2       3 UNK        -0.5105 
     72 CA        -45.6078  -22.7230    6.9392 C.3       3 UNK         0.0299 
     73 CB        -44.8995  -22.3633    5.6229 C.3       3 UNK        -0.1972 
     74 N         -47.0484  -22.8413    6.6854 N.am      3 UNK        -0.4305 
     75 C         -48.0147  -23.1016    7.5802 C.2       2 UNK         0.5006 
     76 O         -47.8126  -23.2874    8.7811 O.2       2 UNK        -0.5106 
     77 CA        -49.4512  -23.2026    7.0306 C.3       2 UNK         0.0296 
     78 CB        -49.6873  -22.3022    5.7976 C.3       2 UNK        -0.2002 
     79 N         -49.8941  -24.5725    6.7268 N.am      2 UNK        -0.4032 
     80 C         -49.2376  -25.5267    6.0455 C.2       1 UNK         0.5000 
     81 O         -48.0501  -25.4625    5.7157 O.2       1 UNK        -0.5238 
     82 H82       -49.7315  -25.7107    1.3045 H         1 UNK         0.0889 
     83 H83       -51.1772  -26.7249    1.2841 H         1 UNK         0.0889 
     84 H84       -49.6131  -27.4255    1.7045 H         1 UNK         0.0889 
     85 H85       -49.3784  -27.7558    3.9063 H         1 UNK         0.3028 
     86 H86       -51.1070  -26.5838    5.8715 H         1 UNK         0.0864 
     87 H87       -49.6605  -27.8438    7.5045 H         1 UNK         0.0720 
     88 H88       -48.5631  -28.2521    6.2152 H         1 UNK         0.0720 
     89 H89       -52.6714  -30.1687    7.0009 H         1 UNK         0.0814 
     90 H90       -52.3431  -28.4845    7.3191 H         1 UNK         0.0814 
     91 H91       -49.3931  -30.3686    8.2614 H         1 UNK         0.1469 
     92 H92       -50.4769  -30.7436   12.3782 H         1 UNK         0.1381 
     93 H93       -53.3849  -29.4052    9.5323 H         1 UNK         0.1206 
     94 H94       -53.5537  -28.9349   12.0667 H         1 UNK         0.0813 
     95 H95       -52.5534  -29.8666   13.1503 H         1 UNK         0.0813 
     96 H96       -54.5390  -30.3651   14.4406 H         1 UNK         0.0638 
     97 H97       -55.4980  -31.7903   14.1587 H         1 UNK         0.0638 
     98 H98       -57.0603  -30.4497   12.7156 H         1 UNK         0.0568 
     99 H99       -57.3571  -27.8524   14.9339 H         1 UNK         0.3450 
    100 H100      -58.2906  -28.7399   16.1139 H         1 UNK         0.3450 
    101 H101      -55.2562  -28.2097   13.3740 H         1 UNK         0.2987 
    102 H102      -55.6804  -26.5690   10.9654 H         1 UNK         0.0766 
    103 H103      -57.1093  -24.5171   11.1461 H         1 UNK         0.0798 
    104 H104      -58.2250  -25.3858   12.1995 H         1 UNK         0.0798 
    105 H105      -58.0174  -25.8841   10.5262 H         1 UNK         0.0798 
    106 H106      -54.5866  -25.5846   12.6157 H         1 UNK         0.3198 
    107 H107      -54.1204  -24.4517   14.4050 H         1 UNK         0.0843 
    108 H108      -56.0971  -24.3968   16.7321 H         1 UNK         0.0831 
    109 H109      -56.0524  -23.2212   15.4256 H         1 UNK         0.0831 
    110 H110      -54.6827  -23.3637   16.5139 H         1 UNK         0.0831 
    111 H111      -53.7102  -25.5467   16.7418 H         1 UNK         0.3133 
    112 H112      -52.9484  -27.6136   17.5197 H         1 UNK         0.0566 
    113 H113      -51.5542  -29.6003   17.0116 H         1 UNK         0.0814 
    114 H114      -53.1615  -29.8014   16.3339 H         1 UNK         0.0814 
    115 H115      -51.8099  -29.3821   15.2854 H         1 UNK         0.0814 
    116 H116      -50.8587  -27.0475   15.4426 H         1 UNK         0.3091 
    117 H117      -49.6316  -24.2856   17.3939 H         1 UNK         0.0702 
    118 H118      -47.5419  -25.2739   16.4251 H         1 UNK         0.0785 
    119 H119      -48.3891  -26.7954   16.1489 H         1 UNK         0.0785 
    120 H120      -48.1361  -26.2139   17.7859 H         1 UNK         0.0785 
    121 H121      -49.2489  -24.8756   14.6612 H         1 UNK         0.2998 
    122 H122      -52.0427  -23.0330   13.3611 H         1 UNK         0.0697 
    123 H123      -49.0222  -22.5012   13.4141 H         1 UNK         0.0825 
    124 H124      -50.2851  -21.3604   13.8504 H         1 UNK         0.0825 
    125 H125      -50.1478  -21.9170   12.1904 H         1 UNK         0.0825 
    126 H126      -49.7534  -24.7492   12.5474 H         1 UNK         0.3029 
    127 H127      -51.8427  -27.3548   11.5125 H         1 UNK         0.0897 
    128 H128      -52.1990  -25.8604    9.5281 H         1 UNK         0.0792 
    129 H129      -50.9679  -27.0682    9.2176 H         1 UNK         0.0792 
    130 H130      -50.4993  -25.4018    9.5636 H         1 UNK         0.0792 
    131 H131      -49.0942  -26.8859   10.9546 H         1 UNK         0.3086 
    132 H132      -47.7558  -27.6603   14.1132 H         1 UNK         0.0583 
    133 H133      -46.5869  -29.4751   13.2104 H         1 UNK         0.1020 
    134 H134      -48.2489  -29.9521   13.1473 H         1 UNK         0.1020 
    135 H135      -47.9739  -31.6137    9.8270 H         1 UNK         0.0694 
    136 H136      -48.3481  -31.6982   11.5264 H         1 UNK         0.0694 
    137 H137      -46.3981  -27.1591   11.7126 H         1 UNK         0.2989 
    138 H138      -46.7518  -23.6386   11.6025 H         1 UNK         0.1055 
    139 H139      -45.0231  -23.8335   13.3468 H         1 UNK         0.0806 
    140 H140      -44.2692  -23.6215   11.7743 H         1 UNK         0.0806 
    141 H141      -44.2952  -25.2107   12.5379 H         1 UNK         0.0806 
    142 H142      -46.5356  -24.4930    9.6207 H         1 UNK         0.3061 
    143 H143      -44.2554  -26.5863    8.0777 H         1 UNK         0.0734 
    144 H144      -46.1563  -27.6392    6.8175 H         1 UNK         0.0832 
    145 H145      -45.9217  -28.3987    8.3832 H         1 UNK         0.0832 
    146 H146      -47.2455  -27.2662    8.1564 H         1 UNK         0.0832 
    147 H147      -46.4935  -25.1456    7.0186 H         1 UNK         0.3156 
    148 H148      -45.4737  -21.8943    7.6370 H         1 UNK         0.0589 
    149 H149      -45.0263  -23.1440    4.8716 H         1 UNK         0.0808 
    150 H150      -45.2801  -21.4300    5.2074 H         1 UNK         0.0808 
    151 H151      -43.8276  -22.2316    5.7778 H         1 UNK         0.0808 
    152 H152      -47.3316  -22.7632    5.7193 H         1 UNK         0.3098 
    153 H153      -50.1013  -22.8388    7.8280 H         1 UNK         0.0720 
    154 H154      -50.7492  -22.2432    5.5582 H         1 UNK         0.0791 
    155 H155      -49.1771  -22.6748    4.9085 H         1 UNK         0.0791 
    156 H156      -49.3451  -21.2819    5.9781 H         1 UNK         0.0791 
    157 H157      -50.8565  -24.7600    6.9694 H         1 UNK         0.3028 
@<TRIPOS>BOND
     1    1    2 1    
     2    1   82 1    
     3    1   83 1    
     4    1   84 1    
     5    2    3 2    
     6    2    4 am   BACKBONE|DICT|INTERRES
     7    4    5 1    
     8    4   85 1    
     9    5    6 1    
    10    5   80 1    
    11    5   86 1    
    12    6    7 1    
    13    6   87 1    
    14    6   88 1    
    15    7    8 1    
    16    8    9 1    
    17    8   89 1    
    18    8   90 1    
    19    9   10 ar   
    20    9   14 ar   
    21   10   11 ar   
    22   10   91 1    
    23   11   12 ar   
    24   11   58 1    
    25   12   13 ar   
    26   12   92 1    
    27   13   14 ar   
    28   13   15 1    
    29   14   93 1    
    30   15   16 1    
    31   15   94 1    
    32   15   95 1    
    33   16   17 1    
    34   17   18 1    
    35   17   96 1    
    36   17   97 1    
    37   18   19 1    
    38   18   22 1    
    39   18   98 1    
    40   19   20 am   BACKBONE|DICT|INTERRES
    41   19   21 2    
    42   20   99 1    
    43   20  100 1    
    44   22   23 am   BACKBONE|DICT|INTERRES
    45   22  101 1    
    46   23   24 2    
    47   23   25 1    
    48   25   26 1    
    49   25   27 1    
    50   25  102 1    
    51   26  103 1    
    52   26  104 1    
    53   26  105 1    
    54   27   28 am   BACKBONE|DICT|INTERRES
    55   27  106 1    
    56   28   29 2    
    57   28   30 1    
    58   30   31 1    
    59   30   32 1    
    60   30  107 1    
    61   31  108 1    
    62   31  109 1    
    63   31  110 1    
    64   32   33 am   BACKBONE|DICT|INTERRES
    65   32  111 1    
    66   33   34 2    
    67   33   35 1    
    68   35   36 1    
    69   35   37 1    
    70   35  112 1    
    71   36  113 1    
    72   36  114 1    
    73   36  115 1    
    74   37   38 am   BACKBONE|DICT|INTERRES
    75   37  116 1    
    76   38   39 2    
    77   38   40 1    
    78   40   41 1    
    79   40   42 1    
    80   40  117 1    
    81   41  118 1    
    82   41  119 1    
    83   41  120 1    
    84   42   43 am   BACKBONE|DICT|INTERRES
    85   42  121 1    
    86   43   44 2    
    87   43   45 1    
    88   45   46 1    
    89   45   47 1    
    90   45  122 1    
    91   46  123 1    
    92   46  124 1    
    93   46  125 1    
    94   47   48 am   BACKBONE|DICT|INTERRES
    95   47  126 1    
    96   48   49 2    
    97   48   50 1    
    98   50   51 1    
    99   50   52 1    
   100   50  127 1    
   101   51  128 1    
   102   51  129 1    
   103   51  130 1    
   104   52   53 am   BACKBONE|DICT|INTERRES
   105   52  131 1    
   106   53   54 2    
   107   53   55 1    
   108   55   56 1    
   109   55   59 1    
   110   55  132 1    
   111   56   57 1    
   112   56  133 1    
   113   56  134 1    
   114   57   58 1    
   115   58  135 1    
   116   58  136 1    
   117   59   60 am   BACKBONE|DICT|INTERRES
   118   59  137 1    
   119   60   61 2    
   120   60   62 1    
   121   62   63 1    
   122   62   64 1    
   123   62  138 1    
   124   63  139 1    
   125   63  140 1    
   126   63  141 1    
   127   64   65 am   BACKBONE|DICT|INTERRES
   128   64  142 1    
   129   65   66 2    
   130   65   67 1    
   131   67   68 1    
   132   67   69 1    
   133   67  143 1    
   134   68  144 1    
   135   68  145 1    
   136   68  146 1    
   137   69   70 am   BACKBONE|DICT|INTERRES
   138   69  147 1    
   139   70   71 2    
   140   70   72 1    
   141   72   73 1    
   142   72   74 1    
   143   72  148 1    
   144   73  149 1    
   145   73  150 1    
   146   73  151 1    
   147   74   75 am   BACKBONE|DICT|INTERRES
   148   74  152 1    
   149   75   76 2    
   150   75   77 1    
   151   77   78 1    
   152   77   79 1    
   153   77  153 1    
   154   78  154 1    
   155   78  155 1    
   156   78  156 1    
   157   79   80 am   BACKBONE|DICT|INTERRES
   158   79  157 1    
   159   80   81 2    
@<TRIPOS>SUBSTRUCTURE
     1 UNK         1 GROUP             0       ****    0 ROOT    
