@<TRIPOS>MOLECULE
3R207
157   159    1
SMALL
USER_CHARGES


@<TRIPOS>ATOM
      1 CA        -54.5687  -27.9217    4.0776 C.3       0 UNK        -0.1975 
      2 C         -53.2118  -28.5928    4.2371 C.2       0 UNK         0.4852 
      3 O         -52.5212  -28.8113    3.2410 O.2       0 UNK        -0.5216 
      4 N         -52.8450  -28.9228    5.4833 N.am      1 UNK        -0.4461 
      5 CA        -51.5747  -29.5189    5.9167 C.3       1 UNK         0.0864 
      6 C6        -51.2697  -30.8674    5.2046 C.3       14 UNK        -0.0898 
      7 S7        -50.2396  -32.0193    6.1763 S.3       14 UNK        -0.2598 
      8 C8        -51.4703  -32.8372    7.2486 C.3       14 UNK         0.0286 
      9 C9        -51.8431  -31.9487    8.4255 C.ar      14 UNK        -0.0844 
     10 C10       -50.8998  -31.6946    9.4244 C.ar      14 UNK        -0.0881 
     11 C11       -51.1892  -30.8119   10.4669 C.ar      14 UNK        -0.0643 
     12 C12       -52.4363  -30.1840   10.5109 C.ar      14 UNK        -0.0930 
     13 C13       -53.3915  -30.4347    9.5219 C.ar      14 UNK        -0.0827 
     14 C14       -53.1001  -31.3387    8.4945 C.ar      14 UNK        -0.1249 
     15 C15       -54.7292  -29.7098    9.5547 C.3       14 UNK         0.0141 
     16 S16       -54.9191  -28.5577    8.1547 S.3       14 UNK        -0.2313 
     17 C17       -53.6652  -27.2747    8.5126 C.3       14 UNK        -0.0915 
     18 CA        -54.2533  -25.9403    9.0556 C.3       13 UNK         0.0968 
     19 C         -55.2495  -25.2371    8.0922 C.2       13 UNK         0.5732 
     20 N         -54.8573  -24.9926    6.8488 N.am      13 UNK        -0.7310 
     21 O         -56.3748  -24.9023    8.4617 O.2       13 UNK        -0.5035 
     22 N         -54.8269  -26.0761   10.3980 N.am      13 UNK        -0.4233 
     23 C         -54.1248  -26.1998   11.5271 C.2       13 UNK         0.4989 
     24 O         -52.8962  -26.2647   11.5525 O.2       13 UNK        -0.4996 
     25 CA        -54.9189  -26.1848   12.8491 C.3       12 UNK         0.0216 
     26 CB        -56.3239  -26.8221   12.7371 C.3       12 UNK        -0.1964 
     27 N         -54.1584  -26.7592   13.9674 N.am      12 UNK        -0.4276 
     28 C         -53.7936  -28.0384   14.1460 C.2       12 UNK         0.5020 
     29 O         -54.1139  -28.9556   13.3890 O.2       12 UNK        -0.5489 
     30 CA        -52.9347  -28.3582   15.3867 C.3       11 UNK         0.0294 
     31 CB        -51.7495  -29.2747   15.0331 C.3       11 UNK        -0.2019 
     32 N         -52.4069  -27.1479   16.0205 N.am      11 UNK        -0.4493 
     33 C         -52.8378  -26.6046   17.1656 C.2       11 UNK         0.4932 
     34 O         -53.7569  -27.0724   17.8394 O.2       11 UNK        -0.5029 
     35 CA        -52.1362  -25.3048   17.6118 C.3       10 UNK         0.0280 
     36 CB        -52.3725  -24.9656   19.0991 C.3       10 UNK        -0.1976 
     37 N         -50.7060  -25.2769   17.2796 N.am      10 UNK        -0.4242 
     38 C         -49.7381  -26.0835   17.7461 C.2       10 UNK         0.5072 
     39 O         -49.9261  -26.9583   18.5928 O.2       10 UNK        -0.5224 
     40 CA        -48.3160  -25.9130   17.1683 C.3       9 UNK         0.0343 
     41 CB        -47.8912  -27.1805   16.4074 C.3       9 UNK        -0.2003 
     42 N         -48.1690  -24.7591   16.2768 N.am      9 UNK        -0.4272 
     43 C         -48.0963  -23.4801   16.6715 C.2       9 UNK         0.4988 
     44 O         -48.0589  -23.1268   17.8502 O.2       9 UNK        -0.5108 
     45 CA        -48.1208  -22.4135   15.5620 C.3       8 UNK         0.0248 
     46 CB        -46.7016  -22.1147   15.0520 C.3       8 UNK        -0.2001 
     47 N         -48.9836  -22.7943   14.4385 N.am      8 UNK        -0.4140 
     48 C         -50.3194  -22.9005   14.5104 C.2       8 UNK         0.5028 
     49 O         -50.9732  -22.6408   15.5203 O.2       8 UNK        -0.5428 
     50 CA        -51.0439  -23.4474   13.2703 C.3       7 UNK         0.0264 
     51 CB        -51.3537  -22.3181   12.2765 C.3       7 UNK        -0.1988 
     52 N         -50.2898  -24.5208   12.6131 N.am      7 UNK        -0.4454 
     53 C         -50.1153  -25.7307   13.1683 C.2       7 UNK         0.5027 
     54 O         -50.5867  -26.0349   14.2644 O.2       7 UNK        -0.5083 
     55 CA        -49.2325  -26.7646   12.4427 C.3       6 UNK         0.0844 
     56 C56       -50.0538  -27.6889   11.5170 C.3       14 UNK        -0.0967 
     57 S57       -49.0704  -29.1420   11.0104 S.3       14 UNK        -0.2604 
     58 C58       -50.1372  -30.5216   11.5231 C.3       14 UNK         0.0134 
     59 N         -48.0832  -26.1744   11.7557 N.am      6 UNK        -0.4116 
     60 C         -47.0687  -25.5498   12.3670 C.2       5 UNK         0.5034 
     61 O         -47.0499  -25.2903   13.5703 O.2       5 UNK        -0.5045 
     62 CA        -45.8779  -25.1495   11.4873 C.3       5 UNK         0.0224 
     63 CB        -45.0301  -26.3824   11.1321 C.3       5 UNK        -0.1978 
     64 N         -46.3403  -24.5073   10.2582 N.am      5 UNK        -0.4737 
     65 C         -46.4154  -23.1821   10.0805 C.2       4 UNK         0.5027 
     66 O         -46.0006  -22.3561   10.8938 O.2       4 UNK        -0.5211 
     67 CA        -47.0833  -22.6864    8.7832 C.3       4 UNK         0.0297 
     68 CB        -46.0273  -22.4596    7.6896 C.3       4 UNK        -0.1993 
     69 N         -48.1284  -23.5792    8.2703 N.am      4 UNK        -0.4486 
     70 C         -49.2388  -23.9212    8.9387 C.2       3 UNK         0.4961 
     71 O         -49.5123  -23.5167   10.0659 O.2       3 UNK        -0.5105 
     72 CA        -50.1859  -24.9244    8.2641 C.3       3 UNK         0.0299 
     73 CB        -51.1909  -24.1854    7.3681 C.3       3 UNK        -0.1972 
     74 N         -49.5282  -25.9771    7.4833 N.am      3 UNK        -0.4305 
     75 C         -48.5379  -26.7881    7.8812 C.2       2 UNK         0.5006 
     76 O         -47.9288  -26.6528    8.9448 O.2       2 UNK        -0.5106 
     77 CA        -48.1921  -27.9520    6.9278 C.3       2 UNK         0.0296 
     78 CB        -47.0351  -28.8193    7.4580 C.3       2 UNK        -0.2002 
     79 N         -49.3520  -28.8154    6.6733 N.am      2 UNK        -0.4032 
     80 C         -50.4026  -28.5129    5.8971 C.2       1 UNK         0.5000 
     81 O         -50.4776  -27.4603    5.2556 O.2       1 UNK        -0.5238 
     82 H82       -54.4505  -26.9452    3.6087 H         1 UNK         0.0889 
     83 H83       -55.0704  -27.7777    5.0347 H         1 UNK         0.0889 
     84 H84       -55.2153  -28.5284    3.4443 H         1 UNK         0.0889 
     85 H85       -53.4873  -28.7230    6.2393 H         1 UNK         0.3028 
     86 H86       -51.7386  -29.7137    6.9729 H         1 UNK         0.0864 
     87 H87       -52.2007  -31.3855    4.9689 H         1 UNK         0.0720 
     88 H88       -50.7833  -30.6934    4.2431 H         1 UNK         0.0720 
     89 H89       -51.0469  -33.7693    7.6254 H         1 UNK         0.0814 
     90 H90       -52.3504  -33.1146    6.6663 H         1 UNK         0.0814 
     91 H91       -49.9249  -32.1602    9.3714 H         1 UNK         0.1469 
     92 H92       -52.6584  -29.4859   11.3059 H         1 UNK         0.1381 
     93 H93       -53.8331  -31.5227    7.7208 H         1 UNK         0.1206 
     94 H94       -55.5335  -30.4455    9.5185 H         1 UNK         0.0813 
     95 H95       -54.8560  -29.1625   10.4904 H         1 UNK         0.0813 
     96 H96       -53.1056  -27.0829    7.5973 H         1 UNK         0.0638 
     97 H97       -52.9269  -27.6683    9.2114 H         1 UNK         0.0638 
     98 H98       -53.4263  -25.2345    9.1512 H         1 UNK         0.0568 
     99 H99       -55.4998  -24.5326    6.2233 H         1 UNK         0.3450 
    100 H100      -53.9435  -25.2540    6.5208 H         1 UNK         0.3450 
    101 H101      -55.8323  -25.9758   10.4311 H         1 UNK         0.2987 
    102 H102      -55.0563  -25.1320   13.0998 H         1 UNK         0.0766 
    103 H103      -56.8124  -26.8725   13.7103 H         1 UNK         0.0798 
    104 H104      -56.2810  -27.8353   12.3355 H         1 UNK         0.0798 
    105 H105      -56.9774  -26.2391   12.0876 H         1 UNK         0.0798 
    106 H106      -53.8013  -26.0937   14.6367 H         1 UNK         0.3198 
    107 H107      -53.5804  -28.8965   16.0835 H         1 UNK         0.0843 
    108 H108      -51.0645  -28.7928   14.3361 H         1 UNK         0.0831 
    109 H109      -52.0899  -30.2040   14.5746 H         1 UNK         0.0831 
    110 H110      -51.1813  -29.5440   15.9236 H         1 UNK         0.0831 
    111 H111      -51.6597  -26.6791   15.5047 H         1 UNK         0.3133 
    112 H112      -52.5895  -24.5063   17.0228 H         1 UNK         0.0566 
    113 H113      -51.8730  -24.0378   19.3781 H         1 UNK         0.0814 
    114 H114      -53.4354  -24.8345   19.3058 H         1 UNK         0.0814 
    115 H115      -52.0100  -25.7543   19.7588 H         1 UNK         0.0814 
    116 H116      -50.4463  -24.5962   16.5768 H         1 UNK         0.3091 
    117 H117      -47.6369  -25.7798   18.0129 H         1 UNK         0.0702 
    118 H118      -46.8901  -27.0785   15.9877 H         1 UNK         0.0785 
    119 H119      -48.5769  -27.4068   15.5913 H         1 UNK         0.0785 
    120 H120      -47.8787  -28.0477   17.0689 H         1 UNK         0.0785 
    121 H121      -48.1119  -24.9587   15.2832 H         1 UNK         0.2998 
    122 H122      -48.5243  -21.4959   15.9957 H         1 UNK         0.0697 
    123 H123      -46.2337  -22.9928   14.6066 H         1 UNK         0.0825 
    124 H124      -46.0579  -21.7835   15.8680 H         1 UNK         0.0825 
    125 H125      -46.7068  -21.3228   14.3026 H         1 UNK         0.0825 
    126 H126      -48.5248  -23.0642   13.5800 H         1 UNK         0.3029 
    127 H127      -51.9965  -23.8670   13.6018 H         1 UNK         0.0897 
    128 H128      -51.8953  -22.6937   11.4079 H         1 UNK         0.0792 
    129 H129      -51.9750  -21.5510   12.7404 H         1 UNK         0.0792 
    130 H130      -50.4453  -21.8302   11.9210 H         1 UNK         0.0792 
    131 H131      -49.8939  -24.3098   11.6987 H         1 UNK         0.3086 
    132 H132      -48.8195  -27.3966   13.2314 H         1 UNK         0.0583 
    133 H133      -50.9604  -28.0239   12.0224 H         1 UNK         0.1020 
    134 H134      -50.3878  -27.1560   10.6263 H         1 UNK         0.1020 
    135 H135      -49.5153  -31.4049   11.6760 H         1 UNK         0.0694 
    136 H136      -50.6016  -30.3105   12.4862 H         1 UNK         0.0694 
    137 H137      -48.0146  -26.3669   10.7588 H         1 UNK         0.2989 
    138 H138      -45.2531  -24.4632   12.0638 H         1 UNK         0.1055 
    139 H139      -44.6794  -26.8872   12.0333 H         1 UNK         0.0806 
    140 H140      -44.1492  -26.1017   10.5546 H         1 UNK         0.0806 
    141 H141      -45.5936  -27.1114   10.5474 H         1 UNK         0.0806 
    142 H142      -46.7554  -25.1145    9.5586 H         1 UNK         0.3061 
    143 H143      -47.5552  -21.7276    9.0082 H         1 UNK         0.0734 
    144 H144      -46.4677  -22.0174    6.7958 H         1 UNK         0.0832 
    145 H145      -45.2489  -21.7778    8.0355 H         1 UNK         0.0832 
    146 H146      -45.5386  -23.3910    7.4005 H         1 UNK         0.0832 
    147 H147      -47.9831  -23.9781    7.3543 H         1 UNK         0.3156 
    148 H148      -50.7467  -25.4232    9.0563 H         1 UNK         0.0589 
    149 H149      -50.6922  -23.6532    6.5570 H         1 UNK         0.0808 
    150 H150      -51.9054  -24.8747    6.9211 H         1 UNK         0.0808 
    151 H151      -51.7592  -23.4506    7.9405 H         1 UNK         0.0808 
    152 H152      -49.9503  -26.2031    6.5856 H         1 UNK         0.3098 
    153 H153      -47.8721  -27.5109    5.9816 H         1 UNK         0.0720 
    154 H154      -46.7693  -29.6039    6.7494 H         1 UNK         0.0791 
    155 H155      -47.2894  -29.2949    8.4063 H         1 UNK         0.0791 
    156 H156      -46.1402  -28.2183    7.6254 H         1 UNK         0.0791 
    157 H157      -49.3744  -29.6894    7.1812 H         1 UNK         0.3028 
@<TRIPOS>BOND
     1    1    2 1    
     2    1   82 1    
     3    1   83 1    
     4    1   84 1    
     5    2    3 2    
     6    2    4 am   BACKBONE|DICT|INTERRES
     7    4    5 1    
     8    4   85 1    
     9    5    6 1    
    10    5   80 1    
    11    5   86 1    
    12    6    7 1    
    13    6   87 1    
    14    6   88 1    
    15    7    8 1    
    16    8    9 1    
    17    8   89 1    
    18    8   90 1    
    19    9   10 ar   
    20    9   14 ar   
    21   10   11 ar   
    22   10   91 1    
    23   11   12 ar   
    24   11   58 1    
    25   12   13 ar   
    26   12   92 1    
    27   13   14 ar   
    28   13   15 1    
    29   14   93 1    
    30   15   16 1    
    31   15   94 1    
    32   15   95 1    
    33   16   17 1    
    34   17   18 1    
    35   17   96 1    
    36   17   97 1    
    37   18   19 1    
    38   18   22 1    
    39   18   98 1    
    40   19   20 am   BACKBONE|DICT|INTERRES
    41   19   21 2    
    42   20   99 1    
    43   20  100 1    
    44   22   23 am   BACKBONE|DICT|INTERRES
    45   22  101 1    
    46   23   24 2    
    47   23   25 1    
    48   25   26 1    
    49   25   27 1    
    50   25  102 1    
    51   26  103 1    
    52   26  104 1    
    53   26  105 1    
    54   27   28 am   BACKBONE|DICT|INTERRES
    55   27  106 1    
    56   28   29 2    
    57   28   30 1    
    58   30   31 1    
    59   30   32 1    
    60   30  107 1    
    61   31  108 1    
    62   31  109 1    
    63   31  110 1    
    64   32   33 am   BACKBONE|DICT|INTERRES
    65   32  111 1    
    66   33   34 2    
    67   33   35 1    
    68   35   36 1    
    69   35   37 1    
    70   35  112 1    
    71   36  113 1    
    72   36  114 1    
    73   36  115 1    
    74   37   38 am   BACKBONE|DICT|INTERRES
    75   37  116 1    
    76   38   39 2    
    77   38   40 1    
    78   40   41 1    
    79   40   42 1    
    80   40  117 1    
    81   41  118 1    
    82   41  119 1    
    83   41  120 1    
    84   42   43 am   BACKBONE|DICT|INTERRES
    85   42  121 1    
    86   43   44 2    
    87   43   45 1    
    88   45   46 1    
    89   45   47 1    
    90   45  122 1    
    91   46  123 1    
    92   46  124 1    
    93   46  125 1    
    94   47   48 am   BACKBONE|DICT|INTERRES
    95   47  126 1    
    96   48   49 2    
    97   48   50 1    
    98   50   51 1    
    99   50   52 1    
   100   50  127 1    
   101   51  128 1    
   102   51  129 1    
   103   51  130 1    
   104   52   53 am   BACKBONE|DICT|INTERRES
   105   52  131 1    
   106   53   54 2    
   107   53   55 1    
   108   55   56 1    
   109   55   59 1    
   110   55  132 1    
   111   56   57 1    
   112   56  133 1    
   113   56  134 1    
   114   57   58 1    
   115   58  135 1    
   116   58  136 1    
   117   59   60 am   BACKBONE|DICT|INTERRES
   118   59  137 1    
   119   60   61 2    
   120   60   62 1    
   121   62   63 1    
   122   62   64 1    
   123   62  138 1    
   124   63  139 1    
   125   63  140 1    
   126   63  141 1    
   127   64   65 am   BACKBONE|DICT|INTERRES
   128   64  142 1    
   129   65   66 2    
   130   65   67 1    
   131   67   68 1    
   132   67   69 1    
   133   67  143 1    
   134   68  144 1    
   135   68  145 1    
   136   68  146 1    
   137   69   70 am   BACKBONE|DICT|INTERRES
   138   69  147 1    
   139   70   71 2    
   140   70   72 1    
   141   72   73 1    
   142   72   74 1    
   143   72  148 1    
   144   73  149 1    
   145   73  150 1    
   146   73  151 1    
   147   74   75 am   BACKBONE|DICT|INTERRES
   148   74  152 1    
   149   75   76 2    
   150   75   77 1    
   151   77   78 1    
   152   77   79 1    
   153   77  153 1    
   154   78  154 1    
   155   78  155 1    
   156   78  156 1    
   157   79   80 am   BACKBONE|DICT|INTERRES
   158   79  157 1    
   159   80   81 2    
@<TRIPOS>SUBSTRUCTURE
     1 UNK         1 GROUP             0       ****    0 ROOT    
