@<TRIPOS>MOLECULE
3R207
157   159    1
SMALL
USER_CHARGES


@<TRIPOS>ATOM
      1 CA        -51.5452  -25.8486    4.9490 C.3       0 UNK        -0.1975 
      2 C         -50.9497  -26.8017    3.9185 C.2       0 UNK         0.4852 
      3 O         -51.3667  -26.7745    2.7624 O.2       0 UNK        -0.5216 
      4 N         -49.9780  -27.6548    4.2726 N.am      1 UNK        -0.4461 
      5 CA        -49.3589  -27.8150    5.5995 C.3       1 UNK         0.0864 
      6 C6        -48.9707  -29.2912    5.8678 C.3       14 UNK        -0.0898 
      7 S7        -50.3885  -30.4307    5.6923 S.3       14 UNK        -0.2598 
      8 C8        -50.5810  -31.0964    7.3834 C.3       14 UNK         0.0286 
      9 C9        -51.2366  -30.1740    8.4151 C.ar      14 UNK        -0.0844 
     10 C10       -51.8461  -28.9539    8.0878 C.ar      14 UNK        -0.0881 
     11 C11       -52.4245  -28.1521    9.0779 C.ar      14 UNK        -0.0643 
     12 C12       -52.4445  -28.6033   10.3983 C.ar      14 UNK        -0.0930 
     13 C13       -51.8634  -29.8255   10.7394 C.ar      14 UNK        -0.0827 
     14 C14       -51.2487  -30.5946    9.7484 C.ar      14 UNK        -0.1249 
     15 C15       -51.8998  -30.3135   12.1777 C.3       14 UNK         0.0141 
     16 S16       -52.9826  -31.7673   12.3497 S.3       14 UNK        -0.2313 
     17 C17       -53.9836  -31.3442   13.8139 C.3       14 UNK        -0.0915 
     18 CA        -55.4027  -30.8582   13.4231 C.3       13 UNK         0.0968 
     19 C         -56.3343  -30.8116   14.6646 C.2       13 UNK         0.5732 
     20 N         -56.9539  -31.9303   15.0151 N.am      13 UNK        -0.7310 
     21 O         -56.4716  -29.7884   15.3322 O.2       13 UNK        -0.5035 
     22 N         -55.3553  -29.5674   12.7242 N.am      13 UNK        -0.4233 
     23 C         -56.3543  -29.0522   12.0009 C.2       13 UNK         0.4989 
     24 O         -57.3989  -29.6546   11.7451 O.2       13 UNK        -0.4996 
     25 CA        -56.1571  -27.6031   11.5144 C.3       12 UNK         0.0216 
     26 CB        -57.2369  -27.1574   10.5107 C.3       12 UNK        -0.1964 
     27 N         -56.1383  -26.6708   12.6446 N.am      12 UNK        -0.4276 
     28 C         -55.0980  -26.4816   13.4647 C.2       12 UNK         0.5020 
     29 O         -54.0002  -27.0261   13.3121 O.2       12 UNK        -0.5489 
     30 CA        -55.3426  -25.5819   14.6810 C.3       11 UNK         0.0294 
     31 CB        -56.1348  -26.3538   15.7566 C.3       11 UNK        -0.2019 
     32 N         -54.0473  -25.1594   15.2031 N.am      11 UNK        -0.4493 
     33 C         -53.8211  -24.2710   16.1784 C.2       11 UNK         0.4932 
     34 O         -54.7139  -23.6313   16.7371 O.2       11 UNK        -0.5029 
     35 CA        -52.3513  -24.0466   16.5901 C.3       10 UNK         0.0280 
     36 CB        -52.1944  -23.6054   18.0607 C.3       10 UNK        -0.1976 
     37 N         -51.4851  -25.1889   16.2782 N.am      10 UNK        -0.4242 
     38 C         -51.5166  -26.4241   16.8004 C.2       10 UNK         0.5072 
     39 O         -52.2601  -26.7716   17.7186 O.2       10 UNK        -0.5224 
     40 CA        -50.5700  -27.4632   16.1717 C.3       9 UNK         0.0343 
     41 CB        -51.3131  -28.2845   15.1109 C.3       9 UNK        -0.2003 
     42 N         -49.3779  -26.8687   15.5616 N.am      9 UNK        -0.4272 
     43 C         -48.3520  -26.3650   16.2621 C.2       9 UNK         0.4988 
     44 O         -48.2672  -26.4161   17.4898 O.2       9 UNK        -0.5108 
     45 CA        -47.2401  -25.6707   15.4604 C.3       8 UNK         0.0248 
     46 CB        -46.2821  -26.7090   14.8544 C.3       8 UNK        -0.2001 
     47 N         -47.7587  -24.7907   14.4084 N.am      8 UNK        -0.4140 
     48 C         -48.4820  -23.6823   14.6315 C.2       8 UNK         0.5028 
     49 O         -48.7643  -23.2619   15.7534 O.2       8 UNK        -0.5428 
     50 CA        -48.9999  -22.9185   13.4018 C.3       7 UNK         0.0264 
     51 CB        -47.9014  -22.0158   12.8183 C.3       7 UNK        -0.1988 
     52 N         -49.5186  -23.7979   12.3538 N.am      7 UNK        -0.4454 
     53 C         -50.5944  -24.5904   12.4720 C.2       7 UNK         0.5027 
     54 O         -51.2957  -24.6484   13.4807 O.2       7 UNK        -0.5083 
     55 CA        -50.9135  -25.4999   11.2714 C.3       6 UNK         0.0844 
     56 C56       -51.6961  -24.7290   10.1742 C.3       14 UNK        -0.0967 
     57 S57       -51.7361  -25.5326    8.5301 S.3       14 UNK        -0.2604 
     58 C58       -53.0279  -26.8025    8.7154 C.3       14 UNK         0.0134 
     59 N         -49.7012  -26.1410   10.7695 N.am      6 UNK        -0.4116 
     60 C         -48.9692  -27.0444   11.4324 C.2       5 UNK         0.5034 
     61 O         -49.2223  -27.4522   12.5674 O.2       5 UNK        -0.5045 
     62 CA        -47.7046  -27.5289   10.7081 C.3       5 UNK         0.0224 
     63 CB        -48.0600  -28.6160    9.6830 C.3       5 UNK        -0.1978 
     64 N         -46.9897  -26.4286   10.0470 N.am      5 UNK        -0.4737 
     65 C         -46.4051  -25.4260   10.7215 C.2       4 UNK         0.5027 
     66 O         -46.4031  -25.3422   11.9483 O.2       4 UNK        -0.5211 
     67 CA        -45.7362  -24.3091    9.9090 C.3       4 UNK         0.0297 
     68 CB        -44.3386  -24.7465    9.4437 C.3       4 UNK        -0.1993 
     69 N         -46.5096  -23.8553    8.7548 N.am      4 UNK        -0.4486 
     70 C         -47.7679  -23.3997    8.7490 C.2       3 UNK         0.4961 
     71 O         -48.4845  -23.3570    9.7482 O.2       3 UNK        -0.5105 
     72 CA        -48.3351  -22.9149    7.3993 C.3       3 UNK         0.0299 
     73 CB        -47.9825  -21.4358    7.1539 C.3       3 UNK        -0.1972 
     74 N         -47.9745  -23.7574    6.2477 N.am      3 UNK        -0.4305 
     75 C         -46.7644  -24.0196    5.7271 C.2       2 UNK         0.5006 
     76 O         -45.7308  -23.4550    6.0895 O.2       2 UNK        -0.5106 
     77 CA        -46.6845  -25.1424    4.6702 C.3       2 UNK         0.0296 
     78 CB        -45.3231  -25.8699    4.7012 C.3       2 UNK        -0.2002 
     79 N         -47.7802  -26.1217    4.7447 N.am      2 UNK        -0.4032 
     80 C         -48.1448  -26.8793    5.7956 C.2       1 UNK         0.5000 
     81 O         -47.5914  -26.8342    6.8967 O.2       1 UNK        -0.5238 
     82 H82       -50.7761  -25.3511    5.5367 H         1 UNK         0.0889 
     83 H83       -52.2075  -26.3913    5.6220 H         1 UNK         0.0889 
     84 H84       -52.1334  -25.0740    4.4573 H         1 UNK         0.0889 
     85 H85       -49.6352  -28.2953    3.5699 H         1 UNK         0.3028 
     86 H86       -50.0717  -27.5219    6.3693 H         1 UNK         0.0864 
     87 H87       -48.1940  -29.6144    5.1723 H         1 UNK         0.0720 
     88 H88       -48.5446  -29.4037    6.8656 H         1 UNK         0.0720 
     89 H89       -49.6024  -31.4125    7.7483 H         1 UNK         0.0814 
     90 H90       -51.1849  -32.0022    7.3146 H         1 UNK         0.0814 
     91 H91       -51.8788  -28.6149    7.0641 H         1 UNK         0.1469 
     92 H92       -52.9088  -28.0008   11.1644 H         1 UNK         0.1381 
     93 H93       -50.7963  -31.5396   10.0174 H         1 UNK         0.1206 
     94 H94       -50.8915  -30.5660   12.5088 H         1 UNK         0.0813 
     95 H95       -52.2479  -29.5110   12.8262 H         1 UNK         0.0813 
     96 H96       -54.0457  -32.2499   14.4203 H         1 UNK         0.0638 
     97 H97       -53.4698  -30.6065   14.4320 H         1 UNK         0.0638 
     98 H98       -55.8283  -31.5870   12.7299 H         1 UNK         0.0568 
     99 H99       -57.5517  -31.9234   15.8266 H         1 UNK         0.3450 
    100 H100      -56.8406  -32.7794   14.4835 H         1 UNK         0.3450 
    101 H101      -54.5832  -28.9537   12.9578 H         1 UNK         0.2987 
    102 H102      -55.1965  -27.5603   11.0011 H         1 UNK         0.0766 
    103 H103      -57.0386  -26.1532   10.1356 H         1 UNK         0.0798 
    104 H104      -58.2324  -27.1591   10.9565 H         1 UNK         0.0798 
    105 H105      -57.2647  -27.8238    9.6475 H         1 UNK         0.0798 
    106 H106      -57.0145  -26.2181   12.8640 H         1 UNK         0.3198 
    107 H107      -55.9003  -24.6988   14.3630 H         1 UNK         0.0843 
    108 H108      -57.0732  -26.7425   15.3593 H         1 UNK         0.0831 
    109 H109      -56.3889  -25.7206   16.6062 H         1 UNK         0.0831 
    110 H110      -55.5668  -27.2056   16.1339 H         1 UNK         0.0831 
    111 H111      -53.2591  -25.6051   14.7442 H         1 UNK         0.3133 
    112 H112      -51.9894  -23.2290   15.9651 H         1 UNK         0.0566 
    113 H113      -51.1457  -23.4566   18.3184 H         1 UNK         0.0814 
    114 H114      -52.7088  -22.6610   18.2423 H         1 UNK         0.0814 
    115 H115      -52.6110  -24.3386   18.7517 H         1 UNK         0.0814 
    116 H116      -50.8891  -25.0450   15.4706 H         1 UNK         0.3091 
    117 H117      -50.2521  -28.1415   16.9664 H         1 UNK         0.0702 
    118 H118      -52.2335  -28.7102   15.5127 H         1 UNK         0.0785 
    119 H119      -51.5827  -27.6699   14.2511 H         1 UNK         0.0785 
    120 H120      -50.6979  -29.1101   14.7531 H         1 UNK         0.0785 
    121 H121      -49.3448  -26.8421   14.5468 H         1 UNK         0.2998 
    122 H122      -46.6699  -25.0514   16.1560 H         1 UNK         0.0697 
    123 H123      -46.7772  -27.3254   14.1029 H         1 UNK         0.0825 
    124 H124      -45.8917  -27.3781   15.6224 H         1 UNK         0.0825 
    125 H125      -45.4266  -26.2278   14.3800 H         1 UNK         0.0825 
    126 H126      -47.5037  -25.0289   13.4520 H         1 UNK         0.3029 
    127 H127      -49.8232  -22.2818   13.7332 H         1 UNK         0.0897 
    128 H128      -48.2797  -21.4156   11.9905 H         1 UNK         0.0792 
    129 H129      -47.0558  -22.5970   12.4493 H         1 UNK         0.0792 
    130 H130      -47.5204  -21.3262   13.5728 H         1 UNK         0.0792 
    131 H131      -49.0310  -23.7767   11.4592 H         1 UNK         0.3086 
    132 H132      -51.5596  -26.2918   11.6489 H         1 UNK         0.0583 
    133 H133      -52.7182  -24.5391   10.5071 H         1 UNK         0.1020 
    134 H134      -51.2537  -23.7434   10.0138 H         1 UNK         0.1020 
    135 H135      -53.7597  -26.4844    9.4583 H         1 UNK         0.0694 
    136 H136      -53.5714  -26.8917    7.7739 H         1 UNK         0.0694 
    137 H137      -49.3947  -25.8486    9.8536 H         1 UNK         0.2989 
    138 H138      -47.0382  -27.9644   11.4561 H         1 UNK         0.1055 
    139 H139      -48.5066  -29.4809   10.1750 H         1 UNK         0.0806 
    140 H140      -47.1783  -28.9650    9.1457 H         1 UNK         0.0806 
    141 H141      -48.7821  -28.2549    8.9498 H         1 UNK         0.0806 
    142 H142      -46.9752  -26.4240    9.0326 H         1 UNK         0.3061 
    143 H143      -45.6195  -23.4494   10.5714 H         1 UNK         0.0734 
    144 H144      -43.8050  -23.9259    8.9638 H         1 UNK         0.0832 
    145 H145      -43.7312  -25.0772   10.2876 H         1 UNK         0.0832 
    146 H146      -44.3902  -25.5730    8.7335 H         1 UNK         0.0832 
    147 H147      -46.0184  -23.8158    7.8645 H         1 UNK         0.3156 
    148 H148      -49.4213  -22.9826    7.4812 H         1 UNK         0.0589 
    149 H149      -46.9064  -21.2772    7.0786 H         1 UNK         0.0808 
    150 H150      -48.4410  -21.0660    6.2368 H         1 UNK         0.0808 
    151 H151      -48.3439  -20.8109    7.9718 H         1 UNK         0.0808 
    152 H152      -48.7411  -24.2941    5.8717 H         1 UNK         0.3098 
    153 H153      -46.7766  -24.6497    3.7013 H         1 UNK         0.0720 
    154 H154      -45.2717  -26.6487    3.9405 H         1 UNK         0.0791 
    155 H155      -45.1370  -26.3350    5.6701 H         1 UNK         0.0791 
    156 H156      -44.5013  -25.1789    4.5085 H         1 UNK         0.0791 
    157 H157      -48.3116  -26.2395    3.8926 H         1 UNK         0.3028 
@<TRIPOS>BOND
     1    1    2 1    
     2    1   82 1    
     3    1   83 1    
     4    1   84 1    
     5    2    3 2    
     6    2    4 am   BACKBONE|DICT|INTERRES
     7    4    5 1    
     8    4   85 1    
     9    5    6 1    
    10    5   80 1    
    11    5   86 1    
    12    6    7 1    
    13    6   87 1    
    14    6   88 1    
    15    7    8 1    
    16    8    9 1    
    17    8   89 1    
    18    8   90 1    
    19    9   10 ar   
    20    9   14 ar   
    21   10   11 ar   
    22   10   91 1    
    23   11   12 ar   
    24   11   58 1    
    25   12   13 ar   
    26   12   92 1    
    27   13   14 ar   
    28   13   15 1    
    29   14   93 1    
    30   15   16 1    
    31   15   94 1    
    32   15   95 1    
    33   16   17 1    
    34   17   18 1    
    35   17   96 1    
    36   17   97 1    
    37   18   19 1    
    38   18   22 1    
    39   18   98 1    
    40   19   20 am   BACKBONE|DICT|INTERRES
    41   19   21 2    
    42   20   99 1    
    43   20  100 1    
    44   22   23 am   BACKBONE|DICT|INTERRES
    45   22  101 1    
    46   23   24 2    
    47   23   25 1    
    48   25   26 1    
    49   25   27 1    
    50   25  102 1    
    51   26  103 1    
    52   26  104 1    
    53   26  105 1    
    54   27   28 am   BACKBONE|DICT|INTERRES
    55   27  106 1    
    56   28   29 2    
    57   28   30 1    
    58   30   31 1    
    59   30   32 1    
    60   30  107 1    
    61   31  108 1    
    62   31  109 1    
    63   31  110 1    
    64   32   33 am   BACKBONE|DICT|INTERRES
    65   32  111 1    
    66   33   34 2    
    67   33   35 1    
    68   35   36 1    
    69   35   37 1    
    70   35  112 1    
    71   36  113 1    
    72   36  114 1    
    73   36  115 1    
    74   37   38 am   BACKBONE|DICT|INTERRES
    75   37  116 1    
    76   38   39 2    
    77   38   40 1    
    78   40   41 1    
    79   40   42 1    
    80   40  117 1    
    81   41  118 1    
    82   41  119 1    
    83   41  120 1    
    84   42   43 am   BACKBONE|DICT|INTERRES
    85   42  121 1    
    86   43   44 2    
    87   43   45 1    
    88   45   46 1    
    89   45   47 1    
    90   45  122 1    
    91   46  123 1    
    92   46  124 1    
    93   46  125 1    
    94   47   48 am   BACKBONE|DICT|INTERRES
    95   47  126 1    
    96   48   49 2    
    97   48   50 1    
    98   50   51 1    
    99   50   52 1    
   100   50  127 1    
   101   51  128 1    
   102   51  129 1    
   103   51  130 1    
   104   52   53 am   BACKBONE|DICT|INTERRES
   105   52  131 1    
   106   53   54 2    
   107   53   55 1    
   108   55   56 1    
   109   55   59 1    
   110   55  132 1    
   111   56   57 1    
   112   56  133 1    
   113   56  134 1    
   114   57   58 1    
   115   58  135 1    
   116   58  136 1    
   117   59   60 am   BACKBONE|DICT|INTERRES
   118   59  137 1    
   119   60   61 2    
   120   60   62 1    
   121   62   63 1    
   122   62   64 1    
   123   62  138 1    
   124   63  139 1    
   125   63  140 1    
   126   63  141 1    
   127   64   65 am   BACKBONE|DICT|INTERRES
   128   64  142 1    
   129   65   66 2    
   130   65   67 1    
   131   67   68 1    
   132   67   69 1    
   133   67  143 1    
   134   68  144 1    
   135   68  145 1    
   136   68  146 1    
   137   69   70 am   BACKBONE|DICT|INTERRES
   138   69  147 1    
   139   70   71 2    
   140   70   72 1    
   141   72   73 1    
   142   72   74 1    
   143   72  148 1    
   144   73  149 1    
   145   73  150 1    
   146   73  151 1    
   147   74   75 am   BACKBONE|DICT|INTERRES
   148   74  152 1    
   149   75   76 2    
   150   75   77 1    
   151   77   78 1    
   152   77   79 1    
   153   77  153 1    
   154   78  154 1    
   155   78  155 1    
   156   78  156 1    
   157   79   80 am   BACKBONE|DICT|INTERRES
   158   79  157 1    
   159   80   81 2    
@<TRIPOS>SUBSTRUCTURE
     1 UNK         1 GROUP             0       ****    0 ROOT    
