@<TRIPOS>MOLECULE
3R207
157   159    1
SMALL
USER_CHARGES


@<TRIPOS>ATOM
      1 CA        -51.0204  -21.3548   11.0214 C.3       0 UNK        -0.1975 
      2 C         -50.3565  -22.3756   10.1101 C.2       0 UNK         0.4852 
      3 O         -49.6095  -21.9945    9.2097 O.2       0 UNK        -0.5216 
      4 N         -50.5921  -23.6715   10.3618 N.am      1 UNK        -0.4461 
      5 CA        -50.0568  -24.8258    9.6206 C.3       1 UNK         0.0864 
      6 C6        -50.6137  -24.9334    8.1739 C.3       14 UNK        -0.0898 
      7 S7        -52.4354  -25.0518    8.0006 S.3       14 UNK        -0.2598 
      8 C8        -53.0402  -25.9459    9.4836 C.3       14 UNK         0.0286 
      9 C9        -52.6395  -27.4186    9.6213 C.ar      14 UNK        -0.0844 
     10 C10       -51.8800  -28.1034    8.6625 C.ar      14 UNK        -0.0881 
     11 C11       -51.5256  -29.4420    8.8527 C.ar      14 UNK        -0.0643 
     12 C12       -51.9632  -30.1153    9.9956 C.ar      14 UNK        -0.0930 
     13 C13       -52.7385  -29.4565   10.9520 C.ar      14 UNK        -0.0827 
     14 C14       -53.0623  -28.1104   10.7621 C.ar      14 UNK        -0.1249 
     15 C15       -53.2005  -30.1951   12.2004 C.3       14 UNK         0.0141 
     16 S16       -54.5500  -31.3636   11.8499 S.3       14 UNK        -0.2313 
     17 C17       -56.0015  -30.2589   11.8158 C.3       14 UNK        -0.0915 
     18 CA        -56.8802  -30.2653   13.1043 C.3       13 UNK         0.0968 
     19 C         -57.6111  -31.5983   13.4539 C.2       13 UNK         0.5732 
     20 N         -57.6807  -32.5598   12.5426 N.am      13 UNK        -0.7310 
     21 O         -58.1892  -31.7380   14.5307 O.2       13 UNK        -0.5035 
     22 N         -56.2341  -29.5842   14.2381 N.am      13 UNK        -0.4233 
     23 C         -55.4068  -30.0982   15.1629 C.2       13 UNK         0.4989 
     24 O         -55.0621  -31.2795   15.2049 O.2       13 UNK        -0.4996 
     25 CA        -54.8333  -29.1321   16.2216 C.3       12 UNK         0.0216 
     26 CB        -53.2939  -29.1135   16.1746 C.3       12 UNK        -0.1964 
     27 N         -55.3277  -27.7601   16.0715 N.am      12 UNK        -0.4276 
     28 C         -56.4619  -27.2937   16.6167 C.2       12 UNK         0.5020 
     29 O         -57.1656  -27.9467   17.3879 O.2       12 UNK        -0.5489 
     30 CA        -56.9134  -25.8735   16.2168 C.3       11 UNK         0.0294 
     31 CB        -56.4709  -24.8525   17.2773 C.3       11 UNK        -0.2019 
     32 N         -56.4228  -25.4446   14.9034 N.am      11 UNK        -0.4493 
     33 C         -56.6987  -26.0488   13.7386 C.2       11 UNK         0.4932 
     34 O         -57.4983  -26.9771   13.6299 O.2       11 UNK        -0.5029 
     35 CA        -55.9100  -25.5948   12.4955 C.3       10 UNK         0.0280 
     36 CB        -56.7850  -24.7034   11.6006 C.3       10 UNK        -0.1976 
     37 N         -54.6466  -24.9008   12.7809 N.am      10 UNK        -0.4242 
     38 C         -53.6181  -25.3896   13.4895 C.2       10 UNK         0.5072 
     39 O         -53.6180  -26.4935   14.0402 O.2       10 UNK        -0.5224 
     40 CA        -52.4153  -24.4566   13.6441 C.3       9 UNK         0.0343 
     41 CB        -52.7351  -23.2940   14.6037 C.3       9 UNK        -0.2003 
     42 N         -51.2656  -25.2047   14.1434 N.am      9 UNK        -0.4272 
     43 C         -49.9884  -24.8437   13.9771 C.2       9 UNK         0.4988 
     44 O         -49.6310  -23.8732   13.3050 O.2       9 UNK        -0.5108 
     45 CA        -48.9219  -25.7028   14.6826 C.3       8 UNK         0.0248 
     46 CB        -49.1482  -25.7202   16.2054 C.3       8 UNK        -0.2001 
     47 N         -48.7420  -27.0810   14.2010 N.am      8 UNK        -0.4140 
     48 C         -48.8659  -27.5472   12.9497 C.2       8 UNK         0.5028 
     49 O         -49.3658  -26.9248   12.0146 O.2       8 UNK        -0.5428 
     50 CA        -48.3380  -28.9724   12.7014 C.3       7 UNK         0.0264 
     51 CB        -49.3963  -30.0139   13.0885 C.3       7 UNK        -0.1988 
     52 N         -47.9742  -29.1708   11.2951 N.am      7 UNK        -0.4454 
     53 C         -46.9766  -28.5366   10.6646 C.2       7 UNK         0.5027 
     54 O         -46.1459  -27.8358   11.2509 O.2       7 UNK        -0.5083 
     55 CA        -46.8977  -28.7243    9.1317 C.3       6 UNK         0.0844 
     56 C56       -48.2883  -28.7737    8.4393 C.3       14 UNK        -0.0967 
     57 S57       -48.9840  -30.4618    8.4280 S.3       14 UNK        -0.2604 
     58 C58       -50.6739  -30.1655    7.8209 C.3       14 UNK         0.0134 
     59 N         -46.0617  -27.6746    8.5504 N.am      6 UNK        -0.4116 
     60 C         -44.7573  -27.7903    8.2674 C.2       5 UNK         0.5034 
     61 O         -44.1199  -28.8378    8.3960 O.2       5 UNK        -0.5045 
     62 CA        -44.0340  -26.5205    7.7728 C.3       5 UNK         0.0224 
     63 CB        -42.8028  -26.8316    6.8943 C.3       5 UNK        -0.1978 
     64 N         -44.9226  -25.5538    7.1153 N.am      5 UNK        -0.4737 
     65 C         -45.6185  -25.7146    5.9772 C.2       4 UNK         0.5027 
     66 O         -45.5516  -26.7224    5.2733 O.2       4 UNK        -0.5211 
     67 CA        -46.5729  -24.5762    5.5632 C.3       4 UNK         0.0297 
     68 CB        -47.9723  -25.1251    5.2317 C.3       4 UNK        -0.1993 
     69 N         -46.7024  -23.5686    6.6182 N.am      4 UNK        -0.4486 
     70 C         -46.0177  -22.4178    6.6790 C.2       3 UNK         0.4961 
     71 O         -45.2667  -22.0205    5.7881 O.2       3 UNK        -0.5105 
     72 CA        -46.1662  -21.5770    7.9617 C.3       3 UNK         0.0299 
     73 CB        -47.1372  -20.4091    7.7286 C.3       3 UNK        -0.1972 
     74 N         -46.6037  -22.3631    9.1220 N.am      3 UNK        -0.4305 
     75 C         -45.8350  -23.2729    9.7451 C.2       2 UNK         0.5006 
     76 O         -44.6688  -23.5022    9.4246 O.2       2 UNK        -0.5106 
     77 CA        -46.4687  -24.1138   10.8709 C.3       2 UNK         0.0296 
     78 CB        -46.1836  -23.4759   12.2387 C.3       2 UNK        -0.2002 
     79 N         -47.9104  -24.3237   10.7247 N.am      2 UNK        -0.4032 
     80 C         -48.5094  -24.8791    9.6593 C.2       1 UNK         0.5000 
     81 O         -47.8799  -25.3624    8.7135 O.2       1 UNK        -0.5238 
     82 H82       -51.7597  -20.7805   10.4637 H         1 UNK         0.0889 
     83 H83       -50.2748  -20.6629   11.4123 H         1 UNK         0.0889 
     84 H84       -51.5182  -21.8236   11.8695 H         1 UNK         0.0889 
     85 H85       -51.1323  -23.9100   11.1787 H         1 UNK         0.3028 
     86 H86       -50.3833  -25.7147   10.1545 H         1 UNK         0.0864 
     87 H87       -50.1950  -25.8092    7.6777 H         1 UNK         0.0720 
     88 H88       -50.2814  -24.0803    7.5801 H         1 UNK         0.0720 
     89 H89       -54.1300  -25.9015    9.4626 H         1 UNK         0.0814 
     90 H90       -52.7439  -25.4045   10.3806 H         1 UNK         0.0814 
     91 H91       -51.5548  -27.6079    7.7612 H         1 UNK         0.1469 
     92 H92       -51.6977  -31.1535   10.1416 H         1 UNK         0.1381 
     93 H93       -53.6494  -27.5995   11.5108 H         1 UNK         0.1206 
     94 H94       -53.5111  -29.4893   12.9711 H         1 UNK         0.0813 
     95 H95       -52.3707  -30.7604   12.6234 H         1 UNK         0.0813 
     96 H96       -55.6686  -29.2409   11.6094 H         1 UNK         0.0638 
     97 H97       -56.6071  -30.5340   10.9511 H         1 UNK         0.0638 
     98 H98       -57.7162  -29.6054   12.8714 H         1 UNK         0.0568 
     99 H99       -57.2006  -32.4658   11.6615 H         1 UNK         0.3450 
    100 H100      -58.1775  -33.4093   12.7596 H         1 UNK         0.3450 
    101 H101      -56.4932  -28.6095   14.3251 H         1 UNK         0.2987 
    102 H102      -55.1317  -29.5166   17.1992 H         1 UNK         0.0766 
    103 H103      -52.8821  -28.4574   16.9415 H         1 UNK         0.0798 
    104 H104      -52.9198  -28.7743   15.2088 H         1 UNK         0.0798 
    105 H105      -52.8841  -30.1092   16.3490 H         1 UNK         0.0798 
    106 H106      -54.8046  -27.1691   15.4291 H         1 UNK         0.3198 
    107 H107      -58.0048  -25.8786   16.1767 H         1 UNK         0.0843 
    108 H108      -55.3843  -24.7866   17.3471 H         1 UNK         0.0831 
    109 H109      -56.8438  -25.1299   18.2644 H         1 UNK         0.0831 
    110 H110      -56.8561  -23.8567   17.0569 H         1 UNK         0.0831 
    111 H111      -55.7618  -24.6822   14.8946 H         1 UNK         0.3133 
    112 H112      -55.6650  -26.4973   11.9330 H         1 UNK         0.0566 
    113 H113      -56.2834  -24.4660   10.6622 H         1 UNK         0.0814 
    114 H114      -57.7203  -25.2041   11.3454 H         1 UNK         0.0814 
    115 H115      -57.0427  -23.7649   12.0930 H         1 UNK         0.0814 
    116 H116      -54.5649  -23.9691   12.3992 H         1 UNK         0.3091 
    117 H117      -52.1828  -24.0591   12.6567 H         1 UNK         0.0702 
    118 H118      -53.5858  -22.7073   14.2556 H         1 UNK         0.0785 
    119 H119      -52.9729  -23.6550   15.6053 H         1 UNK         0.0785 
    120 H120      -51.8919  -22.6083   14.6907 H         1 UNK         0.0785 
    121 H121      -51.4941  -26.0647   14.6256 H         1 UNK         0.2998 
    122 H122      -47.9682  -25.2034   14.5096 H         1 UNK         0.0697 
    123 H123      -50.0189  -26.3162   16.4814 H         1 UNK         0.0825 
    124 H124      -49.3070  -24.7118   16.5912 H         1 UNK         0.0825 
    125 H125      -48.2848  -26.1295   16.7304 H         1 UNK         0.0825 
    126 H126      -48.3508  -27.7153   14.8823 H         1 UNK         0.3029 
    127 H127      -47.4440  -29.1262   13.3096 H         1 UNK         0.0897 
    128 H128      -49.0241  -31.0302   12.9576 H         1 UNK         0.0792 
    129 H129      -50.2882  -29.9004   12.4754 H         1 UNK         0.0792 
    130 H130      -49.6980  -29.9087   14.1314 H         1 UNK         0.0792 
    131 H131      -48.6246  -29.6997   10.7293 H         1 UNK         0.3086 
    132 H132      -46.4049  -29.6850    8.9689 H         1 UNK         0.0583 
    133 H133      -48.9875  -28.0691    8.8950 H         1 UNK         0.1020 
    134 H134      -48.1999  -28.4645    7.3960 H         1 UNK         0.1020 
    135 H135      -50.6301  -29.6073    6.8843 H         1 UNK         0.0694 
    136 H136      -51.1364  -31.1247    7.5841 H         1 UNK         0.0694 
    137 H137      -46.5049  -26.7648    8.4663 H         1 UNK         0.2989 
    138 H138      -43.6711  -26.0250    8.6749 H         1 UNK         0.1055 
    139 H139      -42.0661  -27.4171    7.4458 H         1 UNK         0.0806 
    140 H140      -42.3071  -25.9176    6.5676 H         1 UNK         0.0806 
    141 H141      -43.0714  -27.4046    6.0064 H         1 UNK         0.0806 
    142 H142      -45.0436  -24.6832    7.6191 H         1 UNK         0.3061 
    143 H143      -46.1638  -24.1210    4.6590 H         1 UNK         0.0734 
    144 H144      -48.6679  -24.3233    4.9839 H         1 UNK         0.0832 
    145 H145      -47.9351  -25.7968    4.3732 H         1 UNK         0.0832 
    146 H146      -48.3911  -25.6895    6.0648 H         1 UNK         0.0832 
    147 H147      -47.2663  -23.8447    7.4149 H         1 UNK         0.3156 
    148 H148      -45.1855  -21.1562    8.1938 H         1 UNK         0.0589 
    149 H149      -46.7692  -19.7500    6.9412 H         1 UNK         0.0808 
    150 H150      -48.1236  -20.7583    7.4215 H         1 UNK         0.0808 
    151 H151      -47.2588  -19.8042    8.6273 H         1 UNK         0.0808 
    152 H152      -47.5748  -22.2525    9.3989 H         1 UNK         0.3098 
    153 H153      -45.9948  -25.0970   10.8455 H         1 UNK         0.0720 
    154 H154      -45.1164  -23.2920   12.3713 H         1 UNK         0.0791 
    155 H155      -46.4990  -24.1291   13.0509 H         1 UNK         0.0791 
    156 H156      -46.6987  -22.5214   12.3549 H         1 UNK         0.0791 
    157 H157      -48.5003  -23.9981   11.4831 H         1 UNK         0.3028 
@<TRIPOS>BOND
     1    1    2 1    
     2    1   82 1    
     3    1   83 1    
     4    1   84 1    
     5    2    3 2    
     6    2    4 am   BACKBONE|DICT|INTERRES
     7    4    5 1    
     8    4   85 1    
     9    5    6 1    
    10    5   80 1    
    11    5   86 1    
    12    6    7 1    
    13    6   87 1    
    14    6   88 1    
    15    7    8 1    
    16    8    9 1    
    17    8   89 1    
    18    8   90 1    
    19    9   10 ar   
    20    9   14 ar   
    21   10   11 ar   
    22   10   91 1    
    23   11   12 ar   
    24   11   58 1    
    25   12   13 ar   
    26   12   92 1    
    27   13   14 ar   
    28   13   15 1    
    29   14   93 1    
    30   15   16 1    
    31   15   94 1    
    32   15   95 1    
    33   16   17 1    
    34   17   18 1    
    35   17   96 1    
    36   17   97 1    
    37   18   19 1    
    38   18   22 1    
    39   18   98 1    
    40   19   20 am   BACKBONE|DICT|INTERRES
    41   19   21 2    
    42   20   99 1    
    43   20  100 1    
    44   22   23 am   BACKBONE|DICT|INTERRES
    45   22  101 1    
    46   23   24 2    
    47   23   25 1    
    48   25   26 1    
    49   25   27 1    
    50   25  102 1    
    51   26  103 1    
    52   26  104 1    
    53   26  105 1    
    54   27   28 am   BACKBONE|DICT|INTERRES
    55   27  106 1    
    56   28   29 2    
    57   28   30 1    
    58   30   31 1    
    59   30   32 1    
    60   30  107 1    
    61   31  108 1    
    62   31  109 1    
    63   31  110 1    
    64   32   33 am   BACKBONE|DICT|INTERRES
    65   32  111 1    
    66   33   34 2    
    67   33   35 1    
    68   35   36 1    
    69   35   37 1    
    70   35  112 1    
    71   36  113 1    
    72   36  114 1    
    73   36  115 1    
    74   37   38 am   BACKBONE|DICT|INTERRES
    75   37  116 1    
    76   38   39 2    
    77   38   40 1    
    78   40   41 1    
    79   40   42 1    
    80   40  117 1    
    81   41  118 1    
    82   41  119 1    
    83   41  120 1    
    84   42   43 am   BACKBONE|DICT|INTERRES
    85   42  121 1    
    86   43   44 2    
    87   43   45 1    
    88   45   46 1    
    89   45   47 1    
    90   45  122 1    
    91   46  123 1    
    92   46  124 1    
    93   46  125 1    
    94   47   48 am   BACKBONE|DICT|INTERRES
    95   47  126 1    
    96   48   49 2    
    97   48   50 1    
    98   50   51 1    
    99   50   52 1    
   100   50  127 1    
   101   51  128 1    
   102   51  129 1    
   103   51  130 1    
   104   52   53 am   BACKBONE|DICT|INTERRES
   105   52  131 1    
   106   53   54 2    
   107   53   55 1    
   108   55   56 1    
   109   55   59 1    
   110   55  132 1    
   111   56   57 1    
   112   56  133 1    
   113   56  134 1    
   114   57   58 1    
   115   58  135 1    
   116   58  136 1    
   117   59   60 am   BACKBONE|DICT|INTERRES
   118   59  137 1    
   119   60   61 2    
   120   60   62 1    
   121   62   63 1    
   122   62   64 1    
   123   62  138 1    
   124   63  139 1    
   125   63  140 1    
   126   63  141 1    
   127   64   65 am   BACKBONE|DICT|INTERRES
   128   64  142 1    
   129   65   66 2    
   130   65   67 1    
   131   67   68 1    
   132   67   69 1    
   133   67  143 1    
   134   68  144 1    
   135   68  145 1    
   136   68  146 1    
   137   69   70 am   BACKBONE|DICT|INTERRES
   138   69  147 1    
   139   70   71 2    
   140   70   72 1    
   141   72   73 1    
   142   72   74 1    
   143   72  148 1    
   144   73  149 1    
   145   73  150 1    
   146   73  151 1    
   147   74   75 am   BACKBONE|DICT|INTERRES
   148   74  152 1    
   149   75   76 2    
   150   75   77 1    
   151   77   78 1    
   152   77   79 1    
   153   77  153 1    
   154   78  154 1    
   155   78  155 1    
   156   78  156 1    
   157   79   80 am   BACKBONE|DICT|INTERRES
   158   79  157 1    
   159   80   81 2    
@<TRIPOS>SUBSTRUCTURE
     1 UNK         1 GROUP             0       ****    0 ROOT    
