@<TRIPOS>MOLECULE
3R207
157   159    1
SMALL
USER_CHARGES


@<TRIPOS>ATOM
      1 CA        -46.6116  -29.9258    6.2038 C.3       0 UNK        -0.1975 
      2 C         -47.6579  -29.2700    5.3158 C.2       0 UNK         0.4852 
      3 O         -47.4358  -29.1169    4.1140 O.2       0 UNK        -0.5216 
      4 N         -48.7913  -28.8572    5.8975 N.am      1 UNK        -0.4461 
      5 CA        -49.9000  -28.1786    5.2177 C.3       1 UNK         0.0864 
      6 C6        -51.2328  -28.3792    5.9880 C.3       14 UNK        -0.0898 
      7 S7        -52.0527  -29.9631    5.5929 S.3       14 UNK        -0.2598 
      8 C8        -51.1205  -31.2076    6.5485 C.3       14 UNK         0.0286 
      9 C9        -51.0236  -30.8845    8.0334 C.ar      14 UNK        -0.0844 
     10 C10       -49.7710  -30.7314    8.6343 C.ar      14 UNK        -0.0881 
     11 C11       -49.6666  -30.4193    9.9917 C.ar      14 UNK        -0.0643 
     12 C12       -50.8278  -30.2811   10.7581 C.ar      14 UNK        -0.0930 
     13 C13       -52.0853  -30.4696   10.1771 C.ar      14 UNK        -0.0827 
     14 C14       -52.1780  -30.7649    8.8137 C.ar      14 UNK        -0.1249 
     15 C15       -53.3409  -30.3921   11.0293 C.3       14 UNK         0.0141 
     16 S16       -54.0722  -28.7305   11.0045 S.3       14 UNK        -0.2313 
     17 C17       -55.4416  -29.0009   12.1718 C.3       14 UNK        -0.0915 
     18 CA        -56.3487  -27.7583   12.3436 C.3       13 UNK         0.0968 
     19 C         -57.5783  -28.1077   13.2247 C.2       13 UNK         0.5732 
     20 N         -57.4372  -28.1322   14.5440 N.am      13 UNK        -0.7310 
     21 O         -58.6638  -28.3593   12.7067 O.2       13 UNK        -0.5035 
     22 N         -55.6053  -26.5915   12.8403 N.am      13 UNK        -0.4233 
     23 C         -56.0801  -25.3391   12.8454 C.2       13 UNK         0.4989 
     24 O         -57.1539  -25.0069   12.3389 O.2       13 UNK        -0.4996 
     25 CA        -55.1964  -24.2912   13.5447 C.3       12 UNK         0.0216 
     26 CB        -55.8362  -22.8880   13.6229 C.3       12 UNK        -0.1964 
     27 N         -54.7583  -24.7628   14.8644 N.am      12 UNK        -0.4276 
     28 C         -55.5266  -25.0196   15.9340 C.2       12 UNK         0.5020 
     29 O         -56.7379  -24.7987   15.9821 O.2       12 UNK        -0.5489 
     30 CA        -54.8153  -25.6205   17.1622 C.3       11 UNK         0.0294 
     31 CB        -55.7889  -26.3073   18.1445 C.3       11 UNK        -0.2019 
     32 N         -53.7019  -26.5152   16.8224 N.am      11 UNK        -0.4493 
     33 C         -53.7523  -27.6812   16.1595 C.2       11 UNK         0.4932 
     34 O         -54.7922  -28.1483   15.6930 O.2       11 UNK        -0.5029 
     35 CA        -52.4234  -28.4501   15.9811 C.3       10 UNK         0.0280 
     36 CB        -52.4149  -29.3104   14.7039 C.3       10 UNK        -0.1976 
     37 N         -51.2644  -27.5546   15.9553 N.am      10 UNK        -0.4242 
     38 C         -50.5637  -27.1418   17.0207 C.2       10 UNK         0.5072 
     39 O         -50.7575  -27.5513   18.1652 O.2       10 UNK        -0.5224 
     40 CA        -49.5127  -26.0382   16.7870 C.3       9 UNK         0.0343 
     41 CB        -48.1178  -26.6504   16.5867 C.3       9 UNK        -0.2003 
     42 N         -49.8332  -25.1534   15.6602 N.am      9 UNK        -0.4272 
     43 C         -50.9117  -24.3558   15.6013 C.2       9 UNK         0.4988 
     44 O         -51.7167  -24.2251   16.5234 O.2       9 UNK        -0.5108 
     45 CA        -51.1807  -23.6361   14.2693 C.3       8 UNK         0.0248 
     46 CB        -50.3322  -22.3606   14.1570 C.3       8 UNK        -0.2001 
     47 N         -50.9529  -24.4943   13.1029 N.am      8 UNK        -0.4140 
     48 C         -51.6067  -25.6378   12.8471 C.2       8 UNK         0.5028 
     49 O         -52.5300  -26.0647   13.5394 O.2       8 UNK        -0.5428 
     50 CA        -51.1105  -26.4758   11.6605 C.3       7 UNK         0.0264 
     51 CB        -51.6436  -25.9329   10.3259 C.3       7 UNK        -0.1988 
     52 N         -49.6507  -26.5523   11.6281 N.am      7 UNK        -0.4454 
     53 C         -48.9104  -27.2165   12.5292 C.2       7 UNK         0.5027 
     54 O         -49.3896  -27.8919   13.4404 O.2       7 UNK        -0.5083 
     55 CA        -47.3771  -27.0616   12.4244 C.3       6 UNK         0.0844 
     56 C56       -46.6650  -28.1878   11.6215 C.3       14 UNK        -0.0967 
     57 S57       -47.4786  -28.7308   10.0754 S.3       14 UNK        -0.2604 
     58 C58       -48.2985  -30.2582   10.6334 C.3       14 UNK         0.0134 
     59 N         -47.0083  -25.7151   11.9735 N.am      6 UNK        -0.4116 
     60 C         -47.0865  -24.6293   12.7610 C.2       5 UNK         0.5034 
     61 O         -47.4639  -24.6653   13.9324 O.2       5 UNK        -0.5045 
     62 CA        -46.7204  -23.2663   12.1452 C.3       5 UNK         0.0224 
     63 CB        -45.2069  -23.0204   12.2450 C.3       5 UNK        -0.1978 
     64 N         -47.1473  -23.1191   10.7532 N.am      5 UNK        -0.4737 
     65 C         -48.4165  -23.1916   10.3314 C.2       4 UNK         0.5027 
     66 O         -49.3774  -23.3068   11.0897 O.2       4 UNK        -0.5211 
     67 CA        -48.6598  -23.1868    8.8120 C.3       4 UNK         0.0297 
     68 CB        -49.0546  -21.7793    8.3400 C.3       4 UNK        -0.1993 
     69 N         -47.5445  -23.6767    7.9914 N.am      4 UNK        -0.4486 
     70 C         -46.9153  -24.8525    8.1229 C.2       3 UNK         0.4961 
     71 O         -47.1238  -25.6388    9.0466 O.2       3 UNK        -0.5105 
     72 CA        -45.9013  -25.2073    7.0196 C.3       3 UNK         0.0299 
     73 CB        -45.0312  -26.4216    7.3952 C.3       3 UNK        -0.1972 
     74 N         -46.5970  -25.4926    5.7650 N.am      3 UNK        -0.4305 
     75 C         -47.1604  -24.5827    4.9570 C.2       2 UNK         0.5006 
     76 O         -47.0420  -23.3661    5.1131 O.2       2 UNK        -0.5106 
     77 CA        -48.0309  -25.1163    3.8046 C.3       2 UNK         0.0296 
     78 CB        -47.2181  -25.1845    2.5019 C.3       2 UNK        -0.2002 
     79 N         -48.6111  -26.4341    4.0844 N.am      2 UNK        -0.4032 
     80 C         -49.5376  -26.6912    5.0201 C.2       1 UNK         0.5000 
     81 O         -50.0510  -25.8236    5.7295 O.2       1 UNK        -0.5238 
     82 H82       -46.8083  -29.7537    7.2614 H         1 UNK         0.0889 
     83 H83       -45.6230  -29.5261    5.9790 H         1 UNK         0.0889 
     84 H84       -46.5917  -31.0009    6.0282 H         1 UNK         0.0889 
     85 H85       -48.9037  -28.9587    6.8962 H         1 UNK         0.3028 
     86 H86       -50.0212  -28.6044    4.2187 H         1 UNK         0.0864 
     87 H87       -51.9553  -27.6079    5.7137 H         1 UNK         0.0720 
     88 H88       -51.0946  -28.2779    7.0660 H         1 UNK         0.0720 
     89 H89       -50.1303  -31.3219    6.1059 H         1 UNK         0.0814 
     90 H90       -51.6130  -32.1739    6.4327 H         1 UNK         0.0814 
     91 H91       -48.8705  -30.8580    8.0512 H         1 UNK         0.1469 
     92 H92       -50.7531  -30.0443   11.8111 H         1 UNK         0.1381 
     93 H93       -53.1492  -30.9025    8.3580 H         1 UNK         0.1206 
     94 H94       -54.0761  -31.1149   10.6722 H         1 UNK         0.0813 
     95 H95       -53.1113  -30.6720   12.0584 H         1 UNK         0.0813 
     96 H96       -56.0267  -29.8477   11.8076 H         1 UNK         0.0638 
     97 H97       -55.0249  -29.3045   13.1335 H         1 UNK         0.0638 
     98 H98       -56.7327  -27.4976   11.3553 H         1 UNK         0.0568 
     99 H99       -56.5217  -27.9947   14.9647 H         1 UNK         0.3450 
    100 H100      -58.2305  -28.3513   15.1235 H         1 UNK         0.3450 
    101 H101      -54.7069  -26.7760   13.2681 H         1 UNK         0.2987 
    102 H102      -54.2994  -24.1956   12.9326 H         1 UNK         0.0766 
    103 H103      -56.7842  -22.8988   14.1613 H         1 UNK         0.0798 
    104 H104      -55.1751  -22.1786   14.1204 H         1 UNK         0.0798 
    105 H105      -56.0378  -22.4982   12.6245 H         1 UNK         0.0798 
    106 H106      -53.7916  -25.0692   14.9020 H         1 UNK         0.3198 
    107 H107      -54.3673  -24.7741   17.6852 H         1 UNK         0.0843 
    108 H108      -56.3313  -27.1260   17.6707 H         1 UNK         0.0831 
    109 H109      -56.5315  -25.6008   18.5175 H         1 UNK         0.0831 
    110 H110      -55.2630  -26.7087   19.0106 H         1 UNK         0.0831 
    111 H111      -52.7901  -26.1823   17.1092 H         1 UNK         0.3133 
    112 H112      -52.3335  -29.1259   16.8336 H         1 UNK         0.0566 
    113 H113      -51.4681  -29.8378   14.5869 H         1 UNK         0.0814 
    114 H114      -53.2031  -30.0634   14.7318 H         1 UNK         0.0814 
    115 H115      -52.5703  -28.7063   13.8102 H         1 UNK         0.0814 
    116 H116      -51.0362  -27.1617   15.0502 H         1 UNK         0.3091 
    117 H117      -49.4840  -25.4211   17.6874 H         1 UNK         0.0702 
    118 H118      -47.3559  -25.8779   16.4811 H         1 UNK         0.0785 
    119 H119      -48.0782  -27.2844   15.7013 H         1 UNK         0.0785 
    120 H120      -47.8371  -27.2677   17.4412 H         1 UNK         0.0785 
    121 H121      -49.1784  -25.1487   14.8844 H         1 UNK         0.2998 
    122 H122      -52.2314  -23.3410   14.2575 H         1 UNK         0.0697 
    123 H123      -49.2653  -22.5832   14.1559 H         1 UNK         0.0825 
    124 H124      -50.5246  -21.6892   14.9949 H         1 UNK         0.0825 
    125 H125      -50.5598  -21.8121   13.2427 H         1 UNK         0.0825 
    126 H126      -50.2546  -24.1746   12.4330 H         1 UNK         0.3029 
    127 H127      -51.4936  -27.4895   11.7904 H         1 UNK         0.0897 
    128 H128      -51.2935  -24.9208   10.1246 H         1 UNK         0.0792 
    129 H129      -52.7341  -25.9056   10.3291 H         1 UNK         0.0792 
    130 H130      -51.3399  -26.5680    9.4931 H         1 UNK         0.0792 
    131 H131      -49.1741  -26.0324   10.9045 H         1 UNK         0.3086 
    132 H132      -47.0005  -27.1533   13.4457 H         1 UNK         0.0583 
    133 H133      -45.6496  -27.8758   11.3718 H         1 UNK         0.1020 
    134 H134      -46.5305  -29.0563   12.2681 H         1 UNK         0.1020 
    135 H135      -47.6695  -31.1142   10.3852 H         1 UNK         0.0694 
    136 H136      -48.4015  -30.2579   11.7195 H         1 UNK         0.0694 
    137 H137      -46.7852  -25.6108   10.9872 H         1 UNK         0.2989 
    138 H138      -47.2313  -22.4977   12.7289 H         1 UNK         0.1055 
    139 H139      -44.8658  -23.1045   13.2780 H         1 UNK         0.0806 
    140 H140      -44.9433  -22.0203   11.9002 H         1 UNK         0.0806 
    141 H141      -44.6393  -23.7408   11.6546 H         1 UNK         0.0806 
    142 H142      -46.4226  -23.0326   10.0557 H         1 UNK         0.3061 
    143 H143      -49.5020  -23.8561    8.6252 H         1 UNK         0.0734 
    144 H144      -48.2352  -21.0695    8.4597 H         1 UNK         0.0832 
    145 H145      -49.3493  -21.7802    7.2903 H         1 UNK         0.0832 
    146 H146      -49.9025  -21.3988    8.9118 H         1 UNK         0.0832 
    147 H147      -47.3302  -23.1411    7.1564 H         1 UNK         0.3156 
    148 H148      -45.2417  -24.3490    6.8758 H         1 UNK         0.0589 
    149 H149      -45.6323  -27.3168    7.5600 H         1 UNK         0.0808 
    150 H150      -44.3009  -26.6448    6.6173 H         1 UNK         0.0808 
    151 H151      -44.4767  -26.2321    8.3152 H         1 UNK         0.0808 
    152 H152      -46.7655  -26.4655    5.5602 H         1 UNK         0.3098 
    153 H153      -48.8522  -24.4108    3.6616 H         1 UNK         0.0720 
    154 H154      -47.8426  -25.4837    1.6598 H         1 UNK         0.0791 
    155 H155      -46.3924  -25.8934    2.5769 H         1 UNK         0.0791 
    156 H156      -46.7913  -24.2108    2.2567 H         1 UNK         0.0791 
    157 H157      -48.2039  -27.2285    3.6018 H         1 UNK         0.3028 
@<TRIPOS>BOND
     1    1    2 1    
     2    1   82 1    
     3    1   83 1    
     4    1   84 1    
     5    2    3 2    
     6    2    4 am   BACKBONE|DICT|INTERRES
     7    4    5 1    
     8    4   85 1    
     9    5    6 1    
    10    5   80 1    
    11    5   86 1    
    12    6    7 1    
    13    6   87 1    
    14    6   88 1    
    15    7    8 1    
    16    8    9 1    
    17    8   89 1    
    18    8   90 1    
    19    9   10 ar   
    20    9   14 ar   
    21   10   11 ar   
    22   10   91 1    
    23   11   12 ar   
    24   11   58 1    
    25   12   13 ar   
    26   12   92 1    
    27   13   14 ar   
    28   13   15 1    
    29   14   93 1    
    30   15   16 1    
    31   15   94 1    
    32   15   95 1    
    33   16   17 1    
    34   17   18 1    
    35   17   96 1    
    36   17   97 1    
    37   18   19 1    
    38   18   22 1    
    39   18   98 1    
    40   19   20 am   BACKBONE|DICT|INTERRES
    41   19   21 2    
    42   20   99 1    
    43   20  100 1    
    44   22   23 am   BACKBONE|DICT|INTERRES
    45   22  101 1    
    46   23   24 2    
    47   23   25 1    
    48   25   26 1    
    49   25   27 1    
    50   25  102 1    
    51   26  103 1    
    52   26  104 1    
    53   26  105 1    
    54   27   28 am   BACKBONE|DICT|INTERRES
    55   27  106 1    
    56   28   29 2    
    57   28   30 1    
    58   30   31 1    
    59   30   32 1    
    60   30  107 1    
    61   31  108 1    
    62   31  109 1    
    63   31  110 1    
    64   32   33 am   BACKBONE|DICT|INTERRES
    65   32  111 1    
    66   33   34 2    
    67   33   35 1    
    68   35   36 1    
    69   35   37 1    
    70   35  112 1    
    71   36  113 1    
    72   36  114 1    
    73   36  115 1    
    74   37   38 am   BACKBONE|DICT|INTERRES
    75   37  116 1    
    76   38   39 2    
    77   38   40 1    
    78   40   41 1    
    79   40   42 1    
    80   40  117 1    
    81   41  118 1    
    82   41  119 1    
    83   41  120 1    
    84   42   43 am   BACKBONE|DICT|INTERRES
    85   42  121 1    
    86   43   44 2    
    87   43   45 1    
    88   45   46 1    
    89   45   47 1    
    90   45  122 1    
    91   46  123 1    
    92   46  124 1    
    93   46  125 1    
    94   47   48 am   BACKBONE|DICT|INTERRES
    95   47  126 1    
    96   48   49 2    
    97   48   50 1    
    98   50   51 1    
    99   50   52 1    
   100   50  127 1    
   101   51  128 1    
   102   51  129 1    
   103   51  130 1    
   104   52   53 am   BACKBONE|DICT|INTERRES
   105   52  131 1    
   106   53   54 2    
   107   53   55 1    
   108   55   56 1    
   109   55   59 1    
   110   55  132 1    
   111   56   57 1    
   112   56  133 1    
   113   56  134 1    
   114   57   58 1    
   115   58  135 1    
   116   58  136 1    
   117   59   60 am   BACKBONE|DICT|INTERRES
   118   59  137 1    
   119   60   61 2    
   120   60   62 1    
   121   62   63 1    
   122   62   64 1    
   123   62  138 1    
   124   63  139 1    
   125   63  140 1    
   126   63  141 1    
   127   64   65 am   BACKBONE|DICT|INTERRES
   128   64  142 1    
   129   65   66 2    
   130   65   67 1    
   131   67   68 1    
   132   67   69 1    
   133   67  143 1    
   134   68  144 1    
   135   68  145 1    
   136   68  146 1    
   137   69   70 am   BACKBONE|DICT|INTERRES
   138   69  147 1    
   139   70   71 2    
   140   70   72 1    
   141   72   73 1    
   142   72   74 1    
   143   72  148 1    
   144   73  149 1    
   145   73  150 1    
   146   73  151 1    
   147   74   75 am   BACKBONE|DICT|INTERRES
   148   74  152 1    
   149   75   76 2    
   150   75   77 1    
   151   77   78 1    
   152   77   79 1    
   153   77  153 1    
   154   78  154 1    
   155   78  155 1    
   156   78  156 1    
   157   79   80 am   BACKBONE|DICT|INTERRES
   158   79  157 1    
   159   80   81 2    
@<TRIPOS>SUBSTRUCTURE
     1 UNK         1 GROUP             0       ****    0 ROOT    
