@<TRIPOS>MOLECULE
3R207
157   159    1
SMALL
USER_CHARGES


@<TRIPOS>ATOM
      1 CA        -48.3502  -31.4119    3.5430 C.3       0 UNK        -0.1975 
      2 C         -49.1148  -30.4805    4.4723 C.2       0 UNK         0.4852 
      3 O         -50.2021  -30.0251    4.1170 O.2       0 UNK        -0.5216 
      4 N         -48.5548  -30.2059    5.6582 N.am      1 UNK        -0.4461 
      5 CA        -49.1158  -29.3233    6.6871 C.3       1 UNK         0.0864 
      6 C6        -48.2995  -29.3997    8.0021 C.3       14 UNK        -0.0898 
      7 S7        -48.5585  -30.9649    8.8961 S.3       14 UNK        -0.2598 
      8 C8        -49.4724  -30.3924   10.3651 C.3       14 UNK         0.0286 
      9 C9        -50.9250  -30.0709   10.0430 C.ar      14 UNK        -0.0844 
     10 C10       -51.2902  -28.7933    9.6101 C.ar      14 UNK        -0.0881 
     11 C11       -52.6268  -28.4839    9.3517 C.ar      14 UNK        -0.0643 
     12 C12       -53.6007  -29.4730    9.5158 C.ar      14 UNK        -0.0930 
     13 C13       -53.2549  -30.7640    9.9385 C.ar      14 UNK        -0.0827 
     14 C14       -51.9112  -31.0490   10.2019 C.ar      14 UNK        -0.1249 
     15 C15       -54.2952  -31.8653   10.1595 C.3       14 UNK         0.0141 
     16 S16       -55.8393  -31.6641    9.2041 S.3       14 UNK        -0.2313 
     17 C17       -57.1002  -31.4621   10.5081 C.3       14 UNK        -0.0915 
     18 CA        -57.2443  -29.9901   10.9906 C.3       13 UNK         0.0968 
     19 C         -58.6927  -29.6736   11.4701 C.2       13 UNK         0.5732 
     20 N         -58.9106  -29.2094   12.6954 N.am      13 UNK        -0.7310 
     21 O         -59.6419  -29.8368   10.7068 O.2       13 UNK        -0.5035 
     22 N         -56.2121  -29.6560   11.9877 N.am      13 UNK        -0.4233 
     23 C         -55.6291  -28.4582   12.1135 C.2       13 UNK         0.4989 
     24 O         -55.8325  -27.5161   11.3444 O.2       13 UNK        -0.4996 
     25 CA        -54.6534  -28.3132   13.3005 C.3       12 UNK         0.0216 
     26 CB        -53.4058  -29.1953   13.1271 C.3       12 UNK        -0.1964 
     27 N         -54.2109  -26.9363   13.5195 N.am      12 UNK        -0.4276 
     28 C         -54.9811  -25.9335   13.9552 C.2       12 UNK         0.5020 
     29 O         -56.1613  -26.0600   14.2920 O.2       12 UNK        -0.5489 
     30 CA        -54.2755  -24.5715   14.0553 C.3       11 UNK         0.0294 
     31 CB        -55.2411  -23.3962   14.3211 C.3       11 UNK        -0.2019 
     32 N         -53.1867  -24.6088   15.0392 N.am      11 UNK        -0.4493 
     33 C         -53.2875  -24.7903   16.3653 C.2       11 UNK         0.4932 
     34 O         -54.3526  -24.9409   16.9663 O.2       11 UNK        -0.5029 
     35 CA        -51.9649  -24.7658   17.1535 C.3       10 UNK         0.0280 
     36 CB        -52.1296  -25.1416   18.6426 C.3       10 UNK        -0.1976 
     37 N         -50.9004  -25.5532   16.5233 N.am      10 UNK        -0.4242 
     38 C         -50.8550  -26.8840   16.3467 C.2       10 UNK         0.5072 
     39 O         -51.7621  -27.6463   16.6835 O.2       10 UNK        -0.5224 
     40 CA        -49.5885  -27.4882   15.6987 C.3       9 UNK         0.0343 
     41 CB        -49.9481  -28.3844   14.5005 C.3       9 UNK        -0.2003 
     42 N         -48.6081  -26.4907   15.2631 N.am      9 UNK        -0.4272 
     43 C         -47.7492  -25.8370   16.0570 C.2       9 UNK         0.4988 
     44 O         -47.6226  -26.0608   17.2609 O.2       9 UNK        -0.5108 
     45 CA        -46.9338  -24.7016   15.4083 C.3       8 UNK         0.0248 
     46 CB        -45.6294  -25.2454   14.8055 C.3       8 UNK        -0.2001 
     47 N         -47.6855  -23.9575   14.3881 N.am      8 UNK        -0.4140 
     48 C         -48.8124  -23.2694   14.6314 C.2       8 UNK         0.5028 
     49 O         -49.3090  -23.1495   15.7512 O.2       8 UNK        -0.5428 
     50 CA        -49.5487  -22.6663   13.4249 C.3       7 UNK         0.0264 
     51 CB        -48.8790  -21.3621   12.9649 C.3       7 UNK        -0.1988 
     52 N         -49.6498  -23.6019   12.3033 N.am      7 UNK        -0.4454 
     53 C         -50.3254  -24.7609   12.3333 C.2       7 UNK         0.5027 
     54 O         -50.9960  -25.1335   13.2971 O.2       7 UNK        -0.5083 
     55 CA        -50.1904  -25.6816   11.1021 C.3       6 UNK         0.0844 
     56 C56       -51.1341  -25.2546    9.9514 C.3       14 UNK        -0.0967 
     57 S57       -52.8471  -25.8340   10.1960 S.3       14 UNK        -0.2604 
     58 C58       -53.0247  -27.0895    8.8838 C.3       14 UNK         0.0134 
     59 N         -48.8018  -25.7853   10.6478 N.am      6 UNK        -0.4116 
     60 C         -47.7855  -26.2750   11.3697 C.2       5 UNK         0.5034 
     61 O         -47.9173  -26.7827   12.4807 O.2       5 UNK        -0.5045 
     62 CA        -46.3761  -26.1212   10.7780 C.3       5 UNK         0.0224 
     63 CB        -46.0307  -27.2822    9.8340 C.3       5 UNK        -0.1978 
     64 N         -46.2129  -24.8478   10.0747 N.am      5 UNK        -0.4737 
     65 C         -46.1390  -23.6570   10.6830 C.2       4 UNK         0.5027 
     66 O         -46.1515  -23.5139   11.9055 O.2       4 UNK        -0.5211 
     67 CA        -46.0844  -22.4202    9.7699 C.3       4 UNK         0.0297 
     68 CB        -44.6524  -22.1822    9.2657 C.3       4 UNK        -0.1993 
     69 N         -47.0016  -22.5136    8.6288 N.am      4 UNK        -0.4486 
     70 C         -48.3373  -22.5280    8.7391 C.2       3 UNK         0.4961 
     71 O         -48.9346  -22.4482    9.8112 O.2       3 UNK        -0.5105 
     72 CA        -49.1517  -22.7042    7.4451 C.3       3 UNK         0.0299 
     73 CB        -49.3420  -21.3497    6.7443 C.3       3 UNK        -0.1972 
     74 N         -48.6133  -23.6819    6.4898 N.am      3 UNK        -0.4305 
     75 C         -48.2881  -24.9514    6.7707 C.2       2 UNK         0.5006 
     76 O         -48.2635  -25.4167    7.9120 O.2       2 UNK        -0.5106 
     77 CA        -47.8961  -25.8418    5.5761 C.3       2 UNK         0.0296 
     78 CB        -46.4324  -25.5845    5.1812 C.3       2 UNK        -0.2002 
     79 N         -48.0609  -27.2699    5.8684 N.am      2 UNK        -0.4032 
     80 C         -49.2176  -27.8626    6.2045 C.2       1 UNK         0.5000 
     81 O         -50.3166  -27.3058    6.1642 O.2       1 UNK        -0.5238 
     82 H82       -47.4106  -31.7470    3.9822 H         1 UNK         0.0889 
     83 H83       -48.1240  -30.9039    2.6059 H         1 UNK         0.0889 
     84 H84       -48.9511  -32.2924    3.3170 H         1 UNK         0.0889 
     85 H85       -47.6744  -30.6408    5.8948 H         1 UNK         0.3028 
     86 H86       -50.1351  -29.6588    6.8933 H         1 UNK         0.0864 
     87 H87       -47.2318  -29.3059    7.7974 H         1 UNK         0.0720 
     88 H88       -48.5407  -28.5699    8.6667 H         1 UNK         0.0720 
     89 H89       -48.9765  -29.5239   10.8023 H         1 UNK         0.0814 
     90 H90       -49.4290  -31.1726   11.1265 H         1 UNK         0.0814 
     91 H91       -50.5380  -28.0311    9.4803 H         1 UNK         0.1469 
     92 H92       -54.6338  -29.2220    9.3243 H         1 UNK         0.1381 
     93 H93       -51.6302  -32.0371   10.5406 H         1 UNK         0.1206 
     94 H94       -53.8639  -32.8284    9.8827 H         1 UNK         0.0813 
     95 H95       -54.5160  -31.9283   11.2248 H         1 UNK         0.0813 
     96 H96       -56.8946  -32.1366   11.3408 H         1 UNK         0.0638 
     97 H97       -58.0311  -31.8231   10.0668 H         1 UNK         0.0638 
     98 H98       -57.1055  -29.3466   10.1200 H         1 UNK         0.0568 
     99 H99       -58.1450  -29.0437   13.3278 H         1 UNK         0.3450 
    100 H100      -59.8547  -29.0046   12.9820 H         1 UNK         0.3450 
    101 H101      -56.0067  -30.3750   12.6650 H         1 UNK         0.2987 
    102 H102      -55.1823  -28.6386   14.1987 H         1 UNK         0.0766 
    103 H103      -52.7826  -28.8547   12.2998 H         1 UNK         0.0798 
    104 H104      -52.7977  -29.1846   14.0306 H         1 UNK         0.0798 
    105 H105      -53.6659  -30.2360   12.9342 H         1 UNK         0.0798 
    106 H106      -53.2622  -26.7197   13.2485 H         1 UNK         0.3198 
    107 H107      -53.8078  -24.3907   13.0855 H         1 UNK         0.0843 
    108 H108      -55.9873  -23.3248   13.5290 H         1 UNK         0.0831 
    109 H109      -54.7092  -22.4455   14.3533 H         1 UNK         0.0831 
    110 H110      -55.7812  -23.5114   15.2611 H         1 UNK         0.0831 
    111 H111      -52.2534  -24.5995   14.6329 H         1 UNK         0.3133 
    112 H112      -51.6236  -23.7303   17.1232 H         1 UNK         0.0566 
    113 H113      -51.1789  -25.0869   19.1729 H         1 UNK         0.0814 
    114 H114      -52.8181  -24.4594   19.1427 H         1 UNK         0.0814 
    115 H115      -52.5266  -26.1495   18.7668 H         1 UNK         0.0814 
    116 H116      -50.1194  -25.0019   16.1834 H         1 UNK         0.3091 
    117 H117      -49.1171  -28.1181   16.4556 H         1 UNK         0.0702 
    118 H118      -49.0565  -28.8107   14.0404 H         1 UNK         0.0785 
    119 H119      -50.4893  -27.8321   13.7319 H         1 UNK         0.0785 
    120 H120      -50.5753  -29.2195   14.8128 H         1 UNK         0.0785 
    121 H121      -48.5818  -26.2992   14.2658 H         1 UNK         0.2998 
    122 H122      -46.6719  -23.9938   16.1975 H         1 UNK         0.0697 
    123 H123      -45.8215  -25.9778   14.0220 H         1 UNK         0.0825 
    124 H124      -45.0242  -25.7373   15.5680 H         1 UNK         0.0825 
    125 H125      -45.0247  -24.4458   14.3770 H         1 UNK         0.0825 
    126 H126      -47.3054  -23.9580   13.4452 H         1 UNK         0.3029 
    127 H127      -50.5650  -22.4277   13.7462 H         1 UNK         0.0897 
    128 H128      -49.4470  -20.8874   12.1646 H         1 UNK         0.0792 
    129 H129      -48.8138  -20.6461   13.7852 H         1 UNK         0.0792 
    130 H130      -47.8666  -21.5321   12.5981 H         1 UNK         0.0792 
    131 H131      -49.1880  -23.3248   11.4392 H         1 UNK         0.3086 
    132 H132      -50.4743  -26.6840   11.4284 H         1 UNK         0.0583 
    133 H133      -51.1443  -24.1701    9.8262 H         1 UNK         0.1020 
    134 H134      -50.7681  -25.6438    9.0004 H         1 UNK         0.1020 
    135 H135      -54.0676  -27.0882    8.5633 H         1 UNK         0.0694 
    136 H136      -52.4445  -26.8136    8.0024 H         1 UNK         0.0694 
    137 H137      -48.5960  -25.4411    9.7122 H         1 UNK         0.2989 
    138 H138      -45.6710  -26.1459   11.6115 H         1 UNK         0.1055 
    139 H139      -46.2478  -28.2467   10.2960 H         1 UNK         0.0806 
    140 H140      -44.9710  -27.2772    9.5787 H         1 UNK         0.0806 
    141 H141      -46.5932  -27.2249    8.9036 H         1 UNK         0.0806 
    142 H142      -46.2787  -24.8720    9.0664 H         1 UNK         0.3061 
    143 H143      -46.3815  -21.5564   10.3689 H         1 UNK         0.0734 
    144 H144      -43.9561  -22.0938   10.1010 H         1 UNK         0.0832 
    145 H145      -44.3015  -23.0002    8.6352 H         1 UNK         0.0832 
    146 H146      -44.5824  -21.2593    8.6898 H         1 UNK         0.0832 
    147 H147      -46.5933  -22.5913    7.7087 H         1 UNK         0.3156 
    148 H148      -50.1383  -23.0680    7.7387 H         1 UNK         0.0589 
    149 H149      -48.3985  -20.9513    6.3694 H         1 UNK         0.0808 
    150 H150      -50.0314  -21.4298    5.9036 H         1 UNK         0.0808 
    151 H151      -49.7583  -20.6101    7.4302 H         1 UNK         0.0808 
    152 H152      -48.5772  -23.3846    5.5251 H         1 UNK         0.3098 
    153 H153      -48.5447  -25.5958    4.7329 H         1 UNK         0.0720 
    154 H154      -46.1441  -26.1816    4.3157 H         1 UNK         0.0791 
    155 H155      -45.7469  -25.8220    5.9961 H         1 UNK         0.0791 
    156 H156      -46.2721  -24.5387    4.9154 H         1 UNK         0.0791 
    157 H157      -47.2134  -27.8137    5.9268 H         1 UNK         0.3028 
@<TRIPOS>BOND
     1    1    2 1    
     2    1   82 1    
     3    1   83 1    
     4    1   84 1    
     5    2    3 2    
     6    2    4 am   BACKBONE|DICT|INTERRES
     7    4    5 1    
     8    4   85 1    
     9    5    6 1    
    10    5   80 1    
    11    5   86 1    
    12    6    7 1    
    13    6   87 1    
    14    6   88 1    
    15    7    8 1    
    16    8    9 1    
    17    8   89 1    
    18    8   90 1    
    19    9   10 ar   
    20    9   14 ar   
    21   10   11 ar   
    22   10   91 1    
    23   11   12 ar   
    24   11   58 1    
    25   12   13 ar   
    26   12   92 1    
    27   13   14 ar   
    28   13   15 1    
    29   14   93 1    
    30   15   16 1    
    31   15   94 1    
    32   15   95 1    
    33   16   17 1    
    34   17   18 1    
    35   17   96 1    
    36   17   97 1    
    37   18   19 1    
    38   18   22 1    
    39   18   98 1    
    40   19   20 am   BACKBONE|DICT|INTERRES
    41   19   21 2    
    42   20   99 1    
    43   20  100 1    
    44   22   23 am   BACKBONE|DICT|INTERRES
    45   22  101 1    
    46   23   24 2    
    47   23   25 1    
    48   25   26 1    
    49   25   27 1    
    50   25  102 1    
    51   26  103 1    
    52   26  104 1    
    53   26  105 1    
    54   27   28 am   BACKBONE|DICT|INTERRES
    55   27  106 1    
    56   28   29 2    
    57   28   30 1    
    58   30   31 1    
    59   30   32 1    
    60   30  107 1    
    61   31  108 1    
    62   31  109 1    
    63   31  110 1    
    64   32   33 am   BACKBONE|DICT|INTERRES
    65   32  111 1    
    66   33   34 2    
    67   33   35 1    
    68   35   36 1    
    69   35   37 1    
    70   35  112 1    
    71   36  113 1    
    72   36  114 1    
    73   36  115 1    
    74   37   38 am   BACKBONE|DICT|INTERRES
    75   37  116 1    
    76   38   39 2    
    77   38   40 1    
    78   40   41 1    
    79   40   42 1    
    80   40  117 1    
    81   41  118 1    
    82   41  119 1    
    83   41  120 1    
    84   42   43 am   BACKBONE|DICT|INTERRES
    85   42  121 1    
    86   43   44 2    
    87   43   45 1    
    88   45   46 1    
    89   45   47 1    
    90   45  122 1    
    91   46  123 1    
    92   46  124 1    
    93   46  125 1    
    94   47   48 am   BACKBONE|DICT|INTERRES
    95   47  126 1    
    96   48   49 2    
    97   48   50 1    
    98   50   51 1    
    99   50   52 1    
   100   50  127 1    
   101   51  128 1    
   102   51  129 1    
   103   51  130 1    
   104   52   53 am   BACKBONE|DICT|INTERRES
   105   52  131 1    
   106   53   54 2    
   107   53   55 1    
   108   55   56 1    
   109   55   59 1    
   110   55  132 1    
   111   56   57 1    
   112   56  133 1    
   113   56  134 1    
   114   57   58 1    
   115   58  135 1    
   116   58  136 1    
   117   59   60 am   BACKBONE|DICT|INTERRES
   118   59  137 1    
   119   60   61 2    
   120   60   62 1    
   121   62   63 1    
   122   62   64 1    
   123   62  138 1    
   124   63  139 1    
   125   63  140 1    
   126   63  141 1    
   127   64   65 am   BACKBONE|DICT|INTERRES
   128   64  142 1    
   129   65   66 2    
   130   65   67 1    
   131   67   68 1    
   132   67   69 1    
   133   67  143 1    
   134   68  144 1    
   135   68  145 1    
   136   68  146 1    
   137   69   70 am   BACKBONE|DICT|INTERRES
   138   69  147 1    
   139   70   71 2    
   140   70   72 1    
   141   72   73 1    
   142   72   74 1    
   143   72  148 1    
   144   73  149 1    
   145   73  150 1    
   146   73  151 1    
   147   74   75 am   BACKBONE|DICT|INTERRES
   148   74  152 1    
   149   75   76 2    
   150   75   77 1    
   151   77   78 1    
   152   77   79 1    
   153   77  153 1    
   154   78  154 1    
   155   78  155 1    
   156   78  156 1    
   157   79   80 am   BACKBONE|DICT|INTERRES
   158   79  157 1    
   159   80   81 2    
@<TRIPOS>SUBSTRUCTURE
     1 UNK         1 GROUP             0       ****    0 ROOT    
