@<TRIPOS>MOLECULE
3R207
157   159    1
SMALL
USER_CHARGES


@<TRIPOS>ATOM
      1 CA        -45.5973  -31.5293    5.9516 C.3       0 UNK        -0.1975 
      2 C         -46.5615  -30.6338    5.1879 C.2       0 UNK         0.4852 
      3 O         -46.3613  -30.3930    3.9970 O.2       0 UNK        -0.5216 
      4 N         -47.6050  -30.1374    5.8660 N.am      1 UNK        -0.4461 
      5 CA        -48.6497  -29.2733    5.2966 C.3       1 UNK         0.0864 
      6 C6        -49.8611  -29.1259    6.2504 C.3       14 UNK        -0.0898 
      7 S7        -50.5581  -30.7034    6.8430 S.3       14 UNK        -0.2598 
      8 C8        -51.2677  -30.1811    8.4397 C.3       14 UNK         0.0286 
      9 C9        -52.5040  -29.3116    8.2514 C.ar      14 UNK        -0.0844 
     10 C10       -52.3790  -27.9320    8.0603 C.ar      14 UNK        -0.0881 
     11 C11       -53.5077  -27.1359    7.8476 C.ar      14 UNK        -0.0643 
     12 C12       -54.7750  -27.7279    7.8590 C.ar      14 UNK        -0.0930 
     13 C13       -54.9149  -29.1060    8.0535 C.ar      14 UNK        -0.0827 
     14 C14       -53.7752  -29.8920    8.2480 C.ar      14 UNK        -0.1249 
     15 C15       -56.2920  -29.7526    7.9905 C.3       14 UNK         0.0141 
     16 S16       -57.2386  -29.5366    9.5294 S.3       14 UNK        -0.2313 
     17 C17       -56.4114  -30.7127   10.6554 C.3       14 UNK        -0.0915 
     18 CA        -56.2622  -30.1464   12.0917 C.3       13 UNK         0.0968 
     19 C         -55.7064  -31.2175   13.0752 C.2       13 UNK         0.5732 
     20 N         -54.6102  -30.9727   13.7836 N.am      13 UNK        -0.7310 
     21 O         -56.2900  -32.2907   13.2083 O.2       13 UNK        -0.5035 
     22 N         -55.5213  -28.8744   12.0974 N.am      13 UNK        -0.4233 
     23 C         -55.7153  -27.8903   12.9808 C.2       13 UNK         0.4989 
     24 O         -56.5435  -27.9350   13.8944 O.2       13 UNK        -0.4996 
     25 CA        -54.8690  -26.6253   12.7641 C.3       12 UNK         0.0216 
     26 CB        -55.4244  -25.8017   11.5902 C.3       12 UNK        -0.1964 
     27 N         -54.8367  -25.7749   13.9541 N.am      12 UNK        -0.4276 
     28 C         -54.1228  -26.0271   15.0579 C.2       12 UNK         0.5020 
     29 O         -53.4117  -27.0231   15.2019 O.2       12 UNK        -0.5489 
     30 CA        -54.2254  -24.9573   16.1596 C.3       11 UNK         0.0294 
     31 CB        -55.4955  -25.1352   17.0180 C.3       11 UNK        -0.2019 
     32 N         -52.9986  -24.8547   16.9612 N.am      11 UNK        -0.4493 
     33 C         -52.5812  -25.6327   17.9716 C.2       11 UNK         0.4932 
     34 O         -53.2270  -26.5601   18.4639 O.2       11 UNK        -0.5029 
     35 CA        -51.1897  -25.2815   18.5318 C.3       10 UNK         0.0280 
     36 CB        -50.8219  -26.0746   19.8049 C.3       10 UNK        -0.1976 
     37 N         -50.1443  -25.4033   17.5101 N.am      10 UNK        -0.4242 
     38 C         -49.7634  -26.5063   16.8460 C.2       10 UNK         0.5072 
     39 O         -50.2126  -27.6319   17.0680 O.2       10 UNK        -0.5224 
     40 CA        -48.6830  -26.3211   15.7591 C.3       9 UNK         0.0343 
     41 CB        -48.6420  -27.4963   14.7642 C.3       9 UNK        -0.2003 
     42 N         -48.8560  -25.0698   15.0143 N.am      9 UNK        -0.4272 
     43 C         -48.3512  -23.8816   15.3787 C.2       9 UNK         0.4988 
     44 O         -47.6715  -23.7219   16.3926 O.2       9 UNK        -0.5108 
     45 CA        -48.6793  -22.6514   14.5107 C.3       8 UNK         0.0248 
     46 CB        -47.5071  -22.3383   13.5705 C.3       8 UNK        -0.2001 
     47 N         -49.9007  -22.7819   13.7154 N.am      8 UNK        -0.4140 
     48 C         -51.1393  -22.9181   14.2090 C.2       8 UNK         0.5028 
     49 O         -51.4101  -22.9160   15.4121 O.2       8 UNK        -0.5428 
     50 CA        -52.2659  -23.1444   13.1843 C.3       7 UNK         0.0264 
     51 CB        -52.8949  -21.8058   12.7698 C.3       7 UNK        -0.1988 
     52 N         -51.8816  -23.8939   11.9807 N.am      7 UNK        -0.4454 
     53 C         -51.2562  -25.0810   11.9468 C.2       7 UNK         0.5027 
     54 O         -50.8683  -25.6614   12.9610 O.2       7 UNK        -0.5083 
     55 CA        -51.0125  -25.7252   10.5631 C.3       6 UNK         0.0844 
     56 C56       -51.3301  -24.8115    9.3479 C.3       14 UNK        -0.0967 
     57 S57       -53.1200  -24.6397    9.0303 S.3       14 UNK        -0.2604 
     58 C58       -53.3567  -25.6522    7.5369 C.3       14 UNK         0.0134 
     59 N         -49.6326  -26.2002   10.4951 N.am      6 UNK        -0.4116 
     60 C         -49.1962  -27.4168   10.8477 C.2       5 UNK         0.5034 
     61 O         -49.9310  -28.3225   11.2413 O.2       5 UNK        -0.5045 
     62 CA        -47.6853  -27.6903   10.7210 C.3       5 UNK         0.0224 
     63 CB        -47.4179  -28.7797    9.6666 C.3       5 UNK        -0.1978 
     64 N         -46.9295  -26.4892   10.3537 N.am      5 UNK        -0.4737 
     65 C         -46.2895  -25.6886   11.2177 C.2       4 UNK         0.5027 
     66 O         -46.2166  -25.9055   12.4258 O.2       4 UNK        -0.5211 
     67 CA        -45.6170  -24.4249   10.6452 C.3       4 UNK         0.0297 
     68 CB        -44.1307  -24.6991   10.3654 C.3       4 UNK        -0.1993 
     69 N         -46.2453  -23.9123    9.4246 N.am      4 UNK        -0.4486 
     70 C         -47.5109  -23.4832    9.3110 C.2       3 UNK         0.4961 
     71 O         -48.3055  -23.4206   10.2497 O.2       3 UNK        -0.5105 
     72 CA        -47.9928  -23.1466    7.8860 C.3       3 UNK         0.0299 
     73 CB        -47.7471  -21.6627    7.5733 C.3       3 UNK        -0.1972 
     74 N         -47.3808  -23.9814    6.8403 N.am      3 UNK        -0.4305 
     75 C         -47.4413  -25.3205    6.8022 C.2       2 UNK         0.5006 
     76 O         -48.0292  -25.9969    7.6509 O.2       2 UNK        -0.5106 
     77 CA        -46.6519  -26.0199    5.6822 C.3       2 UNK         0.0296 
     78 CB        -45.1430  -25.9709    5.9796 C.3       2 UNK        -0.2002 
     79 N         -47.0623  -27.4201    5.5932 N.am      2 UNK        -0.4032 
     80 C         -48.1444  -27.8580    4.9365 C.2       1 UNK         0.5000 
     81 O         -48.7718  -27.1786    4.1211 O.2       1 UNK        -0.5238 
     82 H82       -45.8916  -31.6511    6.9938 H         1 UNK         0.0889 
     83 H83       -44.5939  -31.1050    5.9301 H         1 UNK         0.0889 
     84 H84       -45.5597  -32.5167    5.4926 H         1 UNK         0.0889 
     85 H85       -47.7444  -30.4071    6.8293 H         1 UNK         0.3028 
     86 H86       -48.9970  -29.7383    4.3714 H         1 UNK         0.0864 
     87 H87       -49.5734  -28.5302    7.1184 H         1 UNK         0.0720 
     88 H88       -50.6655  -28.5770    5.7562 H         1 UNK         0.0720 
     89 H89       -50.5148  -29.6505    9.0222 H         1 UNK         0.0814 
     90 H90       -51.5228  -31.0699    9.0187 H         1 UNK         0.0814 
     91 H91       -51.3986  -27.4793    8.0516 H         1 UNK         0.1469 
     92 H92       -55.6540  -27.1211    7.6888 H         1 UNK         0.1381 
     93 H93       -53.8744  -30.9610    8.3778 H         1 UNK         0.1206 
     94 H94       -56.8581  -29.3107    7.1693 H         1 UNK         0.0813 
     95 H95       -56.2115  -30.8164    7.7607 H         1 UNK         0.0813 
     96 H96       -55.4342  -30.9874   10.2579 H         1 UNK         0.0638 
     97 H97       -57.0054  -31.6284   10.6616 H         1 UNK         0.0638 
     98 H98       -57.2733  -29.9401   12.4481 H         1 UNK         0.0568 
     99 H99       -54.1331  -30.0893   13.7023 H         1 UNK         0.3450 
    100 H100      -54.2683  -31.6751   14.4199 H         1 UNK         0.3450 
    101 H101      -54.8425  -28.7578   11.3596 H         1 UNK         0.2987 
    102 H102      -53.8453  -26.9267   12.5299 H         1 UNK         0.0766 
    103 H103      -56.4712  -25.5350   11.7420 H         1 UNK         0.0798 
    104 H104      -54.8620  -24.8784   11.4521 H         1 UNK         0.0798 
    105 H105      -55.3633  -26.3587   10.6539 H         1 UNK         0.0798 
    106 H106      -55.4509  -24.9737   13.9442 H         1 UNK         0.3198 
    107 H107      -54.3094  -23.9874   15.6670 H         1 UNK         0.0843 
    108 H108      -56.3937  -24.9978   16.4151 H         1 UNK         0.0831 
    109 H109      -55.5356  -24.4085   17.8294 H         1 UNK         0.0831 
    110 H110      -55.5583  -26.1329   17.4532 H         1 UNK         0.0831 
    111 H111      -52.3445  -24.1550   16.6163 H         1 UNK         0.3133 
    112 H112      -51.2244  -24.2264   18.8080 H         1 UNK         0.0566 
    113 H113      -49.8490  -25.7734   20.1929 H         1 UNK         0.0814 
    114 H114      -51.5539  -25.9006   20.5944 H         1 UNK         0.0814 
    115 H115      -50.7926  -27.1495   19.6241 H         1 UNK         0.0814 
    116 H116      -49.6909  -24.5382   17.2465 H         1 UNK         0.3091 
    117 H117      -47.7200  -26.2994   16.2735 H         1 UNK         0.0702 
    118 H118      -47.8728  -27.3462   14.0080 H         1 UNK         0.0785 
    119 H119      -49.5964  -27.6251   14.2521 H         1 UNK         0.0785 
    120 H120      -48.4149  -28.4344   15.2719 H         1 UNK         0.0785 
    121 H121      -49.4722  -25.1228   14.2070 H         1 UNK         0.2998 
    122 H122      -48.8148  -21.8039   15.1858 H         1 UNK         0.0697 
    123 H123      -47.3563  -23.1464   12.8560 H         1 UNK         0.0825 
    124 H124      -46.5769  -22.2136   14.1267 H         1 UNK         0.0825 
    125 H125      -47.6767  -21.4195   13.0089 H         1 UNK         0.0825 
    126 H126      -49.7835  -22.8171   12.7122 H         1 UNK         0.3029 
    127 H127      -53.0321  -23.7314   13.6842 H         1 UNK         0.0897 
    128 H128      -53.7763  -21.9566   12.1460 H         1 UNK         0.0792 
    129 H129      -53.2138  -21.2360   13.6441 H         1 UNK         0.0792 
    130 H130      -52.1915  -21.1842   12.2143 H         1 UNK         0.0792 
    131 H131      -52.1919  -23.5102   11.0979 H         1 UNK         0.3086 
    132 H132      -51.6765  -26.5904   10.5128 H         1 UNK         0.0583 
    133 H133      -50.8899  -23.8199    9.4670 H         1 UNK         0.1020 
    134 H134      -50.8576  -25.2140    8.4505 H         1 UNK         0.1020 
    135 H135      -54.2484  -25.2916    7.0218 H         1 UNK         0.0694 
    136 H136      -52.5314  -25.4955    6.8407 H         1 UNK         0.0694 
    137 H137      -48.9429  -25.5048   10.2420 H         1 UNK         0.2989 
    138 H138      -47.3446  -28.0645   11.6887 H         1 UNK         0.1055 
    139 H139      -47.9414  -29.7040    9.9154 H         1 UNK         0.0806 
    140 H140      -46.3559  -29.0175    9.6047 H         1 UNK         0.0806 
    141 H141      -47.7510  -28.4721    8.6761 H         1 UNK         0.0806 
    142 H142      -46.9876  -26.2162    9.3780 H         1 UNK         0.3061 
    143 H143      -45.6776  -23.6419   11.4020 H         1 UNK         0.0734 
    144 H144      -43.6249  -25.0559   11.2640 H         1 UNK         0.0832 
    145 H145      -43.9972  -25.4590    9.5943 H         1 UNK         0.0832 
    146 H146      -43.6122  -23.7959   10.0431 H         1 UNK         0.0832 
    147 H147      -45.6785  -23.9228    8.5896 H         1 UNK         0.3156 
    148 H148      -49.0689  -23.3255    7.8539 H         1 UNK         0.0589 
    149 H149      -46.6833  -21.4226    7.5541 H         1 UNK         0.0808 
    150 H150      -48.1727  -21.3837    6.6091 H         1 UNK         0.0808 
    151 H151      -48.2116  -21.0239    8.3261 H         1 UNK         0.0808 
    152 H152      -46.8748  -23.4969    6.1122 H         1 UNK         0.3098 
    153 H153      -46.8510  -25.5137    4.7352 H         1 UNK         0.0720 
    154 H154      -44.5733  -26.4959    5.2123 H         1 UNK         0.0791 
    155 H155      -44.9032  -26.4257    6.9419 H         1 UNK         0.0791 
    156 H156      -44.7761  -24.9441    6.0026 H         1 UNK         0.0791 
    157 H157      -46.6415  -28.0498    6.2594 H         1 UNK         0.3028 
@<TRIPOS>BOND
     1    1    2 1    
     2    1   82 1    
     3    1   83 1    
     4    1   84 1    
     5    2    3 2    
     6    2    4 am   BACKBONE|DICT|INTERRES
     7    4    5 1    
     8    4   85 1    
     9    5    6 1    
    10    5   80 1    
    11    5   86 1    
    12    6    7 1    
    13    6   87 1    
    14    6   88 1    
    15    7    8 1    
    16    8    9 1    
    17    8   89 1    
    18    8   90 1    
    19    9   10 ar   
    20    9   14 ar   
    21   10   11 ar   
    22   10   91 1    
    23   11   12 ar   
    24   11   58 1    
    25   12   13 ar   
    26   12   92 1    
    27   13   14 ar   
    28   13   15 1    
    29   14   93 1    
    30   15   16 1    
    31   15   94 1    
    32   15   95 1    
    33   16   17 1    
    34   17   18 1    
    35   17   96 1    
    36   17   97 1    
    37   18   19 1    
    38   18   22 1    
    39   18   98 1    
    40   19   20 am   BACKBONE|DICT|INTERRES
    41   19   21 2    
    42   20   99 1    
    43   20  100 1    
    44   22   23 am   BACKBONE|DICT|INTERRES
    45   22  101 1    
    46   23   24 2    
    47   23   25 1    
    48   25   26 1    
    49   25   27 1    
    50   25  102 1    
    51   26  103 1    
    52   26  104 1    
    53   26  105 1    
    54   27   28 am   BACKBONE|DICT|INTERRES
    55   27  106 1    
    56   28   29 2    
    57   28   30 1    
    58   30   31 1    
    59   30   32 1    
    60   30  107 1    
    61   31  108 1    
    62   31  109 1    
    63   31  110 1    
    64   32   33 am   BACKBONE|DICT|INTERRES
    65   32  111 1    
    66   33   34 2    
    67   33   35 1    
    68   35   36 1    
    69   35   37 1    
    70   35  112 1    
    71   36  113 1    
    72   36  114 1    
    73   36  115 1    
    74   37   38 am   BACKBONE|DICT|INTERRES
    75   37  116 1    
    76   38   39 2    
    77   38   40 1    
    78   40   41 1    
    79   40   42 1    
    80   40  117 1    
    81   41  118 1    
    82   41  119 1    
    83   41  120 1    
    84   42   43 am   BACKBONE|DICT|INTERRES
    85   42  121 1    
    86   43   44 2    
    87   43   45 1    
    88   45   46 1    
    89   45   47 1    
    90   45  122 1    
    91   46  123 1    
    92   46  124 1    
    93   46  125 1    
    94   47   48 am   BACKBONE|DICT|INTERRES
    95   47  126 1    
    96   48   49 2    
    97   48   50 1    
    98   50   51 1    
    99   50   52 1    
   100   50  127 1    
   101   51  128 1    
   102   51  129 1    
   103   51  130 1    
   104   52   53 am   BACKBONE|DICT|INTERRES
   105   52  131 1    
   106   53   54 2    
   107   53   55 1    
   108   55   56 1    
   109   55   59 1    
   110   55  132 1    
   111   56   57 1    
   112   56  133 1    
   113   56  134 1    
   114   57   58 1    
   115   58  135 1    
   116   58  136 1    
   117   59   60 am   BACKBONE|DICT|INTERRES
   118   59  137 1    
   119   60   61 2    
   120   60   62 1    
   121   62   63 1    
   122   62   64 1    
   123   62  138 1    
   124   63  139 1    
   125   63  140 1    
   126   63  141 1    
   127   64   65 am   BACKBONE|DICT|INTERRES
   128   64  142 1    
   129   65   66 2    
   130   65   67 1    
   131   67   68 1    
   132   67   69 1    
   133   67  143 1    
   134   68  144 1    
   135   68  145 1    
   136   68  146 1    
   137   69   70 am   BACKBONE|DICT|INTERRES
   138   69  147 1    
   139   70   71 2    
   140   70   72 1    
   141   72   73 1    
   142   72   74 1    
   143   72  148 1    
   144   73  149 1    
   145   73  150 1    
   146   73  151 1    
   147   74   75 am   BACKBONE|DICT|INTERRES
   148   74  152 1    
   149   75   76 2    
   150   75   77 1    
   151   77   78 1    
   152   77   79 1    
   153   77  153 1    
   154   78  154 1    
   155   78  155 1    
   156   78  156 1    
   157   79   80 am   BACKBONE|DICT|INTERRES
   158   79  157 1    
   159   80   81 2    
@<TRIPOS>SUBSTRUCTURE
     1 UNK         1 GROUP             0       ****    0 ROOT    
