@<TRIPOS>MOLECULE
3R207
157   159    1
SMALL
USER_CHARGES


@<TRIPOS>ATOM
      1 CA        -46.7335  -26.6104    4.6456 C.3       0 UNK        -0.1975 
      2 C         -48.2345  -26.7993    4.4853 C.2       0 UNK         0.4852 
      3 O         -48.8581  -26.1008    3.6858 O.2       0 UNK        -0.5216 
      4 N         -48.8172  -27.7423    5.2387 N.am      1 UNK        -0.4461 
      5 CA        -50.2500  -28.0715    5.2294 C.3       1 UNK         0.0864 
      6 C6        -50.5232  -29.4427    5.8985 C.3       14 UNK        -0.0898 
      7 S7        -49.9353  -29.5450    7.6222 S.3       14 UNK        -0.2598 
      8 C8        -50.4764  -31.2226    8.0731 C.3       14 UNK         0.0286 
      9 C9        -50.4497  -31.4073    9.5825 C.ar      14 UNK        -0.0844 
     10 C10       -49.2330  -31.5726   10.2495 C.ar      14 UNK        -0.0881 
     11 C11       -49.1915  -31.6937   11.6438 C.ar      14 UNK        -0.0643 
     12 C12       -50.3903  -31.6552   12.3656 C.ar      14 UNK        -0.0930 
     13 C13       -51.6180  -31.5164   11.7077 C.ar      14 UNK        -0.0827 
     14 C14       -51.6399  -31.4000   10.3152 C.ar      14 UNK        -0.1249 
     15 C15       -52.9208  -31.5291   12.4980 C.3       14 UNK         0.0141 
     16 S16       -53.5606  -29.8535   12.8136 S.3       14 UNK        -0.2313 
     17 C17       -54.4602  -29.5006   11.2665 C.3       14 UNK        -0.0915 
     18 CA        -55.3999  -28.2653   11.3316 C.3       13 UNK         0.0968 
     19 C         -56.6411  -28.4859   12.2417 C.2       13 UNK         0.5732 
     20 N         -56.9212  -27.6391   13.2229 N.am      13 UNK        -0.7310 
     21 O         -57.3894  -29.4383   12.0331 O.2       13 UNK        -0.5035 
     22 N         -54.6504  -27.0177   11.5628 N.am      13 UNK        -0.4233 
     23 C         -54.8988  -25.8668   10.9233 C.2       13 UNK         0.4989 
     24 O         -55.8750  -25.6803   10.1943 O.2       13 UNK        -0.4996 
     25 CA        -53.8421  -24.7628   11.0923 C.3       12 UNK         0.0216 
     26 CB        -53.9827  -23.6083   10.0748 C.3       12 UNK        -0.1964 
     27 N         -53.7716  -24.2878   12.4762 N.am      12 UNK        -0.4276 
     28 C         -54.6349  -23.4936   13.1249 C.2       12 UNK         0.5020 
     29 O         -55.6450  -23.0009   12.6192 O.2       12 UNK        -0.5489 
     30 CA        -54.2921  -23.1996   14.6002 C.3       11 UNK         0.0294 
     31 CB        -55.4032  -22.4176   15.3336 C.3       11 UNK        -0.2019 
     32 N         -53.9228  -24.4007   15.3602 N.am      11 UNK        -0.4493 
     33 C         -54.6712  -25.5021   15.5369 C.2       11 UNK         0.4932 
     34 O         -55.7882  -25.6506   15.0420 O.2       11 UNK        -0.5029 
     35 CA        -54.0781  -26.6274   16.4032 C.3       10 UNK         0.0280 
     36 CB        -54.5879  -28.0148   15.9800 C.3       10 UNK        -0.1976 
     37 N         -52.6166  -26.6129   16.3449 N.am      10 UNK        -0.4242 
     38 C         -51.8045  -26.4610   17.4005 C.2       10 UNK         0.5072 
     39 O         -52.1968  -26.4090   18.5671 O.2       10 UNK        -0.5224 
     40 CA        -50.2957  -26.3161   17.1205 C.3       9 UNK         0.0343 
     41 CB        -49.5761  -27.6510   17.3697 C.3       9 UNK        -0.2003 
     42 N         -49.9755  -25.8397   15.7709 N.am      9 UNK        -0.4272 
     43 C         -50.3512  -24.6552   15.2602 C.2       9 UNK         0.4988 
     44 O         -51.0019  -23.8174   15.8851 O.2       9 UNK        -0.5108 
     45 CA        -49.9973  -24.3723   13.7886 C.3       8 UNK         0.0248 
     46 CB        -48.6489  -23.6404   13.7269 C.3       8 UNK        -0.2001 
     47 N         -49.9338  -25.5713   12.9464 N.am      8 UNK        -0.4140 
     48 C         -50.8969  -26.4997   12.8241 C.2       8 UNK         0.5028 
     49 O         -52.0225  -26.3813   13.3154 O.2       8 UNK        -0.5428 
     50 CA        -50.5430  -27.7966   12.0741 C.3       7 UNK         0.0264 
     51 CB        -51.1112  -27.7575   10.6510 C.3       7 UNK        -0.1988 
     52 N         -49.1098  -28.0885   12.0040 N.am      7 UNK        -0.4454 
     53 C         -48.2796  -28.2076   13.0510 C.2       7 UNK         0.5027 
     54 O         -48.6574  -28.1741   14.2233 O.2       7 UNK        -0.5083 
     55 CA        -46.7653  -28.2944   12.7582 C.3       6 UNK         0.0844 
     56 C56       -46.2070  -29.7063   13.0673 C.3       14 UNK        -0.0967 
     57 S57       -46.4802  -30.9353   11.7402 S.3       14 UNK        -0.2604 
     58 C58       -47.8714  -31.9371   12.3732 C.3       14 UNK         0.0134 
     59 N         -46.3613  -27.8185   11.4263 N.am      6 UNK        -0.4116 
     60 C         -46.5983  -26.6090   10.8984 C.2       5 UNK         0.5034 
     61 O         -47.2030  -25.7121   11.4925 O.2       5 UNK        -0.5045 
     62 CA        -46.1102  -26.4038    9.4541 C.3       5 UNK         0.0224 
     63 CB        -46.7147  -27.4616    8.5099 C.3       5 UNK        -0.1978 
     64 N         -46.5055  -25.0842    8.9646 N.am      5 UNK        -0.4737 
     65 C         -45.6800  -24.0739    8.6627 C.2       4 UNK         0.5027 
     66 O         -44.4530  -24.1516    8.7341 O.2       4 UNK        -0.5211 
     67 CA        -46.3168  -22.7539    8.1767 C.3       4 UNK         0.0297 
     68 CB        -46.1587  -22.6118    6.6537 C.3       4 UNK        -0.1993 
     69 N         -47.7373  -22.6416    8.5165 N.am      4 UNK        -0.4486 
     70 C         -48.2106  -22.3973    9.7454 C.2       3 UNK         0.4961 
     71 O         -47.4945  -22.0459   10.6827 O.2       3 UNK        -0.5105 
     72 CA        -49.7277  -22.5803    9.9847 C.3       3 UNK         0.0299 
     73 CB        -50.3831  -21.2352   10.3412 C.3       3 UNK        -0.1972 
     74 N         -50.4830  -23.2081    8.8886 N.am      3 UNK        -0.4305 
     75 C         -50.2786  -24.4397    8.3993 C.2       2 UNK         0.5006 
     76 O         -49.3713  -25.1780    8.7876 O.2       2 UNK        -0.5106 
     77 CA        -51.1994  -24.9102    7.2625 C.3       2 UNK         0.0296 
     78 CB        -51.4463  -23.8076    6.2083 C.3       2 UNK        -0.2002 
     79 N         -50.5803  -26.0787    6.6427 N.am      2 UNK        -0.4032 
     80 C         -51.1519  -26.9524    5.8052 C.2       1 UNK         0.5000 
     81 O         -52.3355  -26.8980    5.4646 O.2       1 UNK        -0.5238 
     82 H82       -46.5274  -25.7853    5.3265 H         1 UNK         0.0889 
     83 H83       -46.2762  -26.3810    3.6834 H         1 UNK         0.0889 
     84 H84       -46.2550  -27.5086    5.0352 H         1 UNK         0.0889 
     85 H85       -48.2586  -28.2922    5.8763 H         1 UNK         0.3028 
     86 H86       -50.5403  -28.1689    4.1808 H         1 UNK         0.0864 
     87 H87       -50.0326  -30.2316    5.3261 H         1 UNK         0.0720 
     88 H88       -51.5897  -29.6753    5.8712 H         1 UNK         0.0720 
     89 H89       -49.8270  -31.9568    7.5942 H         1 UNK         0.0814 
     90 H90       -51.4822  -31.3987    7.6885 H         1 UNK         0.0814 
     91 H91       -48.3162  -31.6009    9.6770 H         1 UNK         0.1469 
     92 H92       -50.3710  -31.7569   13.4420 H         1 UNK         0.1381 
     93 H93       -52.5849  -31.2917    9.8018 H         1 UNK         0.1206 
     94 H94       -52.7662  -32.0226   13.4585 H         1 UNK         0.0813 
     95 H95       -53.6717  -32.1238   11.9759 H         1 UNK         0.0813 
     96 H96       -53.7267  -29.3516   10.4742 H         1 UNK         0.0638 
     97 H97       -55.0267  -30.3880   10.9787 H         1 UNK         0.0638 
     98 H98       -55.8314  -28.1969   10.3311 H         1 UNK         0.0568 
     99 H99       -57.7401  -27.8053   13.7842 H         1 UNK         0.3450 
    100 H100      -56.3196  -26.8580   13.4509 H         1 UNK         0.3450 
    101 H101      -53.8619  -27.0806   12.1951 H         1 UNK         0.2987 
    102 H102      -52.8768  -25.2267   10.8892 H         1 UNK         0.0766 
    103 H103      -53.2107  -22.8550   10.2212 H         1 UNK         0.0798 
    104 H104      -54.9510  -23.1123   10.1426 H         1 UNK         0.0798 
    105 H105      -53.8889  -23.9795    9.0540 H         1 UNK         0.0798 
    106 H106      -53.0445  -24.7346   13.0278 H         1 UNK         0.3198 
    107 H107      -53.4040  -22.5655   14.5824 H         1 UNK         0.0843 
    108 H108      -56.3402  -22.9750   15.3603 H         1 UNK         0.0831 
    109 H109      -55.6050  -21.4675   14.8375 H         1 UNK         0.0831 
    110 H110      -55.1178  -22.1910   16.3607 H         1 UNK         0.0831 
    111 H111      -53.0049  -24.3694   15.7927 H         1 UNK         0.3133 
    112 H112      -54.4222  -26.4398   17.4219 H         1 UNK         0.0566 
    113 H113      -54.1201  -28.8095   16.5610 H         1 UNK         0.0814 
    114 H114      -55.6659  -28.0991   16.1223 H         1 UNK         0.0814 
    115 H115      -54.3848  -28.2004   14.9274 H         1 UNK         0.0814 
    116 H116      -52.2141  -26.6347   15.4129 H         1 UNK         0.3091 
    117 H117      -49.9052  -25.5802   17.8264 H         1 UNK         0.0702 
    118 H118      -48.4981  -27.5525   17.2403 H         1 UNK         0.0785 
    119 H119      -49.9251  -28.4286   16.6888 H         1 UNK         0.0785 
    120 H120      -49.7495  -28.0056   18.3867 H         1 UNK         0.0785 
    121 H121      -49.4696  -26.4894   15.1776 H         1 UNK         0.2998 
    122 H122      -50.7692  -23.7207   13.3749 H         1 UNK         0.0697 
    123 H123      -47.8442  -24.2406   14.1540 H         1 UNK         0.0825 
    124 H124      -48.6860  -22.7000   14.2786 H         1 UNK         0.0825 
    125 H125      -48.3682  -23.4037   12.7033 H         1 UNK         0.0825 
    126 H126      -49.0499  -25.7372   12.4743 H         1 UNK         0.3029 
    127 H127      -51.0078  -28.6181   12.6191 H         1 UNK         0.0897 
    128 H128      -50.6077  -27.0176   10.0329 H         1 UNK         0.0792 
    129 H129      -52.1720  -27.5208   10.6474 H         1 UNK         0.0792 
    130 H130      -51.0048  -28.7235   10.1659 H         1 UNK         0.0792 
    131 H131      -48.7110  -28.1441   11.0790 H         1 UNK         0.3086 
    132 H132      -46.3010  -27.6072   13.4687 H         1 UNK         0.0583 
    133 H133      -45.1273  -29.6296   13.2048 H         1 UNK         0.1020 
    134 H134      -46.5795  -30.0804   14.0231 H         1 UNK         0.1020 
    135 H135      -47.6121  -32.9897   12.2532 H         1 UNK         0.0694 
    136 H136      -47.9901  -31.7773   13.4454 H         1 UNK         0.0694 
    137 H137      -45.8807  -28.5049   10.8625 H         1 UNK         0.2989 
    138 H138      -45.0226  -26.5036    9.4540 H         1 UNK         0.1055 
    139 H139      -46.4041  -28.4725    8.7759 H         1 UNK         0.0806 
    140 H140      -46.3916  -27.2947    7.4838 H         1 UNK         0.0806 
    141 H141      -47.8052  -27.4392    8.5250 H         1 UNK         0.0806 
    142 H142      -47.5097  -24.9211    8.9513 H         1 UNK         0.3061 
    143 H143      -45.7774  -21.9336    8.6554 H         1 UNK         0.0734 
    144 H144      -46.5308  -21.6486    6.3042 H         1 UNK         0.0832 
    145 H145      -45.1093  -22.6761    6.3623 H         1 UNK         0.0832 
    146 H146      -46.6944  -23.3948    6.1160 H         1 UNK         0.0832 
    147 H147      -48.3981  -22.9107    7.8035 H         1 UNK         0.3156 
    148 H148      -49.8267  -23.2405   10.8480 H         1 UNK         0.0589 
    149 H149      -50.3634  -20.5420    9.4993 H         1 UNK         0.0808 
    150 H150      -51.4198  -21.3627   10.6506 H         1 UNK         0.0808 
    151 H151      -49.8635  -20.7533   11.1708 H         1 UNK         0.0808 
    152 H152      -51.2239  -22.6520    8.4869 H         1 UNK         0.3098 
    153 H153      -52.1485  -25.2152    7.7068 H         1 UNK         0.0720 
    154 H154      -52.0582  -24.1730    5.3835 H         1 UNK         0.0791 
    155 H155      -50.5108  -23.4405    5.7840 H         1 UNK         0.0791 
    156 H156      -51.9781  -22.9550    6.6310 H         1 UNK         0.0791 
    157 H157      -49.6281  -26.2444    6.9433 H         1 UNK         0.3028 
@<TRIPOS>BOND
     1    1    2 1    
     2    1   82 1    
     3    1   83 1    
     4    1   84 1    
     5    2    3 2    
     6    2    4 am   BACKBONE|DICT|INTERRES
     7    4    5 1    
     8    4   85 1    
     9    5    6 1    
    10    5   80 1    
    11    5   86 1    
    12    6    7 1    
    13    6   87 1    
    14    6   88 1    
    15    7    8 1    
    16    8    9 1    
    17    8   89 1    
    18    8   90 1    
    19    9   10 ar   
    20    9   14 ar   
    21   10   11 ar   
    22   10   91 1    
    23   11   12 ar   
    24   11   58 1    
    25   12   13 ar   
    26   12   92 1    
    27   13   14 ar   
    28   13   15 1    
    29   14   93 1    
    30   15   16 1    
    31   15   94 1    
    32   15   95 1    
    33   16   17 1    
    34   17   18 1    
    35   17   96 1    
    36   17   97 1    
    37   18   19 1    
    38   18   22 1    
    39   18   98 1    
    40   19   20 am   BACKBONE|DICT|INTERRES
    41   19   21 2    
    42   20   99 1    
    43   20  100 1    
    44   22   23 am   BACKBONE|DICT|INTERRES
    45   22  101 1    
    46   23   24 2    
    47   23   25 1    
    48   25   26 1    
    49   25   27 1    
    50   25  102 1    
    51   26  103 1    
    52   26  104 1    
    53   26  105 1    
    54   27   28 am   BACKBONE|DICT|INTERRES
    55   27  106 1    
    56   28   29 2    
    57   28   30 1    
    58   30   31 1    
    59   30   32 1    
    60   30  107 1    
    61   31  108 1    
    62   31  109 1    
    63   31  110 1    
    64   32   33 am   BACKBONE|DICT|INTERRES
    65   32  111 1    
    66   33   34 2    
    67   33   35 1    
    68   35   36 1    
    69   35   37 1    
    70   35  112 1    
    71   36  113 1    
    72   36  114 1    
    73   36  115 1    
    74   37   38 am   BACKBONE|DICT|INTERRES
    75   37  116 1    
    76   38   39 2    
    77   38   40 1    
    78   40   41 1    
    79   40   42 1    
    80   40  117 1    
    81   41  118 1    
    82   41  119 1    
    83   41  120 1    
    84   42   43 am   BACKBONE|DICT|INTERRES
    85   42  121 1    
    86   43   44 2    
    87   43   45 1    
    88   45   46 1    
    89   45   47 1    
    90   45  122 1    
    91   46  123 1    
    92   46  124 1    
    93   46  125 1    
    94   47   48 am   BACKBONE|DICT|INTERRES
    95   47  126 1    
    96   48   49 2    
    97   48   50 1    
    98   50   51 1    
    99   50   52 1    
   100   50  127 1    
   101   51  128 1    
   102   51  129 1    
   103   51  130 1    
   104   52   53 am   BACKBONE|DICT|INTERRES
   105   52  131 1    
   106   53   54 2    
   107   53   55 1    
   108   55   56 1    
   109   55   59 1    
   110   55  132 1    
   111   56   57 1    
   112   56  133 1    
   113   56  134 1    
   114   57   58 1    
   115   58  135 1    
   116   58  136 1    
   117   59   60 am   BACKBONE|DICT|INTERRES
   118   59  137 1    
   119   60   61 2    
   120   60   62 1    
   121   62   63 1    
   122   62   64 1    
   123   62  138 1    
   124   63  139 1    
   125   63  140 1    
   126   63  141 1    
   127   64   65 am   BACKBONE|DICT|INTERRES
   128   64  142 1    
   129   65   66 2    
   130   65   67 1    
   131   67   68 1    
   132   67   69 1    
   133   67  143 1    
   134   68  144 1    
   135   68  145 1    
   136   68  146 1    
   137   69   70 am   BACKBONE|DICT|INTERRES
   138   69  147 1    
   139   70   71 2    
   140   70   72 1    
   141   72   73 1    
   142   72   74 1    
   143   72  148 1    
   144   73  149 1    
   145   73  150 1    
   146   73  151 1    
   147   74   75 am   BACKBONE|DICT|INTERRES
   148   74  152 1    
   149   75   76 2    
   150   75   77 1    
   151   77   78 1    
   152   77   79 1    
   153   77  153 1    
   154   78  154 1    
   155   78  155 1    
   156   78  156 1    
   157   79   80 am   BACKBONE|DICT|INTERRES
   158   79  157 1    
   159   80   81 2    
@<TRIPOS>SUBSTRUCTURE
     1 UNK         1 GROUP             0       ****    0 ROOT    
