@<TRIPOS>MOLECULE
3R207
157   159    1
SMALL
USER_CHARGES


@<TRIPOS>ATOM
      1 CA        -46.5306  -32.8805    3.5924 C.3       0 UNK        -0.1975 
      2 C         -46.9573  -31.4260    3.7269 C.2       0 UNK         0.4852 
      3 O         -46.1696  -30.5273    3.4277 O.2       0 UNK        -0.5216 
      4 N         -48.1997  -31.1873    4.1667 N.am      1 UNK        -0.4461 
      5 CA        -48.7539  -29.8561    4.4218 C.3       1 UNK         0.0864 
      6 C6        -50.2979  -29.9082    4.5108 C.3       14 UNK        -0.0898 
      7 S7        -51.0757  -28.2580    4.5910 S.3       14 UNK        -0.2598 
      8 C8        -52.6987  -28.6720    5.3084 C.3       14 UNK         0.0286 
      9 C9        -52.7833  -28.4000    6.8073 C.ar      14 UNK        -0.0844 
     10 C10       -52.0234  -29.1414    7.7196 C.ar      14 UNK        -0.0881 
     11 C11       -52.1646  -28.9370    9.0958 C.ar      14 UNK        -0.0643 
     12 C12       -53.0849  -27.9932    9.5598 C.ar      14 UNK        -0.0930 
     13 C13       -53.8308  -27.2268    8.6627 C.ar      14 UNK        -0.0827 
     14 C14       -53.6697  -27.4300    7.2881 C.ar      14 UNK        -0.1249 
     15 C15       -54.7981  -26.1743    9.1896 C.3       14 UNK         0.0141 
     16 S16       -56.5008  -26.4124    8.5876 S.3       14 UNK        -0.2313 
     17 C17       -56.9627  -28.0181    9.3234 C.3       14 UNK        -0.0915 
     18 CA        -58.0354  -27.8561   10.4385 C.3       13 UNK         0.0968 
     19 C         -58.8026  -29.1775   10.7625 C.2       13 UNK         0.5732 
     20 N         -59.3453  -29.3428   11.9632 N.am      13 UNK        -0.7310 
     21 O         -58.9465  -30.0509    9.9097 O.2       13 UNK        -0.5035 
     22 N         -57.5191  -27.1271   11.6137 N.am      13 UNK        -0.4233 
     23 C         -56.6457  -27.5952   12.5172 C.2       13 UNK         0.4989 
     24 O         -56.1517  -28.7248   12.4795 O.2       13 UNK        -0.4996 
     25 CA        -56.3104  -26.6375   13.6779 C.3       12 UNK         0.0216 
     26 CB        -57.5638  -26.3182   14.5149 C.3       12 UNK        -0.1964 
     27 N         -55.2878  -27.1796   14.5756 N.am      12 UNK        -0.4276 
     28 C         -53.9782  -27.2373   14.3111 C.2       12 UNK         0.5020 
     29 O         -53.4575  -26.7844   13.2892 O.2       12 UNK        -0.5489 
     30 CA        -53.1017  -27.8762   15.3980 C.3       11 UNK         0.0294 
     31 CB        -52.1216  -28.9089   14.8153 C.3       11 UNK        -0.2019 
     32 N         -52.3525  -26.8200   16.0715 N.am      11 UNK        -0.4493 
     33 C         -52.7723  -26.1536   17.1543 C.2       11 UNK         0.4932 
     34 O         -53.8099  -26.4328   17.7581 O.2       11 UNK        -0.5029 
     35 CA        -51.9123  -24.9615   17.6252 C.3       10 UNK         0.0280 
     36 CB        -52.1247  -24.6127   19.1140 C.3       10 UNK        -0.1976 
     37 N         -50.4854  -25.0974   17.3079 N.am      10 UNK        -0.4242 
     38 C         -49.6171  -26.0057   17.7817 C.2       10 UNK         0.5072 
     39 O         -49.9083  -26.8495   18.6309 O.2       10 UNK        -0.5224 
     40 CA        -48.1807  -25.9972   17.2137 C.3       9 UNK         0.0343 
     41 CB        -47.8581  -27.3391   16.5329 C.3       9 UNK        -0.2003 
     42 N         -47.9283  -24.9153   16.2575 N.am      9 UNK        -0.4272 
     43 C         -47.6519  -23.6447   16.5811 C.2       9 UNK         0.4988 
     44 O         -47.4989  -23.2510   17.7377 O.2       9 UNK        -0.5108 
     45 CA        -47.5729  -22.6316   15.4221 C.3       8 UNK         0.0248 
     46 CB        -46.1505  -22.5780   14.8431 C.3       8 UNK        -0.2001 
     47 N         -48.5379  -22.8991   14.3481 N.am      8 UNK        -0.4140 
     48 C         -49.8704  -22.8846   14.5078 C.2       8 UNK         0.5028 
     49 O         -50.4273  -22.5910   15.5655 O.2       8 UNK        -0.5428 
     50 CA        -50.7314  -23.3351   13.3164 C.3       7 UNK         0.0264 
     51 CB        -50.9090  -22.1925   12.3048 C.3       7 UNK        -0.1988 
     52 N         -50.2055  -24.5249   12.6423 N.am      7 UNK        -0.4454 
     53 C         -50.0267  -25.7183   13.2290 C.2       7 UNK         0.5027 
     54 O         -50.2987  -25.9442   14.4064 O.2       7 UNK        -0.5083 
     55 CA        -49.3773  -26.8337   12.3863 C.3       6 UNK         0.0844 
     56 C56       -50.4061  -27.4386   11.4071 C.3       14 UNK        -0.0967 
     57 S57       -49.7755  -28.8917   10.5064 S.3       14 UNK        -0.2604 
     58 C58       -51.3310  -29.7407   10.0843 C.3       14 UNK         0.0134 
     59 N         -48.1596  -26.3585   11.7241 N.am      6 UNK        -0.4116 
     60 C         -47.0847  -25.8761   12.3658 C.2       5 UNK         0.5034 
     61 O         -46.9558  -25.8729   13.5898 O.2       5 UNK        -0.5045 
     62 CA        -45.9988  -25.2235   11.4997 C.3       5 UNK         0.0224 
     63 CB        -45.0178  -26.2744   10.9561 C.3       5 UNK        -0.1978 
     64 N         -46.5859  -24.4563   10.3983 N.am      5 UNK        -0.4737 
     65 C         -47.2270  -23.2895   10.5599 C.2       4 UNK         0.5027 
     66 O         -47.3340  -22.7174   11.6445 O.2       4 UNK        -0.5211 
     67 CA        -47.8905  -22.6764    9.3140 C.3       4 UNK         0.0297 
     68 CB        -46.8715  -21.8535    8.5107 C.3       4 UNK        -0.1993 
     69 N         -48.5087  -23.6803    8.4433 N.am      4 UNK        -0.4486 
     70 C         -49.5706  -24.4255    8.7827 C.2       3 UNK         0.4961 
     71 O         -50.1782  -24.2974    9.8434 O.2       3 UNK        -0.5105 
     72 CA        -50.0098  -25.5228    7.7957 C.3       3 UNK         0.0299 
     73 CB        -51.0573  -24.9622    6.8215 C.3       3 UNK        -0.1972 
     74 N         -48.9120  -26.1378    7.0387 N.am      3 UNK        -0.4305 
     75 C         -47.8202  -26.7099    7.5708 C.2       2 UNK         0.5006 
     76 O         -47.5878  -26.7433    8.7800 O.2       2 UNK        -0.5106 
     77 CA        -46.8045  -27.2960    6.5721 C.3       2 UNK         0.0296 
     78 CB        -45.6535  -28.0655    7.2567 C.3       2 UNK        -0.2002 
     79 N         -47.4465  -28.1059    5.5297 N.am      2 UNK        -0.4032 
     80 C         -48.1165  -29.2576    5.6926 C.2       1 UNK         0.5000 
     81 O         -48.2508  -29.8483    6.7670 O.2       1 UNK        -0.5238 
     82 H82       -45.6676  -33.0781    4.2275 H         1 UNK         0.0889 
     83 H83       -46.2517  -33.0957    2.5612 H         1 UNK         0.0889 
     84 H84       -47.3267  -33.5676    3.8786 H         1 UNK         0.0889 
     85 H85       -48.7903  -31.9645    4.4262 H         1 UNK         0.3028 
     86 H86       -48.4959  -29.2258    3.5674 H         1 UNK         0.0864 
     87 H87       -50.6107  -30.5135    5.3619 H         1 UNK         0.0720 
     88 H88       -50.6987  -30.4085    3.6276 H         1 UNK         0.0720 
     89 H89       -52.9419  -29.7177    5.1152 H         1 UNK         0.0814 
     90 H90       -53.4552  -28.0915    4.7783 H         1 UNK         0.0814 
     91 H91       -51.3214  -29.8819    7.3661 H         1 UNK         0.1469 
     92 H92       -53.2124  -27.8442   10.6236 H         1 UNK         0.1381 
     93 H93       -54.2565  -26.8440    6.5940 H         1 UNK         0.1206 
     94 H94       -54.8085  -26.1621   10.2809 H         1 UNK         0.0813 
     95 H95       -54.4481  -25.1902    8.8753 H         1 UNK         0.0813 
     96 H96       -57.3397  -28.6292    8.5021 H         1 UNK         0.0638 
     97 H97       -56.0820  -28.5375    9.7030 H         1 UNK         0.0638 
     98 H98       -58.8170  -27.2145   10.0303 H         1 UNK         0.0568 
     99 H99       -59.8496  -30.1923   12.1622 H         1 UNK         0.3450 
    100 H100      -59.2508  -28.6333   12.6711 H         1 UNK         0.3450 
    101 H101      -57.8869  -26.1948   11.7338 H         1 UNK         0.2987 
    102 H102      -55.9309  -25.7090   13.2454 H         1 UNK         0.0766 
    103 H103      -57.3268  -25.6467   15.3407 H         1 UNK         0.0798 
    104 H104      -58.0086  -27.2207   14.9365 H         1 UNK         0.0798 
    105 H105      -58.3315  -25.8240   13.9186 H         1 UNK         0.0798 
    106 H106      -55.6199  -27.5822   15.4401 H         1 UNK         0.3198 
    107 H107      -53.7396  -28.3982   16.1148 H         1 UNK         0.0843 
    108 H108      -51.3899  -28.4491   14.1536 H         1 UNK         0.0831 
    109 H109      -52.6514  -29.6697   14.2407 H         1 UNK         0.0831 
    110 H110      -51.5736  -29.4198   15.6071 H         1 UNK         0.0831 
    111 H111      -51.5301  -26.4770   15.5737 H         1 UNK         0.3133 
    112 H112      -52.2582  -24.1067   17.0428 H         1 UNK         0.0566 
    113 H113      -51.5146  -23.7602   19.4125 H         1 UNK         0.0814 
    114 H114      -53.1647  -24.3485   19.3092 H         1 UNK         0.0814 
    115 H115      -51.8763  -25.4498   19.7669 H         1 UNK         0.0814 
    116 H116      -50.1500  -24.4548   16.5992 H         1 UNK         0.3091 
    117 H117      -47.5019  -25.8777   18.0605 H         1 UNK         0.0702 
    118 H118      -47.9661  -28.1706   17.2304 H         1 UNK         0.0785 
    119 H119      -48.5216  -27.5330   15.6896 H         1 UNK         0.0785 
    120 H120      -46.8332  -27.3591   16.1618 H         1 UNK         0.0785 
    121 H121      -47.9845  -25.1641   15.2752 H         1 UNK         0.2998 
    122 H122      -47.8079  -21.6471   15.8318 H         1 UNK         0.0697 
    123 H123      -45.8527  -23.5344   14.4136 H         1 UNK         0.0825 
    124 H124      -45.4237  -22.3284   15.6172 H         1 UNK         0.0825 
    125 H125      -46.0671  -21.8206   14.0634 H         1 UNK         0.0825 
    126 H126      -48.1576  -23.0926   13.4256 H         1 UNK         0.3029 
    127 H127      -51.7172  -23.5979   13.7068 H         1 UNK         0.0897 
    128 H128      -51.5899  -22.4769   11.5023 H         1 UNK         0.0792 
    129 H129      -49.9610  -21.9028   11.8513 H         1 UNK         0.0792 
    130 H130      -51.3261  -21.3066   12.7854 H         1 UNK         0.0792 
    131 H131      -50.0148  -24.4332   11.6451 H         1 UNK         0.3086 
    132 H132      -49.0739  -27.6221   13.0785 H         1 UNK         0.0583 
    133 H133      -51.2994  -27.7411   11.9544 H         1 UNK         0.1020 
    134 H134      -50.7387  -26.6966   10.6821 H         1 UNK         0.1020 
    135 H135      -51.0923  -30.7174    9.6609 H         1 UNK         0.0694 
    136 H136      -51.9020  -29.9352   10.9937 H         1 UNK         0.0694 
    137 H137      -48.1502  -26.3806   10.7092 H         1 UNK         0.2989 
    138 H138      -45.4371  -24.5338   12.1337 H         1 UNK         0.1055 
    139 H139      -44.5105  -26.7870   11.7744 H         1 UNK         0.0806 
    140 H140      -44.2484  -25.8173   10.3338 H         1 UNK         0.0806 
    141 H141      -45.5221  -27.0374   10.3631 H         1 UNK         0.0806 
    142 H142      -46.6270  -24.9170    9.4982 H         1 UNK         0.3061 
    143 H143      -48.6771  -22.0012    9.6575 H         1 UNK         0.0734 
    144 H144      -47.3450  -21.3447    7.6708 H         1 UNK         0.0832 
    145 H145      -46.4138  -21.0853    9.1358 H         1 UNK         0.0832 
    146 H146      -46.0659  -22.4752    8.1179 H         1 UNK         0.0832 
    147 H147      -48.0744  -23.8452    7.5471 H         1 UNK         0.3156 
    148 H148      -50.4804  -26.3201    8.3737 H         1 UNK         0.0589 
    149 H149      -50.6455  -24.1735    6.1910 H         1 UNK         0.0808 
    150 H150      -51.4536  -25.7406    6.1710 H         1 UNK         0.0808 
    151 H151      -51.9047  -24.5404    7.3641 H         1 UNK         0.0808 
    152 H152      -49.0248  -26.1678    6.0360 H         1 UNK         0.3098 
    153 H153      -46.3594  -26.4418    6.0599 H         1 UNK         0.0720 
    154 H154      -44.9623  -28.4817    6.5240 H         1 UNK         0.0791 
    155 H155      -46.0227  -28.8850    7.8743 H         1 UNK         0.0791 
    156 H156      -45.0779  -27.4056    7.9065 H         1 UNK         0.0791 
    157 H157      -47.3849  -27.7297    4.5934 H         1 UNK         0.3028 
@<TRIPOS>BOND
     1    1    2 1    
     2    1   82 1    
     3    1   83 1    
     4    1   84 1    
     5    2    3 2    
     6    2    4 am   BACKBONE|DICT|INTERRES
     7    4    5 1    
     8    4   85 1    
     9    5    6 1    
    10    5   80 1    
    11    5   86 1    
    12    6    7 1    
    13    6   87 1    
    14    6   88 1    
    15    7    8 1    
    16    8    9 1    
    17    8   89 1    
    18    8   90 1    
    19    9   10 ar   
    20    9   14 ar   
    21   10   11 ar   
    22   10   91 1    
    23   11   12 ar   
    24   11   58 1    
    25   12   13 ar   
    26   12   92 1    
    27   13   14 ar   
    28   13   15 1    
    29   14   93 1    
    30   15   16 1    
    31   15   94 1    
    32   15   95 1    
    33   16   17 1    
    34   17   18 1    
    35   17   96 1    
    36   17   97 1    
    37   18   19 1    
    38   18   22 1    
    39   18   98 1    
    40   19   20 am   BACKBONE|DICT|INTERRES
    41   19   21 2    
    42   20   99 1    
    43   20  100 1    
    44   22   23 am   BACKBONE|DICT|INTERRES
    45   22  101 1    
    46   23   24 2    
    47   23   25 1    
    48   25   26 1    
    49   25   27 1    
    50   25  102 1    
    51   26  103 1    
    52   26  104 1    
    53   26  105 1    
    54   27   28 am   BACKBONE|DICT|INTERRES
    55   27  106 1    
    56   28   29 2    
    57   28   30 1    
    58   30   31 1    
    59   30   32 1    
    60   30  107 1    
    61   31  108 1    
    62   31  109 1    
    63   31  110 1    
    64   32   33 am   BACKBONE|DICT|INTERRES
    65   32  111 1    
    66   33   34 2    
    67   33   35 1    
    68   35   36 1    
    69   35   37 1    
    70   35  112 1    
    71   36  113 1    
    72   36  114 1    
    73   36  115 1    
    74   37   38 am   BACKBONE|DICT|INTERRES
    75   37  116 1    
    76   38   39 2    
    77   38   40 1    
    78   40   41 1    
    79   40   42 1    
    80   40  117 1    
    81   41  118 1    
    82   41  119 1    
    83   41  120 1    
    84   42   43 am   BACKBONE|DICT|INTERRES
    85   42  121 1    
    86   43   44 2    
    87   43   45 1    
    88   45   46 1    
    89   45   47 1    
    90   45  122 1    
    91   46  123 1    
    92   46  124 1    
    93   46  125 1    
    94   47   48 am   BACKBONE|DICT|INTERRES
    95   47  126 1    
    96   48   49 2    
    97   48   50 1    
    98   50   51 1    
    99   50   52 1    
   100   50  127 1    
   101   51  128 1    
   102   51  129 1    
   103   51  130 1    
   104   52   53 am   BACKBONE|DICT|INTERRES
   105   52  131 1    
   106   53   54 2    
   107   53   55 1    
   108   55   56 1    
   109   55   59 1    
   110   55  132 1    
   111   56   57 1    
   112   56  133 1    
   113   56  134 1    
   114   57   58 1    
   115   58  135 1    
   116   58  136 1    
   117   59   60 am   BACKBONE|DICT|INTERRES
   118   59  137 1    
   119   60   61 2    
   120   60   62 1    
   121   62   63 1    
   122   62   64 1    
   123   62  138 1    
   124   63  139 1    
   125   63  140 1    
   126   63  141 1    
   127   64   65 am   BACKBONE|DICT|INTERRES
   128   64  142 1    
   129   65   66 2    
   130   65   67 1    
   131   67   68 1    
   132   67   69 1    
   133   67  143 1    
   134   68  144 1    
   135   68  145 1    
   136   68  146 1    
   137   69   70 am   BACKBONE|DICT|INTERRES
   138   69  147 1    
   139   70   71 2    
   140   70   72 1    
   141   72   73 1    
   142   72   74 1    
   143   72  148 1    
   144   73  149 1    
   145   73  150 1    
   146   73  151 1    
   147   74   75 am   BACKBONE|DICT|INTERRES
   148   74  152 1    
   149   75   76 2    
   150   75   77 1    
   151   77   78 1    
   152   77   79 1    
   153   77  153 1    
   154   78  154 1    
   155   78  155 1    
   156   78  156 1    
   157   79   80 am   BACKBONE|DICT|INTERRES
   158   79  157 1    
   159   80   81 2    
@<TRIPOS>SUBSTRUCTURE
     1 UNK         1 GROUP             0       ****    0 ROOT    
