@<TRIPOS>MOLECULE
3R207
157   159    1
SMALL
USER_CHARGES


@<TRIPOS>ATOM
      1 CA        -47.7445  -28.9810    5.6242 C.3       0 UNK        -0.1975 
      2 C         -48.2040  -27.5382    5.7800 C.2       0 UNK         0.4852 
      3 O         -47.5099  -26.6190    5.3395 O.2       0 UNK        -0.5216 
      4 N         -49.3843  -27.3444    6.3818 N.am      1 UNK        -0.4461 
      5 CA        -50.0953  -26.0680    6.4993 C.3       1 UNK         0.0864 
      6 C6        -51.4917  -26.2285    7.1504 C.3       14 UNK        -0.0898 
      7 S7        -52.5211  -27.4720    6.2892 S.3       14 UNK        -0.2598 
      8 C8        -53.5171  -28.1978    7.6423 C.3       14 UNK         0.0286 
      9 C9        -52.6994  -28.6660    8.8437 C.ar      14 UNK        -0.0844 
     10 C10       -51.4807  -29.3316    8.6765 C.ar      14 UNK        -0.0881 
     11 C11       -50.6956  -29.6693    9.7812 C.ar      14 UNK        -0.0643 
     12 C12       -51.1688  -29.4020   11.0685 C.ar      14 UNK        -0.0930 
     13 C13       -52.3988  -28.7635   11.2525 C.ar      14 UNK        -0.0827 
     14 C14       -53.1567  -28.3961   10.1366 C.ar      14 UNK        -0.1249 
     15 C15       -52.8868  -28.4120   12.6512 C.3       14 UNK         0.0141 
     16 S16       -53.2738  -29.8732   13.6655 S.3       14 UNK        -0.2313 
     17 C17       -54.6291  -30.6613   12.7290 C.3       14 UNK        -0.0915 
     18 CA        -56.0630  -30.3072   13.2085 C.3       13 UNK         0.0968 
     19 C         -56.3956  -30.8078   14.6449 C.2       13 UNK         0.5732 
     20 N         -57.0711  -30.0330   15.4869 N.am      13 UNK        -0.7310 
     21 O         -56.0619  -31.9364   14.9979 O.2       13 UNK        -0.5035 
     22 N         -56.3801  -28.8877   12.9858 N.am      13 UNK        -0.4233 
     23 C         -57.4776  -28.4416   12.3612 C.2       13 UNK         0.4989 
     24 O         -58.3060  -29.1800   11.8243 O.2       13 UNK        -0.4996 
     25 CA        -57.6916  -26.9124   12.3298 C.3       12 UNK         0.0216 
     26 CB        -59.1616  -26.5270   12.0562 C.3       12 UNK        -0.1964 
     27 N         -57.2018  -26.2070   13.5227 N.am      12 UNK        -0.4276 
     28 C         -57.5322  -26.4444   14.8002 C.2       12 UNK         0.5020 
     29 O         -58.2686  -27.3610   15.1712 O.2       12 UNK        -0.5489 
     30 CA        -56.8913  -25.5219   15.8501 C.3       11 UNK         0.0294 
     31 CB        -57.9526  -24.9389   16.7990 C.3       11 UNK        -0.2019 
     32 N         -55.8743  -26.2259   16.6333 N.am      11 UNK        -0.4493 
     33 C         -54.7466  -26.7426   16.1308 C.2       11 UNK         0.4932 
     34 O         -54.4370  -26.6925   14.9385 O.2       11 UNK        -0.5029 
     35 CA        -53.8143  -27.4382   17.1251 C.3       10 UNK         0.0280 
     36 CB        -54.2591  -28.8928   17.3710 C.3       10 UNK        -0.1976 
     37 N         -52.4597  -27.3900   16.5841 N.am      10 UNK        -0.4242 
     38 C         -51.3341  -27.6394   17.2606 C.2       10 UNK         0.5072 
     39 O         -51.3038  -27.9805   18.4444 O.2       10 UNK        -0.5224 
     40 CA        -50.0098  -27.4731   16.4954 C.3       9 UNK         0.0343 
     41 CB        -49.6744  -28.7614   15.7262 C.3       9 UNK        -0.2003 
     42 N         -49.9782  -26.3219   15.5829 N.am      9 UNK        -0.4272 
     43 C         -50.0550  -25.0387   15.9768 C.2       9 UNK         0.4988 
     44 O         -50.2241  -24.7030   17.1499 O.2       9 UNK        -0.5108 
     45 CA        -49.8777  -23.9243   14.9239 C.3       8 UNK         0.0248 
     46 CB        -48.5415  -23.1927   15.1388 C.3       8 UNK        -0.2001 
     47 N         -49.9326  -24.3861   13.5377 N.am      8 UNK        -0.4140 
     48 C         -51.0501  -24.7293   12.8828 C.2       8 UNK         0.5028 
     49 O         -52.1777  -24.6367   13.3658 O.2       8 UNK        -0.5428 
     50 CA        -50.8866  -25.2757   11.4484 C.3       7 UNK         0.0264 
     51 CB        -51.1122  -24.1358   10.4412 C.3       7 UNK        -0.1988 
     52 N         -49.5939  -25.9192   11.1666 N.am      7 UNK        -0.4454 
     53 C         -49.0067  -26.8744   11.9098 C.2       7 UNK         0.5027 
     54 O         -49.5258  -27.3712   12.9078 O.2       7 UNK        -0.5083 
     55 CA        -47.5621  -27.2827   11.5612 C.3       6 UNK         0.0844 
     56 C56       -47.4481  -28.7345   11.0355 C.3       14 UNK        -0.0967 
     57 S57       -48.0524  -29.0019    9.3336 S.3       14 UNK        -0.2604 
     58 C58       -49.3245  -30.2885    9.5676 C.3       14 UNK         0.0134 
     59 N         -46.8798  -26.2969   10.7194 N.am      6 UNK        -0.4116 
     60 C         -46.4973  -25.0806   11.1385 C.2       5 UNK         0.5034 
     61 O         -46.6632  -24.6815   12.2929 O.2       5 UNK        -0.5045 
     62 CA        -45.8841  -24.1285   10.0959 C.3       5 UNK         0.0224 
     63 CB        -44.7612  -23.2469   10.6816 C.3       5 UNK        -0.1978 
     64 N         -45.4568  -24.7945    8.8602 N.am      5 UNK        -0.4737 
     65 C         -44.4433  -25.6541    8.6799 C.2       4 UNK         0.5027 
     66 O         -43.6787  -26.0202    9.5717 O.2       4 UNK        -0.5211 
     67 CA        -44.2763  -26.2309    7.2618 C.3       4 UNK         0.0297 
     68 CB        -44.7523  -27.6899    7.2357 C.3       4 UNK        -0.1993 
     69 N         -45.0142  -25.4588    6.2541 N.am      4 UNK        -0.4486 
     70 C         -44.5751  -24.3051    5.7303 C.2       3 UNK         0.4961 
     71 O         -43.4553  -23.8373    5.9382 O.2       3 UNK        -0.5105 
     72 CA        -45.5740  -23.5163    4.8701 C.3       3 UNK         0.0299 
     73 CB        -45.7386  -24.1546    3.4810 C.3       3 UNK        -0.1972 
     74 N         -46.8803  -23.3884    5.5236 N.am      3 UNK        -0.4305 
     75 C         -47.1235  -22.6231    6.6011 C.2       2 UNK         0.5006 
     76 O         -46.2677  -21.9297    7.1495 O.2       2 UNK        -0.5106 
     77 CA        -48.5525  -22.6196    7.1779 C.3       2 UNK         0.0296 
     78 CB        -49.2794  -21.3168    6.8066 C.3       2 UNK        -0.2002 
     79 N         -49.3528  -23.7580    6.7269 N.am      2 UNK        -0.4032 
     80 C         -49.2661  -24.9946    7.2327 C.2       1 UNK         0.5000 
     81 O         -48.5840  -25.2915    8.2198 O.2       1 UNK        -0.5238 
     82 H82       -48.5911  -29.6674    5.6102 H         1 UNK         0.0889 
     83 H83       -47.0890  -29.2724    6.4423 H         1 UNK         0.0889 
     84 H84       -47.1990  -29.1044    4.6890 H         1 UNK         0.0889 
     85 H85       -49.8783  -28.1370    6.7609 H         1 UNK         0.3028 
     86 H86       -50.2488  -25.7224    5.4746 H         1 UNK         0.0864 
     87 H87       -51.3792  -26.4997    8.2005 H         1 UNK         0.0720 
     88 H88       -52.0345  -25.2815    7.1368 H         1 UNK         0.0720 
     89 H89       -54.0800  -29.0453    7.2496 H         1 UNK         0.0814 
     90 H90       -54.2543  -27.4554    7.9522 H         1 UNK         0.0814 
     91 H91       -51.1213  -29.5511    7.6817 H         1 UNK         0.1469 
     92 H92       -50.5688  -29.6605   11.9301 H         1 UNK         0.1381 
     93 H93       -54.0977  -27.8818   10.2759 H         1 UNK         0.1206 
     94 H94       -53.7640  -27.7670   12.6007 H         1 UNK         0.0813 
     95 H95       -52.1200  -27.8301   13.1626 H         1 UNK         0.0813 
     96 H96       -54.4771  -31.7404   12.7843 H         1 UNK         0.0638 
     97 H97       -54.5309  -30.4190   11.6709 H         1 UNK         0.0638 
     98 H98       -56.7230  -30.9074   12.5805 H         1 UNK         0.0568 
     99 H99       -57.2889  -30.3902   16.4025 H         1 UNK         0.3450 
    100 H100      -57.4170  -29.1187   15.2127 H         1 UNK         0.3450 
    101 H101      -55.7694  -28.2241   13.4431 H         1 UNK         0.2987 
    102 H102      -57.0943  -26.5473   11.4931 H         1 UNK         0.0766 
    103 H103      -59.2861  -25.4453   12.0057 H         1 UNK         0.0798 
    104 H104      -59.8274  -26.9050   12.8330 H         1 UNK         0.0798 
    105 H105      -59.5062  -26.9338   11.1046 H         1 UNK         0.0798 
    106 H106      -56.5278  -25.4741   13.3445 H         1 UNK         0.3198 
    107 H107      -56.4038  -24.6882   15.3398 H         1 UNK         0.0843 
    108 H108      -58.4515  -25.7179   17.3772 H         1 UNK         0.0831 
    109 H109      -58.7232  -24.4063   16.2400 H         1 UNK         0.0831 
    110 H110      -57.5134  -24.2288   17.4999 H         1 UNK         0.0831 
    111 H111      -56.0669  -26.3454   17.6175 H         1 UNK         0.3133 
    112 H112      -53.8338  -26.8843   18.0659 H         1 UNK         0.0566 
    113 H113      -54.2095  -29.4874   16.4592 H         1 UNK         0.0814 
    114 H114      -53.6385  -29.3826   18.1210 H         1 UNK         0.0814 
    115 H115      -55.2878  -28.9344   17.7304 H         1 UNK         0.0814 
    116 H116      -52.4117  -27.0882   15.6179 H         1 UNK         0.3091 
    117 H117      -49.2251  -27.3159   17.2384 H         1 UNK         0.0702 
    118 H118      -48.6951  -28.6976   15.2517 H         1 UNK         0.0785 
    119 H119      -50.4104  -28.9702   14.9486 H         1 UNK         0.0785 
    120 H120      -49.6548  -29.6227   16.3952 H         1 UNK         0.0785 
    121 H121      -49.8404  -26.5346   14.5980 H         1 UNK         0.2998 
    122 H122      -50.6862  -23.2064   15.0772 H         1 UNK         0.0697 
    123 H123      -47.6895  -23.8571   14.9872 H         1 UNK         0.0825 
    124 H124      -48.4690  -22.7949   16.1521 H         1 UNK         0.0825 
    125 H125      -48.4347  -22.3506   14.4547 H         1 UNK         0.0825 
    126 H126      -49.0458  -24.4987   13.0643 H         1 UNK         0.3029 
    127 H127      -51.6632  -26.0263   11.2985 H         1 UNK         0.0897 
    128 H128      -52.0516  -23.6172   10.6388 H         1 UNK         0.0792 
    129 H129      -51.1671  -24.5077    9.4215 H         1 UNK         0.0792 
    130 H130      -50.3139  -23.3939   10.4848 H         1 UNK         0.0792 
    131 H131      -49.1103  -25.6130   10.3295 H         1 UNK         0.3086 
    132 H132      -47.0349  -27.2782   12.5181 H         1 UNK         0.0583 
    133 H133      -46.3989  -29.0335   11.0523 H         1 UNK         0.1020 
    134 H134      -47.9466  -29.4190   11.7241 H         1 UNK         0.1020 
    135 H135      -49.3444  -30.9206    8.6785 H         1 UNK         0.0694 
    136 H136      -49.0617  -30.9476   10.3960 H         1 UNK         0.0694 
    137 H137      -46.7774  -26.5295    9.7418 H         1 UNK         0.2989 
    138 H138      -46.6966  -23.4616    9.8049 H         1 UNK         0.1055 
    139 H139      -45.1344  -22.6299   11.5000 H         1 UNK         0.0806 
    140 H140      -44.3562  -22.5711    9.9281 H         1 UNK         0.0806 
    141 H141      -43.9389  -23.8434   11.0770 H         1 UNK         0.0806 
    142 H142      -46.0338  -24.6054    8.0526 H         1 UNK         0.3061 
    143 H143      -43.2127  -26.2135    7.0144 H         1 UNK         0.0734 
    144 H144      -44.7069  -28.1105    6.2310 H         1 UNK         0.0832 
    145 H145      -44.1296  -28.3134    7.8786 H         1 UNK         0.0832 
    146 H146      -45.7757  -27.7766    7.5990 H         1 UNK         0.0832 
    147 H147      -45.9341  -25.8040    5.9828 H         1 UNK         0.3156 
    148 H148      -45.1696  -22.5116    4.7282 H         1 UNK         0.0589 
    149 H149      -46.1620  -25.1577    3.5377 H         1 UNK         0.0808 
    150 H150      -46.3868  -23.5534    2.8432 H         1 UNK         0.0808 
    151 H151      -44.7756  -24.2372    2.9753 H         1 UNK         0.0808 
    152 H152      -47.6266  -23.9580    5.1518 H         1 UNK         0.3098 
    153 H153      -48.4690  -22.6597    8.2660 H         1 UNK         0.0720 
    154 H154      -50.2702  -21.2727    7.2594 H         1 UNK         0.0791 
    155 H155      -49.3969  -21.2110    5.7273 H         1 UNK         0.0791 
    156 H156      -48.7252  -20.4462    7.1605 H         1 UNK         0.0791 
    157 H157      -49.9618  -23.5925    5.9378 H         1 UNK         0.3028 
@<TRIPOS>BOND
     1    1    2 1    
     2    1   82 1    
     3    1   83 1    
     4    1   84 1    
     5    2    3 2    
     6    2    4 am   BACKBONE|DICT|INTERRES
     7    4    5 1    
     8    4   85 1    
     9    5    6 1    
    10    5   80 1    
    11    5   86 1    
    12    6    7 1    
    13    6   87 1    
    14    6   88 1    
    15    7    8 1    
    16    8    9 1    
    17    8   89 1    
    18    8   90 1    
    19    9   10 ar   
    20    9   14 ar   
    21   10   11 ar   
    22   10   91 1    
    23   11   12 ar   
    24   11   58 1    
    25   12   13 ar   
    26   12   92 1    
    27   13   14 ar   
    28   13   15 1    
    29   14   93 1    
    30   15   16 1    
    31   15   94 1    
    32   15   95 1    
    33   16   17 1    
    34   17   18 1    
    35   17   96 1    
    36   17   97 1    
    37   18   19 1    
    38   18   22 1    
    39   18   98 1    
    40   19   20 am   BACKBONE|DICT|INTERRES
    41   19   21 2    
    42   20   99 1    
    43   20  100 1    
    44   22   23 am   BACKBONE|DICT|INTERRES
    45   22  101 1    
    46   23   24 2    
    47   23   25 1    
    48   25   26 1    
    49   25   27 1    
    50   25  102 1    
    51   26  103 1    
    52   26  104 1    
    53   26  105 1    
    54   27   28 am   BACKBONE|DICT|INTERRES
    55   27  106 1    
    56   28   29 2    
    57   28   30 1    
    58   30   31 1    
    59   30   32 1    
    60   30  107 1    
    61   31  108 1    
    62   31  109 1    
    63   31  110 1    
    64   32   33 am   BACKBONE|DICT|INTERRES
    65   32  111 1    
    66   33   34 2    
    67   33   35 1    
    68   35   36 1    
    69   35   37 1    
    70   35  112 1    
    71   36  113 1    
    72   36  114 1    
    73   36  115 1    
    74   37   38 am   BACKBONE|DICT|INTERRES
    75   37  116 1    
    76   38   39 2    
    77   38   40 1    
    78   40   41 1    
    79   40   42 1    
    80   40  117 1    
    81   41  118 1    
    82   41  119 1    
    83   41  120 1    
    84   42   43 am   BACKBONE|DICT|INTERRES
    85   42  121 1    
    86   43   44 2    
    87   43   45 1    
    88   45   46 1    
    89   45   47 1    
    90   45  122 1    
    91   46  123 1    
    92   46  124 1    
    93   46  125 1    
    94   47   48 am   BACKBONE|DICT|INTERRES
    95   47  126 1    
    96   48   49 2    
    97   48   50 1    
    98   50   51 1    
    99   50   52 1    
   100   50  127 1    
   101   51  128 1    
   102   51  129 1    
   103   51  130 1    
   104   52   53 am   BACKBONE|DICT|INTERRES
   105   52  131 1    
   106   53   54 2    
   107   53   55 1    
   108   55   56 1    
   109   55   59 1    
   110   55  132 1    
   111   56   57 1    
   112   56  133 1    
   113   56  134 1    
   114   57   58 1    
   115   58  135 1    
   116   58  136 1    
   117   59   60 am   BACKBONE|DICT|INTERRES
   118   59  137 1    
   119   60   61 2    
   120   60   62 1    
   121   62   63 1    
   122   62   64 1    
   123   62  138 1    
   124   63  139 1    
   125   63  140 1    
   126   63  141 1    
   127   64   65 am   BACKBONE|DICT|INTERRES
   128   64  142 1    
   129   65   66 2    
   130   65   67 1    
   131   67   68 1    
   132   67   69 1    
   133   67  143 1    
   134   68  144 1    
   135   68  145 1    
   136   68  146 1    
   137   69   70 am   BACKBONE|DICT|INTERRES
   138   69  147 1    
   139   70   71 2    
   140   70   72 1    
   141   72   73 1    
   142   72   74 1    
   143   72  148 1    
   144   73  149 1    
   145   73  150 1    
   146   73  151 1    
   147   74   75 am   BACKBONE|DICT|INTERRES
   148   74  152 1    
   149   75   76 2    
   150   75   77 1    
   151   77   78 1    
   152   77   79 1    
   153   77  153 1    
   154   78  154 1    
   155   78  155 1    
   156   78  156 1    
   157   79   80 am   BACKBONE|DICT|INTERRES
   158   79  157 1    
   159   80   81 2    
@<TRIPOS>SUBSTRUCTURE
     1 UNK         1 GROUP             0       ****    0 ROOT    
