@<TRIPOS>MOLECULE
3R207
157   159    1
SMALL
USER_CHARGES


@<TRIPOS>ATOM
      1 CA        -50.8086  -30.2117    2.9691 C.3       0 UNK        -0.1975 
      2 C         -49.8212  -29.4787    3.8644 C.2       0 UNK         0.4852 
      3 O         -48.6287  -29.7841    3.8351 O.2       0 UNK        -0.5216 
      4 N         -50.3045  -28.4959    4.6381 N.am      1 UNK        -0.4461 
      5 CA        -49.5959  -27.6803    5.6430 C.3       1 UNK         0.0864 
      6 C6        -48.9707  -28.5064    6.8004 C.3       14 UNK        -0.0898 
      7 S7        -50.1731  -29.5711    7.6686 S.3       14 UNK        -0.2598 
      8 C8        -50.4002  -28.6926    9.2471 C.3       14 UNK         0.0286 
      9 C9        -51.4865  -27.6317    9.1553 C.ar      14 UNK        -0.0844 
     10 C10       -51.1950  -26.3539    8.6719 C.ar      14 UNK        -0.0881 
     11 C11       -52.1915  -25.3736    8.6041 C.ar      14 UNK        -0.0643 
     12 C12       -53.4815  -25.6777    9.0528 C.ar      14 UNK        -0.0930 
     13 C13       -53.7901  -26.9548    9.5344 C.ar      14 UNK        -0.0827 
     14 C14       -52.7879  -27.9291    9.5682 C.ar      14 UNK        -0.1249 
     15 C15       -55.2152  -27.2876    9.9691 C.3       14 UNK         0.0141 
     16 S16       -55.3572  -27.6026   11.7614 S.3       14 UNK        -0.2313 
     17 C17       -54.9163  -29.3686   11.8751 C.3       14 UNK        -0.0915 
     18 CA        -55.8656  -30.1810   12.7951 C.3       13 UNK         0.0968 
     19 C         -55.7310  -31.7011   12.4750 C.2       13 UNK         0.5732 
     20 N         -55.0507  -32.4967   13.2928 N.am      13 UNK        -0.7310 
     21 O         -56.2567  -32.1637   11.4653 O.2       13 UNK        -0.5035 
     22 N         -55.6802  -29.8433   14.2207 N.am      13 UNK        -0.4233 
     23 C         -56.4881  -30.2788   15.1990 C.2       13 UNK         0.4989 
     24 O         -57.5585  -30.8506   14.9863 O.2       13 UNK        -0.4996 
     25 CA        -56.0352  -30.1039   16.6565 C.3       12 UNK         0.0216 
     26 CB        -55.1076  -31.2583   17.0773 C.3       12 UNK        -0.1964 
     27 N         -55.3839  -28.8213   16.9353 N.am      12 UNK        -0.4276 
     28 C         -55.5242  -28.1515   18.0915 C.2       12 UNK         0.5020 
     29 O         -56.2361  -28.5402   19.0195 O.2       12 UNK        -0.5489 
     30 CA        -54.7425  -26.8346   18.2789 C.3       11 UNK         0.0294 
     31 CB        -53.5333  -27.0569   19.2018 C.3       11 UNK        -0.2019 
     32 N         -54.2791  -26.2398   17.0268 N.am      11 UNK        -0.4493 
     33 C         -55.0808  -25.7292   16.0826 C.2       11 UNK         0.4932 
     34 O         -56.2944  -25.5814   16.2302 O.2       11 UNK        -0.5029 
     35 CA        -54.4417  -25.3469   14.7350 C.3       10 UNK         0.0280 
     36 CB        -54.3909  -23.8174   14.5879 C.3       10 UNK        -0.1976 
     37 N         -53.1074  -25.9115   14.4789 N.am      10 UNK        -0.4242 
     38 C         -52.7817  -27.2150   14.4857 C.2       10 UNK         0.5072 
     39 O         -53.5718  -28.1194   14.7638 O.2       10 UNK        -0.5224 
     40 CA        -51.3181  -27.5828   14.1940 C.3       9 UNK         0.0343 
     41 CB        -51.0882  -27.7412   12.6853 C.3       9 UNK        -0.2003 
     42 N         -50.3403  -26.6403   14.7407 N.am      9 UNK        -0.4272 
     43 C         -50.1755  -26.3674   16.0440 C.2       9 UNK         0.4988 
     44 O         -50.8903  -26.8207   16.9383 O.2       9 UNK        -0.5108 
     45 CA        -49.0163  -25.4294   16.4075 C.3       8 UNK         0.0248 
     46 CB        -47.6704  -26.1693   16.3261 C.3       8 UNK        -0.2001 
     47 N         -48.9932  -24.2691   15.5188 N.am      8 UNK        -0.4140 
     48 C         -49.6354  -23.1192   15.7642 C.2       8 UNK         0.5028 
     49 O         -50.2229  -22.8707   16.8179 O.2       8 UNK        -0.5428 
     50 CA        -49.6376  -22.0636   14.6427 C.3       7 UNK         0.0264 
     51 CB        -48.4731  -21.0777   14.8297 C.3       7 UNK        -0.1988 
     52 N         -49.5836  -22.6239   13.2882 N.am      7 UNK        -0.4454 
     53 C         -50.5146  -23.4287   12.7540 C.2       7 UNK         0.5027 
     54 O         -51.5122  -23.8167   13.3578 O.2       7 UNK        -0.5083 
     55 CA        -50.2707  -23.9176   11.3154 C.3       6 UNK         0.0844 
     56 C56       -50.7523  -22.8471   10.3029 C.3       14 UNK        -0.0967 
     57 S57       -50.3485  -23.2534    8.5690 S.3       14 UNK        -0.2604 
     58 C58       -51.9042  -24.0056    7.9919 C.3       14 UNK         0.0134 
     59 N         -48.8930  -24.3436   11.0536 N.am      6 UNK        -0.4116 
     60 C         -48.1086  -25.1502   11.7812 C.2       5 UNK         0.5034 
     61 O         -48.4143  -25.5840   12.8934 O.2       5 UNK        -0.5045 
     62 CA        -46.7579  -25.5599   11.1574 C.3       5 UNK         0.0224 
     63 CB        -46.5618  -27.0847   11.2258 C.3       5 UNK        -0.1978 
     64 N         -46.5964  -25.1284    9.7619 N.am      5 UNK        -0.4737 
     65 C         -46.2719  -23.8915    9.3606 C.2       4 UNK         0.5027 
     66 O         -46.0545  -22.9637   10.1402 O.2       4 UNK        -0.5211 
     67 CA        -46.2395  -23.6530    7.8382 C.3       4 UNK         0.0297 
     68 CB        -45.4395  -22.3943    7.4404 C.3       4 UNK        -0.1993 
     69 N         -45.8009  -24.8289    7.0750 N.am      4 UNK        -0.4486 
     70 C         -44.5899  -25.4126    7.1067 C.2       3 UNK         0.4961 
     71 O         -43.6604  -25.0245    7.8147 O.2       3 UNK        -0.5105 
     72 CA        -44.3649  -26.6520    6.2146 C.3       3 UNK         0.0299 
     73 CB        -44.3023  -27.9234    7.0782 C.3       3 UNK        -0.1972 
     74 N         -45.3849  -26.8375    5.1801 N.am      3 UNK        -0.4305 
     75 C         -45.5826  -26.0367    4.1225 C.2       2 UNK         0.5006 
     76 O         -44.8402  -25.1006    3.8251 O.2       2 UNK        -0.5106 
     77 CA        -46.8404  -26.2999    3.2711 C.3       2 UNK         0.0296 
     78 CB        -46.4670  -27.0226    1.9666 C.3       2 UNK        -0.2002 
     79 N         -47.8887  -27.0657    3.9577 N.am      2 UNK        -0.4032 
     80 C         -48.5438  -26.7034    5.0698 C.2       1 UNK         0.5000 
     81 O         -48.3155  -25.6526    5.6724 O.2       1 UNK        -0.5238 
     82 H82       -50.5219  -30.1005    1.9238 H         1 UNK         0.0889 
     83 H83       -51.8242  -29.8336    3.0851 H         1 UNK         0.0889 
     84 H84       -50.8133  -31.2743    3.2103 H         1 UNK         0.0889 
     85 H85       -51.2924  -28.2923    4.5735 H         1 UNK         0.3028 
     86 H86       -50.3700  -27.0449    6.0740 H         1 UNK         0.0864 
     87 H87       -48.4920  -27.8470    7.5264 H         1 UNK         0.0720 
     88 H88       -48.1752  -29.1509    6.4227 H         1 UNK         0.0720 
     89 H89       -49.4621  -28.2485    9.5808 H         1 UNK         0.0814 
     90 H90       -50.6657  -29.4258   10.0101 H         1 UNK         0.0814 
     91 H91       -50.1938  -26.1240    8.3357 H         1 UNK         0.1469 
     92 H92       -54.2563  -24.9251    9.0001 H         1 UNK         0.1381 
     93 H93       -53.0148  -28.9236    9.9220 H         1 UNK         0.1206 
     94 H94       -55.8834  -26.4611    9.7232 H         1 UNK         0.0813 
     95 H95       -55.5846  -28.1427    9.4017 H         1 UNK         0.0813 
     96 H96       -54.9286  -29.7828   10.8657 H         1 UNK         0.0638 
     97 H97       -53.8863  -29.4529   12.2225 H         1 UNK         0.0638 
     98 H98       -56.8911  -29.9136   12.5331 H         1 UNK         0.0568 
     99 H99       -54.9749  -33.4775   13.0744 H         1 UNK         0.3450 
    100 H100      -54.6045  -32.1265   14.1154 H         1 UNK         0.3450 
    101 H101      -54.8313  -29.3278   14.4434 H         1 UNK         0.2987 
    102 H102      -56.9468  -30.1759   17.2542 H         1 UNK         0.0766 
    103 H103      -55.5588  -32.2269   16.8568 H         1 UNK         0.0798 
    104 H104      -54.9076  -31.2332   18.1487 H         1 UNK         0.0798 
    105 H105      -54.1495  -31.2146   16.5582 H         1 UNK         0.0798 
    106 H106      -54.7786  -28.4386   16.2125 H         1 UNK         0.3198 
    107 H107      -55.4157  -26.1224   18.7609 H         1 UNK         0.0843 
    108 H108      -52.8240  -27.7655   18.7718 H         1 UNK         0.0831 
    109 H109      -53.8467  -27.4553   20.1679 H         1 UNK         0.0831 
    110 H110      -53.0012  -26.1250   19.3935 H         1 UNK         0.0831 
    111 H111      -53.2919  -26.3286   16.8211 H         1 UNK         0.3133 
    112 H112      -55.1062  -25.7323   13.9617 H         1 UNK         0.0566 
    113 H113      -54.1366  -23.5281   13.5683 H         1 UNK         0.0814 
    114 H114      -53.6545  -23.3729   15.2588 H         1 UNK         0.0814 
    115 H115      -55.3571  -23.3639   14.8138 H         1 UNK         0.0814 
    116 H116      -52.3924  -25.2394   14.2075 H         1 UNK         0.3091 
    117 H117      -51.1263  -28.5487   14.6656 H         1 UNK         0.0702 
    118 H118      -50.0537  -28.0020   12.4613 H         1 UNK         0.0785 
    119 H119      -51.3308  -26.8280   12.1432 H         1 UNK         0.0785 
    120 H120      -51.7162  -28.5340   12.2802 H         1 UNK         0.0785 
    121 H121      -49.6893  -26.2309   14.0751 H         1 UNK         0.2998 
    122 H122      -49.1566  -25.1032   17.4404 H         1 UNK         0.0697 
    123 H123      -47.4582  -26.5248   15.3169 H         1 UNK         0.0825 
    124 H124      -47.6638  -27.0381   16.9858 H         1 UNK         0.0825 
    125 H125      -46.8466  -25.5244   16.6325 H         1 UNK         0.0825 
    126 H126      -48.5797  -24.4087   14.6041 H         1 UNK         0.3029 
    127 H127      -50.5738  -21.5076   14.7285 H         1 UNK         0.0897 
    128 H128      -47.5055  -21.5700   14.7234 H         1 UNK         0.0792 
    129 H129      -48.5009  -20.6250   15.8220 H         1 UNK         0.0792 
    130 H130      -48.5194  -20.2649   14.1046 H         1 UNK         0.0792 
    131 H131      -48.7841  -22.3747   12.7232 H         1 UNK         0.3086 
    132 H132      -50.8897  -24.8036   11.1744 H         1 UNK         0.0583 
    133 H133      -51.8290  -22.6920   10.3979 H         1 UNK         0.1020 
    134 H134      -50.2920  -21.8804   10.5175 H         1 UNK         0.1020 
    135 H135      -52.7243  -23.3113    8.1815 H         1 UNK         0.0694 
    136 H136      -51.8469  -24.1230    6.9090 H         1 UNK         0.0694 
    137 H137      -48.5303  -24.0456   10.1605 H         1 UNK         0.2989 
    138 H138      -45.9783  -25.0888   11.7602 H         1 UNK         0.1055 
    139 H139      -45.5891  -27.3775   10.8299 H         1 UNK         0.0806 
    140 H140      -47.3283  -27.6174   10.6626 H         1 UNK         0.0806 
    141 H141      -46.6080  -27.4421   12.2556 H         1 UNK         0.0806 
    142 H142      -46.7606  -25.8254    9.0504 H         1 UNK         0.3061 
    143 H143      -47.2761  -23.4817    7.5435 H         1 UNK         0.0734 
    144 H144      -44.4020  -22.4503    7.7711 H         1 UNK         0.0832 
    145 H145      -45.4409  -22.2485    6.3602 H         1 UNK         0.0832 
    146 H146      -45.8730  -21.4990    7.8877 H         1 UNK         0.0832 
    147 H147      -46.5111  -25.2251    6.4654 H         1 UNK         0.3156 
    148 H148      -43.4008  -26.5250    5.7179 H         1 UNK         0.0589 
    149 H149      -44.0666  -28.8017    6.4770 H         1 UNK         0.0808 
    150 H150      -43.5267  -27.8400    7.8411 H         1 UNK         0.0808 
    151 H151      -45.2454  -28.1106    7.5935 H         1 UNK         0.0808 
    152 H152      -46.0305  -27.6010    5.3159 H         1 UNK         0.3098 
    153 H153      -47.2629  -25.3261    3.0157 H         1 UNK         0.0720 
    154 H154      -45.7077  -26.4671    1.4141 H         1 UNK         0.0791 
    155 H155      -47.3308  -27.1275    1.3098 H         1 UNK         0.0791 
    156 H156      -46.0680  -28.0195    2.1585 H         1 UNK         0.0791 
    157 H157      -48.0937  -27.9941    3.5965 H         1 UNK         0.3028 
@<TRIPOS>BOND
     1    1    2 1    
     2    1   82 1    
     3    1   83 1    
     4    1   84 1    
     5    2    3 2    
     6    2    4 am   BACKBONE|DICT|INTERRES
     7    4    5 1    
     8    4   85 1    
     9    5    6 1    
    10    5   80 1    
    11    5   86 1    
    12    6    7 1    
    13    6   87 1    
    14    6   88 1    
    15    7    8 1    
    16    8    9 1    
    17    8   89 1    
    18    8   90 1    
    19    9   10 ar   
    20    9   14 ar   
    21   10   11 ar   
    22   10   91 1    
    23   11   12 ar   
    24   11   58 1    
    25   12   13 ar   
    26   12   92 1    
    27   13   14 ar   
    28   13   15 1    
    29   14   93 1    
    30   15   16 1    
    31   15   94 1    
    32   15   95 1    
    33   16   17 1    
    34   17   18 1    
    35   17   96 1    
    36   17   97 1    
    37   18   19 1    
    38   18   22 1    
    39   18   98 1    
    40   19   20 am   BACKBONE|DICT|INTERRES
    41   19   21 2    
    42   20   99 1    
    43   20  100 1    
    44   22   23 am   BACKBONE|DICT|INTERRES
    45   22  101 1    
    46   23   24 2    
    47   23   25 1    
    48   25   26 1    
    49   25   27 1    
    50   25  102 1    
    51   26  103 1    
    52   26  104 1    
    53   26  105 1    
    54   27   28 am   BACKBONE|DICT|INTERRES
    55   27  106 1    
    56   28   29 2    
    57   28   30 1    
    58   30   31 1    
    59   30   32 1    
    60   30  107 1    
    61   31  108 1    
    62   31  109 1    
    63   31  110 1    
    64   32   33 am   BACKBONE|DICT|INTERRES
    65   32  111 1    
    66   33   34 2    
    67   33   35 1    
    68   35   36 1    
    69   35   37 1    
    70   35  112 1    
    71   36  113 1    
    72   36  114 1    
    73   36  115 1    
    74   37   38 am   BACKBONE|DICT|INTERRES
    75   37  116 1    
    76   38   39 2    
    77   38   40 1    
    78   40   41 1    
    79   40   42 1    
    80   40  117 1    
    81   41  118 1    
    82   41  119 1    
    83   41  120 1    
    84   42   43 am   BACKBONE|DICT|INTERRES
    85   42  121 1    
    86   43   44 2    
    87   43   45 1    
    88   45   46 1    
    89   45   47 1    
    90   45  122 1    
    91   46  123 1    
    92   46  124 1    
    93   46  125 1    
    94   47   48 am   BACKBONE|DICT|INTERRES
    95   47  126 1    
    96   48   49 2    
    97   48   50 1    
    98   50   51 1    
    99   50   52 1    
   100   50  127 1    
   101   51  128 1    
   102   51  129 1    
   103   51  130 1    
   104   52   53 am   BACKBONE|DICT|INTERRES
   105   52  131 1    
   106   53   54 2    
   107   53   55 1    
   108   55   56 1    
   109   55   59 1    
   110   55  132 1    
   111   56   57 1    
   112   56  133 1    
   113   56  134 1    
   114   57   58 1    
   115   58  135 1    
   116   58  136 1    
   117   59   60 am   BACKBONE|DICT|INTERRES
   118   59  137 1    
   119   60   61 2    
   120   60   62 1    
   121   62   63 1    
   122   62   64 1    
   123   62  138 1    
   124   63  139 1    
   125   63  140 1    
   126   63  141 1    
   127   64   65 am   BACKBONE|DICT|INTERRES
   128   64  142 1    
   129   65   66 2    
   130   65   67 1    
   131   67   68 1    
   132   67   69 1    
   133   67  143 1    
   134   68  144 1    
   135   68  145 1    
   136   68  146 1    
   137   69   70 am   BACKBONE|DICT|INTERRES
   138   69  147 1    
   139   70   71 2    
   140   70   72 1    
   141   72   73 1    
   142   72   74 1    
   143   72  148 1    
   144   73  149 1    
   145   73  150 1    
   146   73  151 1    
   147   74   75 am   BACKBONE|DICT|INTERRES
   148   74  152 1    
   149   75   76 2    
   150   75   77 1    
   151   77   78 1    
   152   77   79 1    
   153   77  153 1    
   154   78  154 1    
   155   78  155 1    
   156   78  156 1    
   157   79   80 am   BACKBONE|DICT|INTERRES
   158   79  157 1    
   159   80   81 2    
@<TRIPOS>SUBSTRUCTURE
     1 UNK         1 GROUP             0       ****    0 ROOT    
