@<TRIPOS>MOLECULE
3R207
157   159    1
SMALL
USER_CHARGES


@<TRIPOS>ATOM
      1 CA        -47.4705  -27.5028   10.6264 C.3       0 UNK        -0.1975 
      2 C         -48.8629  -27.5819   10.0063 C.2       0 UNK         0.4852 
      3 O         -49.8024  -27.0167   10.5571 O.2       0 UNK        -0.5216 
      4 N         -49.0474  -28.2532    8.8654 N.am      1 UNK        -0.4461 
      5 CA        -47.9980  -28.7425    7.9644 C.3       1 UNK         0.0864 
      6 C6        -48.4739  -29.9663    7.1444 C.3       14 UNK        -0.0898 
      7 S7        -48.9377  -31.3528    8.2379 S.3       14 UNK        -0.2598 
      8 C8        -50.6360  -31.7266    7.7016 C.3       14 UNK         0.0286 
      9 C9        -51.6145  -30.5929    7.9806 C.ar      14 UNK        -0.0844 
     10 C10       -52.0528  -29.7750    6.9356 C.ar      14 UNK        -0.0881 
     11 C11       -53.0095  -28.7838    7.1629 C.ar      14 UNK        -0.0643 
     12 C12       -53.5386  -28.6190    8.4456 C.ar      14 UNK        -0.0930 
     13 C13       -53.0981  -29.4172    9.5051 C.ar      14 UNK        -0.0827 
     14 C14       -52.1286  -30.3983    9.2670 C.ar      14 UNK        -0.1249 
     15 C15       -53.7197  -29.2729   10.8881 C.3       14 UNK         0.0141 
     16 S16       -53.1344  -27.7988   11.7865 S.3       14 UNK        -0.2313 
     17 C17       -54.4107  -26.5448   11.4115 C.3       14 UNK        -0.0915 
     18 CA        -55.6030  -26.4966   12.4072 C.3       13 UNK         0.0968 
     19 C         -56.6562  -27.6104   12.1266 C.2       13 UNK         0.5732 
     20 N         -56.9623  -28.5092   13.0558 N.am      13 UNK        -0.7310 
     21 O         -57.2169  -27.6547   11.0344 O.2       13 UNK        -0.5035 
     22 N         -55.1512  -26.3978   13.8021 N.am      13 UNK        -0.4233 
     23 C         -55.9093  -25.9817   14.8253 C.2       13 UNK         0.4989 
     24 O         -57.0305  -25.4885   14.6895 O.2       13 UNK        -0.4996 
     25 CA        -55.3161  -26.1747   16.2350 C.3       12 UNK         0.0216 
     26 CB        -56.3805  -26.1341   17.3515 C.3       12 UNK        -0.1964 
     27 N         -54.4981  -27.3890   16.3389 N.am      12 UNK        -0.4276 
     28 C         -54.8752  -28.6593   16.1280 C.2       12 UNK         0.5020 
     29 O         -56.0241  -28.9957   15.8399 O.2       12 UNK        -0.5489 
     30 CA        -53.7791  -29.7357   16.1998 C.3       11 UNK         0.0294 
     31 CB        -53.3152  -30.1162   14.7850 C.3       11 UNK        -0.2019 
     32 N         -52.6170  -29.2978   16.9769 N.am      11 UNK        -0.4493 
     33 C         -52.4699  -29.4872   18.2952 C.2       11 UNK         0.4932 
     34 O         -53.2721  -30.1052   18.9956 O.2       11 UNK        -0.5029 
     35 CA        -51.2144  -28.8790   18.9463 C.3       10 UNK         0.0280 
     36 CB        -50.0358  -29.8627   18.8645 C.3       10 UNK        -0.1976 
     37 N         -50.8232  -27.5981   18.3509 N.am      10 UNK        -0.4242 
     38 C         -51.5268  -26.4615   18.4592 C.2       10 UNK         0.5072 
     39 O         -52.5595  -26.3540   19.1205 O.2       10 UNK        -0.5224 
     40 CA        -51.0087  -25.2400   17.6788 C.3       9 UNK         0.0343 
     41 CB        -50.1068  -24.3745   18.5733 C.3       9 UNK        -0.2003 
     42 N         -50.2932  -25.5666   16.4394 N.am      9 UNK        -0.4272 
     43 C         -50.8274  -26.2016   15.3877 C.2       9 UNK         0.4988 
     44 O         -51.9674  -26.6687   15.3727 O.2       9 UNK        -0.5108 
     45 CA        -49.9345  -26.3660   14.1493 C.3       8 UNK         0.0248 
     46 CB        -49.7549  -27.8588   13.8233 C.3       8 UNK        -0.2001 
     47 N         -50.4997  -25.6616   12.9935 N.am      8 UNK        -0.4140 
     48 C         -50.6431  -24.3297   12.9170 C.2       8 UNK         0.5028 
     49 O         -50.2244  -23.5628   13.7866 O.2       8 UNK        -0.5428 
     50 CA        -51.3650  -23.7421   11.6894 C.3       7 UNK         0.0264 
     51 CB        -50.9578  -22.2783   11.4090 C.3       7 UNK        -0.1988 
     52 N         -51.2049  -24.5527   10.4777 N.am      7 UNK        -0.4454 
     53 C         -52.0370  -24.5067    9.4279 C.2       7 UNK         0.5027 
     54 O         -53.0690  -23.8312    9.4115 O.2       7 UNK        -0.5083 
     55 CA        -51.6325  -25.3235    8.1805 C.3       6 UNK         0.0844 
     56 C56       -52.7909  -25.4272    7.1481 C.3       14 UNK        -0.0967 
     57 S57       -52.3824  -26.5020    5.7298 S.3       14 UNK        -0.2604 
     58 C58       -53.4907  -27.9167    6.0105 C.3       14 UNK         0.0134 
     59 N         -50.3875  -24.8010    7.5980 N.am      6 UNK        -0.4116 
     60 C         -50.2060  -23.5905    7.0459 C.2       5 UNK         0.5034 
     61 O         -51.0750  -22.7201    6.9656 O.2       5 UNK        -0.5045 
     62 CA        -48.7954  -23.3193    6.4920 C.3       5 UNK         0.0224 
     63 CB        -48.6552  -21.9479    5.7962 C.3       5 UNK        -0.1978 
     64 N         -47.7729  -23.5003    7.5264 N.am      5 UNK        -0.4737 
     65 C         -47.6211  -22.8043    8.6637 C.2       4 UNK         0.5027 
     66 O         -48.2840  -21.8120    8.9621 O.2       4 UNK        -0.5211 
     67 CA        -46.5616  -23.3115    9.6573 C.3       4 UNK         0.0297 
     68 CB        -47.2453  -23.9633   10.8709 C.3       4 UNK        -0.1993 
     69 N         -45.6346  -24.2717    9.0477 N.am      4 UNK        -0.4486 
     70 C         -44.4862  -23.9315    8.4471 C.2       3 UNK         0.4961 
     71 O         -44.0611  -22.7783    8.3720 O.2       3 UNK        -0.5105 
     72 CA        -43.6761  -25.0773    7.8175 C.3       3 UNK         0.0299 
     73 CB        -42.8666  -25.8223    8.8918 C.3       3 UNK        -0.1972 
     74 N         -44.5021  -26.0333    7.0728 N.am      3 UNK        -0.4305 
     75 C         -45.1557  -25.7524    5.9348 C.2       2 UNK         0.5006 
     76 O         -45.1645  -24.6423    5.4038 O.2       2 UNK        -0.5106 
     77 CA        -45.9343  -26.9023    5.2716 C.3       2 UNK         0.0296 
     78 CB        -45.0413  -27.6442    4.2638 C.3       2 UNK        -0.2002 
     79 N         -46.4964  -27.8643    6.2253 N.am      2 UNK        -0.4032 
     80 C         -47.5104  -27.5903    7.0574 C.2       1 UNK         0.5000 
     81 O         -48.0362  -26.4748    7.1350 O.2       1 UNK        -0.5238 
     82 H82       -47.1104  -28.4990   10.8819 H         1 UNK         0.0889 
     83 H83       -47.4922  -26.9162   11.5441 H         1 UNK         0.0889 
     84 H84       -46.7601  -27.0342    9.9486 H         1 UNK         0.0889 
     85 H85       -49.9882  -28.3401    8.5091 H         1 UNK         0.3028 
     86 H86       -47.1377  -29.0674    8.5515 H         1 UNK         0.0864 
     87 H87       -49.3048  -29.6962    6.4925 H         1 UNK         0.0720 
     88 H88       -47.6832  -30.3312    6.4870 H         1 UNK         0.0720 
     89 H89       -50.9741  -32.6256    8.2190 H         1 UNK         0.0814 
     90 H90       -50.6280  -31.9780    6.6398 H         1 UNK         0.0814 
     91 H91       -51.6646  -29.9195    5.9366 H         1 UNK         0.1469 
     92 H92       -54.3061  -27.8790    8.6133 H         1 UNK         0.1381 
     93 H93       -51.7949  -31.0345   10.0754 H         1 UNK         0.1206 
     94 H94       -53.4845  -30.1490   11.4942 H         1 UNK         0.0813 
     95 H95       -54.8050  -29.2623   10.7968 H         1 UNK         0.0813 
     96 H96       -54.7578  -26.6517   10.3847 H         1 UNK         0.0638 
     97 H97       -53.9100  -25.5783   11.4405 H         1 UNK         0.0638 
     98 H98       -56.1338  -25.5668   12.1939 H         1 UNK         0.0568 
     99 H99       -57.6525  -29.2105   12.8417 H         1 UNK         0.3450 
    100 H100      -56.5397  -28.4935   13.9776 H         1 UNK         0.3450 
    101 H101      -54.2382  -26.7850   13.9972 H         1 UNK         0.2987 
    102 H102      -54.6357  -25.3368   16.3944 H         1 UNK         0.0766 
    103 H103      -56.9044  -25.1775   17.3595 H         1 UNK         0.0798 
    104 H104      -55.9260  -26.2617   18.3342 H         1 UNK         0.0798 
    105 H105      -57.1308  -26.9152   17.2244 H         1 UNK         0.0798 
    106 H106      -53.5017  -27.2177   16.4313 H         1 UNK         0.3198 
    107 H107      -54.2203  -30.6217   16.6619 H         1 UNK         0.0843 
    108 H108      -52.8217  -29.2815   14.2886 H         1 UNK         0.0831 
    109 H109      -54.1583  -30.4162   14.1608 H         1 UNK         0.0831 
    110 H110      -52.6158  -30.9518   14.8084 H         1 UNK         0.0831 
    111 H111      -51.9208  -28.7559   16.4838 H         1 UNK         0.3133 
    112 H112      -51.4389  -28.7052   20.0009 H         1 UNK         0.0566 
    113 H113      -49.1615  -29.4801   19.3914 H         1 UNK         0.0814 
    114 H114      -49.7457  -30.0650   17.8327 H         1 UNK         0.0814 
    115 H115      -50.2944  -30.8185   19.3228 H         1 UNK         0.0814 
    116 H116      -49.9751  -27.5837   17.8033 H         1 UNK         0.3091 
    117 H117      -51.8811  -24.6448   17.4002 H         1 UNK         0.0702 
    118 H118      -49.8188  -23.4506   18.0712 H         1 UNK         0.0785 
    119 H119      -49.1953  -24.9011   18.8592 H         1 UNK         0.0785 
    120 H120      -50.6227  -24.0931   19.4926 H         1 UNK         0.0785 
    121 H121      -49.3543  -25.2036   16.3546 H         1 UNK         0.2998 
    122 H122      -48.9499  -25.9421   14.3573 H         1 UNK         0.0697 
    123 H123      -49.0280  -28.0097   13.0283 H         1 UNK         0.0825 
    124 H124      -50.6906  -28.3204   13.5078 H         1 UNK         0.0825 
    125 H125      -49.3952  -28.4113   14.6921 H         1 UNK         0.0825 
    126 H126      -50.8249  -26.2442   12.2298 H         1 UNK         0.3029 
    127 H127      -52.4229  -23.7433   11.9592 H         1 UNK         0.0897 
    128 H128      -49.9031  -22.2000   11.1483 H         1 UNK         0.0792 
    129 H129      -51.1284  -21.6440   12.2797 H         1 UNK         0.0792 
    130 H130      -51.5331  -21.8486   10.5890 H         1 UNK         0.0792 
    131 H131      -50.4383  -25.2220   10.4641 H         1 UNK         0.3086 
    132 H132      -51.4160  -26.3343    8.5279 H         1 UNK         0.0583 
    133 H133      -53.6974  -25.7931    7.6315 H         1 UNK         0.1020 
    134 H134      -53.0528  -24.4422    6.7586 H         1 UNK         0.1020 
    135 H135      -54.5078  -27.5632    6.1875 H         1 UNK         0.0694 
    136 H136      -53.5342  -28.5129    5.0978 H         1 UNK         0.0694 
    137 H137      -49.5991  -25.4428    7.5847 H         1 UNK         0.2989 
    138 H138      -48.6103  -24.0863    5.7375 H         1 UNK         0.1055 
    139 H139      -48.8685  -21.1203    6.4731 H         1 UNK         0.0806 
    140 H140      -49.3487  -21.8662    4.9585 H         1 UNK         0.0806 
    141 H141      -47.6495  -21.8072    5.4000 H         1 UNK         0.0806 
    142 H142      -47.1911  -24.3174    7.4004 H         1 UNK         0.3061 
    143 H143      -46.0006  -22.4453   10.0152 H         1 UNK         0.0734 
    144 H144      -47.9812  -24.7075   10.5688 H         1 UNK         0.0832 
    145 H145      -46.5239  -24.4407   11.5340 H         1 UNK         0.0832 
    146 H146      -47.7736  -23.2147   11.4618 H         1 UNK         0.0832 
    147 H147      -45.9012  -25.2436    9.0585 H         1 UNK         0.3156 
    148 H148      -42.9692  -24.6319    7.1139 H         1 UNK         0.0589 
    149 H149      -43.5110  -26.3250    9.6140 H         1 UNK         0.0808 
    150 H150      -42.2312  -25.1319    9.4487 H         1 UNK         0.0808 
    151 H151      -42.2119  -26.5718    8.4466 H         1 UNK         0.0808 
    152 H152      -44.5289  -26.9809    7.4190 H         1 UNK         0.3098 
    153 H153      -46.7645  -26.4550    4.7200 H         1 UNK         0.0720 
    154 H154      -44.1998  -28.1372    4.7523 H         1 UNK         0.0791 
    155 H155      -44.6301  -26.9542    3.5253 H         1 UNK         0.0791 
    156 H156      -45.6038  -28.4013    3.7170 H         1 UNK         0.0791 
    157 H157      -46.1034  -28.7948    6.2136 H         1 UNK         0.3028 
@<TRIPOS>BOND
     1    1    2 1    
     2    1   82 1    
     3    1   83 1    
     4    1   84 1    
     5    2    3 2    
     6    2    4 am   BACKBONE|DICT|INTERRES
     7    4    5 1    
     8    4   85 1    
     9    5    6 1    
    10    5   80 1    
    11    5   86 1    
    12    6    7 1    
    13    6   87 1    
    14    6   88 1    
    15    7    8 1    
    16    8    9 1    
    17    8   89 1    
    18    8   90 1    
    19    9   10 ar   
    20    9   14 ar   
    21   10   11 ar   
    22   10   91 1    
    23   11   12 ar   
    24   11   58 1    
    25   12   13 ar   
    26   12   92 1    
    27   13   14 ar   
    28   13   15 1    
    29   14   93 1    
    30   15   16 1    
    31   15   94 1    
    32   15   95 1    
    33   16   17 1    
    34   17   18 1    
    35   17   96 1    
    36   17   97 1    
    37   18   19 1    
    38   18   22 1    
    39   18   98 1    
    40   19   20 am   BACKBONE|DICT|INTERRES
    41   19   21 2    
    42   20   99 1    
    43   20  100 1    
    44   22   23 am   BACKBONE|DICT|INTERRES
    45   22  101 1    
    46   23   24 2    
    47   23   25 1    
    48   25   26 1    
    49   25   27 1    
    50   25  102 1    
    51   26  103 1    
    52   26  104 1    
    53   26  105 1    
    54   27   28 am   BACKBONE|DICT|INTERRES
    55   27  106 1    
    56   28   29 2    
    57   28   30 1    
    58   30   31 1    
    59   30   32 1    
    60   30  107 1    
    61   31  108 1    
    62   31  109 1    
    63   31  110 1    
    64   32   33 am   BACKBONE|DICT|INTERRES
    65   32  111 1    
    66   33   34 2    
    67   33   35 1    
    68   35   36 1    
    69   35   37 1    
    70   35  112 1    
    71   36  113 1    
    72   36  114 1    
    73   36  115 1    
    74   37   38 am   BACKBONE|DICT|INTERRES
    75   37  116 1    
    76   38   39 2    
    77   38   40 1    
    78   40   41 1    
    79   40   42 1    
    80   40  117 1    
    81   41  118 1    
    82   41  119 1    
    83   41  120 1    
    84   42   43 am   BACKBONE|DICT|INTERRES
    85   42  121 1    
    86   43   44 2    
    87   43   45 1    
    88   45   46 1    
    89   45   47 1    
    90   45  122 1    
    91   46  123 1    
    92   46  124 1    
    93   46  125 1    
    94   47   48 am   BACKBONE|DICT|INTERRES
    95   47  126 1    
    96   48   49 2    
    97   48   50 1    
    98   50   51 1    
    99   50   52 1    
   100   50  127 1    
   101   51  128 1    
   102   51  129 1    
   103   51  130 1    
   104   52   53 am   BACKBONE|DICT|INTERRES
   105   52  131 1    
   106   53   54 2    
   107   53   55 1    
   108   55   56 1    
   109   55   59 1    
   110   55  132 1    
   111   56   57 1    
   112   56  133 1    
   113   56  134 1    
   114   57   58 1    
   115   58  135 1    
   116   58  136 1    
   117   59   60 am   BACKBONE|DICT|INTERRES
   118   59  137 1    
   119   60   61 2    
   120   60   62 1    
   121   62   63 1    
   122   62   64 1    
   123   62  138 1    
   124   63  139 1    
   125   63  140 1    
   126   63  141 1    
   127   64   65 am   BACKBONE|DICT|INTERRES
   128   64  142 1    
   129   65   66 2    
   130   65   67 1    
   131   67   68 1    
   132   67   69 1    
   133   67  143 1    
   134   68  144 1    
   135   68  145 1    
   136   68  146 1    
   137   69   70 am   BACKBONE|DICT|INTERRES
   138   69  147 1    
   139   70   71 2    
   140   70   72 1    
   141   72   73 1    
   142   72   74 1    
   143   72  148 1    
   144   73  149 1    
   145   73  150 1    
   146   73  151 1    
   147   74   75 am   BACKBONE|DICT|INTERRES
   148   74  152 1    
   149   75   76 2    
   150   75   77 1    
   151   77   78 1    
   152   77   79 1    
   153   77  153 1    
   154   78  154 1    
   155   78  155 1    
   156   78  156 1    
   157   79   80 am   BACKBONE|DICT|INTERRES
   158   79  157 1    
   159   80   81 2    
@<TRIPOS>SUBSTRUCTURE
     1 UNK         1 GROUP             0       ****    0 ROOT    
