@<TRIPOS>MOLECULE
3R207
157   159    1
SMALL
USER_CHARGES


@<TRIPOS>ATOM
      1 CA        -50.6441  -23.6384    3.6561 C.3       0 UNK        -0.1975 
      2 C         -50.9359  -23.9003    5.1261 C.2       0 UNK         0.4852 
      3 O         -51.2996  -22.9774    5.8556 O.2       0 UNK        -0.5216 
      4 N         -50.7532  -25.1470    5.5803 N.am      1 UNK        -0.4461 
      5 CA        -51.0087  -25.6405    6.9430 C.3       1 UNK         0.0864 
      6 C6        -51.2392  -27.1711    6.9349 C.3       14 UNK        -0.0898 
      7 S7        -49.8979  -28.1300    6.1366 S.3       14 UNK        -0.2598 
      8 C8        -50.6926  -29.7566    5.9047 C.3       14 UNK         0.0286 
      9 C9        -51.3098  -30.2615    7.1997 C.ar      14 UNK        -0.0844 
     10 C10       -50.5049  -30.8167    8.1984 C.ar      14 UNK        -0.0881 
     11 C11       -51.0543  -31.1650    9.4357 C.ar      14 UNK        -0.0643 
     12 C12       -52.4232  -30.9858    9.6559 C.ar      14 UNK        -0.0930 
     13 C13       -53.2362  -30.4317    8.6643 C.ar      14 UNK        -0.0827 
     14 C14       -52.6785  -30.0951    7.4293 C.ar      14 UNK        -0.1249 
     15 C15       -54.6996  -30.1302    8.9436 C.3       14 UNK         0.0141 
     16 S16       -54.9276  -28.3479    9.2366 S.3       14 UNK        -0.2313 
     17 C17       -56.6912  -28.2688    9.6943 C.3       14 UNK        -0.0915 
     18 CA        -56.9004  -27.7486   11.1436 C.3       13 UNK         0.0968 
     19 C         -58.3973  -27.4438   11.4415 C.2       13 UNK         0.5732 
     20 N         -58.9555  -27.8744   12.5675 N.am      13 UNK        -0.7310 
     21 O         -59.0657  -26.7864   10.6470 O.2       13 UNK        -0.5035 
     22 N         -56.2864  -28.6498   12.1346 N.am      13 UNK        -0.4233 
     23 C         -55.2841  -28.3236   12.9567 C.2       13 UNK         0.4989 
     24 O         -54.7481  -27.2121   12.9993 O.2       13 UNK        -0.4996 
     25 CA        -54.7905  -29.4396   13.8871 C.3       12 UNK         0.0216 
     26 CB        -54.1510  -30.5963   13.0971 C.3       12 UNK        -0.1964 
     27 N         -53.8101  -28.8718   14.8031 N.am      12 UNK        -0.4276 
     28 C         -53.4182  -29.3856   15.9732 C.2       12 UNK         0.5020 
     29 O         -53.8446  -30.4442   16.4369 O.2       12 UNK        -0.5489 
     30 CA        -52.3682  -28.5862   16.7614 C.3       11 UNK         0.0294 
     31 CB        -50.9644  -29.1694   16.5291 C.3       11 UNK        -0.2019 
     32 N         -52.3579  -27.1719   16.3882 N.am      11 UNK        -0.4493 
     33 C         -53.2000  -26.2443   16.8619 C.2       11 UNK         0.4932 
     34 O         -54.0766  -26.4770   17.6959 O.2       11 UNK        -0.5029 
     35 CA        -53.0156  -24.8207   16.3005 C.3       10 UNK         0.0280 
     36 CB        -53.7283  -23.7369   17.1363 C.3       10 UNK        -0.1976 
     37 N         -51.6014  -24.4882   16.0924 N.am      10 UNK        -0.4242 
     38 C         -50.6269  -24.4257   17.0146 C.2       10 UNK         0.5072 
     39 O         -50.8124  -24.5459   18.2261 O.2       10 UNK        -0.5224 
     40 CA        -49.1874  -24.2328   16.5008 C.3       9 UNK         0.0343 
     41 CB        -48.3986  -25.5461   16.6392 C.3       9 UNK        -0.2003 
     42 N         -49.1254  -23.7961   15.1046 N.am      9 UNK        -0.4272 
     43 C         -49.3981  -22.5560   14.6760 C.2       9 UNK         0.4988 
     44 O         -49.6527  -21.6102   15.4218 O.2       9 UNK        -0.5108 
     45 CA        -49.4301  -22.3523   13.1530 C.3       8 UNK         0.0248 
     46 CB        -48.0065  -22.1957   12.5938 C.3       8 UNK        -0.2001 
     47 N         -50.1276  -23.4437   12.4635 N.am      8 UNK        -0.4140 
     48 C         -51.4502  -23.6622   12.5315 C.2       8 UNK         0.5028 
     49 O         -52.2274  -22.9507   13.1661 O.2       8 UNK        -0.5428 
     50 CA        -52.0044  -24.8878   11.7863 C.3       7 UNK         0.0264 
     51 CB        -52.5143  -24.4881   10.3936 C.3       7 UNK        -0.1988 
     52 N         -51.0233  -25.9708   11.6708 N.am      7 UNK        -0.4454 
     53 C         -50.7306  -26.8023   12.6826 C.2       7 UNK         0.5027 
     54 O         -51.2419  -26.7306   13.8025 O.2       7 UNK        -0.5083 
     55 CA        -49.6595  -27.8735   12.4074 C.3       6 UNK         0.0844 
     56 C56       -50.2563  -29.0152   11.5493 C.3       14 UNK        -0.0967 
     57 S57       -49.0711  -30.3629   11.2148 S.3       14 UNK        -0.2604 
     58 C58       -50.1609  -31.6724   10.5592 C.3       14 UNK         0.0134 
     59 N         -48.4366  -27.3133   11.8231 N.am      6 UNK        -0.4116 
     60 C         -47.6756  -26.3441   12.3503 C.2       5 UNK         0.5034 
     61 O         -47.9802  -25.7201   13.3660 O.2       5 UNK        -0.5045 
     62 CA        -46.3731  -25.9587   11.6248 C.3       5 UNK         0.0224 
     63 CB        -45.1381  -26.2095   12.5127 C.3       5 UNK        -0.1978 
     64 N         -46.2140  -26.5436   10.2864 N.am      5 UNK        -0.4737 
     65 C         -45.9773  -27.8170    9.9367 C.2       4 UNK         0.5027 
     66 O         -45.7820  -28.7223   10.7456 O.2       4 UNK        -0.5211 
     67 CA        -46.0257  -28.1553    8.4346 C.3       4 UNK         0.0297 
     68 CB        -47.1305  -29.1885    8.1622 C.3       4 UNK        -0.1993 
     69 N         -46.2747  -26.9740    7.6023 N.am      4 UNK        -0.4486 
     70 C         -45.3183  -26.1897    7.0861 C.2       3 UNK         0.4961 
     71 O         -44.1133  -26.4219    7.1820 O.2       3 UNK        -0.5105 
     72 CA        -45.7831  -24.9101    6.3659 C.3       3 UNK         0.0299 
     73 CB        -46.0409  -25.1960    4.8774 C.3       3 UNK        -0.1972 
     74 N         -46.9827  -24.3067    6.9557 N.am      3 UNK        -0.4305 
     75 C         -47.0786  -23.8209    8.2038 C.2       2 UNK         0.5006 
     76 O         -46.1432  -23.8010    9.0014 O.2       2 UNK        -0.5106 
     77 CA        -48.4570  -23.3116    8.6618 C.3       2 UNK         0.0296 
     78 CB        -48.5344  -21.7808    8.5566 C.3       2 UNK        -0.2002 
     79 N         -49.5580  -23.9052    7.9030 N.am      2 UNK        -0.4032 
     80 C         -49.9489  -25.1839    7.9781 C.2       1 UNK         0.5000 
     81 O         -49.4987  -25.9705    8.8171 O.2       1 UNK        -0.5238 
     82 H82       -50.3135  -24.5391    3.1389 H         1 UNK         0.0889 
     83 H83       -49.8639  -22.8840    3.5562 H         1 UNK         0.0889 
     84 H84       -51.5404  -23.2702    3.1567 H         1 UNK         0.0889 
     85 H85       -50.4273  -25.8592    4.9407 H         1 UNK         0.3028 
     86 H86       -51.9442  -25.1876    7.2793 H         1 UNK         0.0864 
     87 H87       -52.1662  -27.3825    6.3998 H         1 UNK         0.0720 
     88 H88       -51.3954  -27.5450    7.9491 H         1 UNK         0.0720 
     89 H89       -49.9507  -30.4704    5.5439 H         1 UNK         0.0814 
     90 H90       -51.4499  -29.6784    5.1230 H         1 UNK         0.0814 
     91 H91       -49.4425  -30.9281    8.0334 H         1 UNK         0.1469 
     92 H92       -52.8493  -31.2480   10.6119 H         1 UNK         0.1381 
     93 H93       -53.3016  -29.6431    6.6697 H         1 UNK         0.1206 
     94 H94       -55.0500  -30.6909    9.8113 H         1 UNK         0.0813 
     95 H95       -55.3121  -30.4439    8.0971 H         1 UNK         0.0813 
     96 H96       -57.1745  -27.6075    8.9729 H         1 UNK         0.0638 
     97 H97       -57.1558  -29.2480    9.5670 H         1 UNK         0.0638 
     98 H98       -56.4187  -26.7710   11.2017 H         1 UNK         0.0568 
     99 H99       -59.9242  -27.6612   12.7464 H         1 UNK         0.3450 
    100 H100      -58.4183  -28.3832   13.2502 H         1 UNK         0.3450 
    101 H101      -56.6763  -29.5799   12.1762 H         1 UNK         0.2987 
    102 H102      -55.6440  -29.8079   14.4601 H         1 UNK         0.0766 
    103 H103      -53.8343  -31.4038   13.7574 H         1 UNK         0.0798 
    104 H104      -53.2748  -30.2511   12.5514 H         1 UNK         0.0798 
    105 H105      -54.8456  -31.0279   12.3761 H         1 UNK         0.0798 
    106 H106      -53.4504  -27.9695   14.5107 H         1 UNK         0.3198 
    107 H107      -52.6078  -28.6734   17.8236 H         1 UNK         0.0843 
    108 H108      -50.6728  -29.1148   15.4794 H         1 UNK         0.0831 
    109 H109      -50.9246  -30.2188   16.8246 H         1 UNK         0.0831 
    110 H110      -50.2128  -28.6393   17.1145 H         1 UNK         0.0831 
    111 H111      -51.7268  -26.9049   15.6360 H         1 UNK         0.3133 
    112 H112      -53.4719  -24.8252   15.3093 H         1 UNK         0.0566 
    113 H113      -53.5804  -22.7461   16.7069 H         1 UNK         0.0814 
    114 H114      -54.8033  -23.9170   17.1723 H         1 UNK         0.0814 
    115 H115      -53.3688  -23.7146   18.1654 H         1 UNK         0.0814 
    116 H116      -51.3245  -24.3771   15.1274 H         1 UNK         0.3091 
    117 H117      -48.7107  -23.4747   17.1257 H         1 UNK         0.0702 
    118 H118      -47.3623  -25.4211   16.3245 H         1 UNK         0.0785 
    119 H119      -48.8365  -26.3431   16.0360 H         1 UNK         0.0785 
    120 H120      -48.3846  -25.8893   17.6745 H         1 UNK         0.0785 
    121 H121      -48.8526  -24.5041   14.4245 H         1 UNK         0.2998 
    122 H122      -49.9743  -21.4269   12.9523 H         1 UNK         0.0697 
    123 H123      -47.3989  -23.0832   12.7679 H         1 UNK         0.0825 
    124 H124      -47.4949  -21.3582   13.0700 H         1 UNK         0.0825 
    125 H125      -48.0172  -21.9959   11.5234 H         1 UNK         0.0825 
    126 H126      -49.5596  -24.1064   11.9592 H         1 UNK         0.3029 
    127 H127      -52.8592  -25.2613   12.3559 H         1 UNK         0.0897 
    128 H128      -51.7515  -23.9653    9.8183 H         1 UNK         0.0792 
    129 H129      -53.3669  -23.8129   10.4783 H         1 UNK         0.0792 
    130 H130      -52.8462  -25.3564    9.8236 H         1 UNK         0.0792 
    131 H131      -50.5478  -26.0854   10.7821 H         1 UNK         0.3086 
    132 H132      -49.3744  -28.2949   13.3735 H         1 UNK         0.0583 
    133 H133      -51.1254  -29.4442   12.0499 H         1 UNK         0.1020 
    134 H134      -50.6110  -28.6301   10.5902 H         1 UNK         0.1020 
    135 H135      -49.5465  -32.4952   10.1914 H         1 UNK         0.0694 
    136 H136      -50.7594  -32.0768   11.3771 H         1 UNK         0.0694 
    137 H137      -48.0952  -27.7788   10.9951 H         1 UNK         0.2989 
    138 H138      -46.4360  -24.8824   11.4620 H         1 UNK         0.1055 
    139 H139      -45.2069  -25.6422   13.4420 H         1 UNK         0.0806 
    140 H140      -44.2203  -25.9006   12.0125 H         1 UNK         0.0806 
    141 H141      -45.0366  -27.2599   12.7863 H         1 UNK         0.0806 
    142 H142      -46.3190  -25.8756    9.5323 H         1 UNK         0.3061 
    143 H143      -45.0663  -28.6024    8.1661 H         1 UNK         0.0734 
    144 H144      -47.1825  -29.4489    7.1050 H         1 UNK         0.0832 
    145 H145      -46.9495  -30.1123    8.7134 H         1 UNK         0.0832 
    146 H146      -48.1098  -28.8165    8.4675 H         1 UNK         0.0832 
    147 H147      -47.2428  -26.7104    7.4771 H         1 UNK         0.3156 
    148 H148      -44.9755  -24.1786    6.4396 H         1 UNK         0.0589 
    149 H149      -46.8600  -25.9027    4.7358 H         1 UNK         0.0808 
    150 H150      -46.2849  -24.2836    4.3331 H         1 UNK         0.0808 
    151 H151      -45.1562  -25.6251    4.4044 H         1 UNK         0.0808 
    152 H152      -47.8021  -24.2677    6.3686 H         1 UNK         0.3098 
    153 H153      -48.5770  -23.5920    9.7099 H         1 UNK         0.0720 
    154 H154      -49.4686  -21.4031    8.9731 H         1 UNK         0.0791 
    155 H155      -48.4669  -21.4427    7.5217 H         1 UNK         0.0791 
    156 H156      -47.7202  -21.3074    9.1075 H         1 UNK         0.0791 
    157 H157      -50.0311  -23.3167    7.2207 H         1 UNK         0.3028 
@<TRIPOS>BOND
     1    1    2 1    
     2    1   82 1    
     3    1   83 1    
     4    1   84 1    
     5    2    3 2    
     6    2    4 am   BACKBONE|DICT|INTERRES
     7    4    5 1    
     8    4   85 1    
     9    5    6 1    
    10    5   80 1    
    11    5   86 1    
    12    6    7 1    
    13    6   87 1    
    14    6   88 1    
    15    7    8 1    
    16    8    9 1    
    17    8   89 1    
    18    8   90 1    
    19    9   10 ar   
    20    9   14 ar   
    21   10   11 ar   
    22   10   91 1    
    23   11   12 ar   
    24   11   58 1    
    25   12   13 ar   
    26   12   92 1    
    27   13   14 ar   
    28   13   15 1    
    29   14   93 1    
    30   15   16 1    
    31   15   94 1    
    32   15   95 1    
    33   16   17 1    
    34   17   18 1    
    35   17   96 1    
    36   17   97 1    
    37   18   19 1    
    38   18   22 1    
    39   18   98 1    
    40   19   20 am   BACKBONE|DICT|INTERRES
    41   19   21 2    
    42   20   99 1    
    43   20  100 1    
    44   22   23 am   BACKBONE|DICT|INTERRES
    45   22  101 1    
    46   23   24 2    
    47   23   25 1    
    48   25   26 1    
    49   25   27 1    
    50   25  102 1    
    51   26  103 1    
    52   26  104 1    
    53   26  105 1    
    54   27   28 am   BACKBONE|DICT|INTERRES
    55   27  106 1    
    56   28   29 2    
    57   28   30 1    
    58   30   31 1    
    59   30   32 1    
    60   30  107 1    
    61   31  108 1    
    62   31  109 1    
    63   31  110 1    
    64   32   33 am   BACKBONE|DICT|INTERRES
    65   32  111 1    
    66   33   34 2    
    67   33   35 1    
    68   35   36 1    
    69   35   37 1    
    70   35  112 1    
    71   36  113 1    
    72   36  114 1    
    73   36  115 1    
    74   37   38 am   BACKBONE|DICT|INTERRES
    75   37  116 1    
    76   38   39 2    
    77   38   40 1    
    78   40   41 1    
    79   40   42 1    
    80   40  117 1    
    81   41  118 1    
    82   41  119 1    
    83   41  120 1    
    84   42   43 am   BACKBONE|DICT|INTERRES
    85   42  121 1    
    86   43   44 2    
    87   43   45 1    
    88   45   46 1    
    89   45   47 1    
    90   45  122 1    
    91   46  123 1    
    92   46  124 1    
    93   46  125 1    
    94   47   48 am   BACKBONE|DICT|INTERRES
    95   47  126 1    
    96   48   49 2    
    97   48   50 1    
    98   50   51 1    
    99   50   52 1    
   100   50  127 1    
   101   51  128 1    
   102   51  129 1    
   103   51  130 1    
   104   52   53 am   BACKBONE|DICT|INTERRES
   105   52  131 1    
   106   53   54 2    
   107   53   55 1    
   108   55   56 1    
   109   55   59 1    
   110   55  132 1    
   111   56   57 1    
   112   56  133 1    
   113   56  134 1    
   114   57   58 1    
   115   58  135 1    
   116   58  136 1    
   117   59   60 am   BACKBONE|DICT|INTERRES
   118   59  137 1    
   119   60   61 2    
   120   60   62 1    
   121   62   63 1    
   122   62   64 1    
   123   62  138 1    
   124   63  139 1    
   125   63  140 1    
   126   63  141 1    
   127   64   65 am   BACKBONE|DICT|INTERRES
   128   64  142 1    
   129   65   66 2    
   130   65   67 1    
   131   67   68 1    
   132   67   69 1    
   133   67  143 1    
   134   68  144 1    
   135   68  145 1    
   136   68  146 1    
   137   69   70 am   BACKBONE|DICT|INTERRES
   138   69  147 1    
   139   70   71 2    
   140   70   72 1    
   141   72   73 1    
   142   72   74 1    
   143   72  148 1    
   144   73  149 1    
   145   73  150 1    
   146   73  151 1    
   147   74   75 am   BACKBONE|DICT|INTERRES
   148   74  152 1    
   149   75   76 2    
   150   75   77 1    
   151   77   78 1    
   152   77   79 1    
   153   77  153 1    
   154   78  154 1    
   155   78  155 1    
   156   78  156 1    
   157   79   80 am   BACKBONE|DICT|INTERRES
   158   79  157 1    
   159   80   81 2    
@<TRIPOS>SUBSTRUCTURE
     1 UNK         1 GROUP             0       ****    0 ROOT    
