@<TRIPOS>MOLECULE
3R207
157   159    1
SMALL
USER_CHARGES


@<TRIPOS>ATOM
      1 CA        -47.9961  -26.0155    3.7193 C.3       0 UNK        -0.1975 
      2 C         -49.2546  -26.7844    4.0939 C.2       0 UNK         0.4852 
      3 O         -50.2748  -26.6560    3.4168 O.2       0 UNK        -0.5216 
      4 N         -49.1927  -27.5763    5.1737 N.am      1 UNK        -0.4461 
      5 CA        -50.3080  -28.3818    5.6950 C.3       1 UNK         0.0864 
      6 C6        -49.7801  -29.5955    6.5086 C.3       14 UNK        -0.0898 
      7 S7        -50.8421  -31.0648    6.3234 S.3       14 UNK        -0.2598 
      8 C8        -49.9781  -32.2705    7.3851 C.3       14 UNK         0.0286 
      9 C9        -50.0116  -31.9206    8.8707 C.ar      14 UNK        -0.0844 
     10 C10       -48.8537  -32.0514    9.6426 C.ar      14 UNK        -0.0881 
     11 C11       -48.8764  -31.7893   11.0161 C.ar      14 UNK        -0.0643 
     12 C12       -50.0643  -31.3576   11.6164 C.ar      14 UNK        -0.0930 
     13 C13       -51.2330  -31.2279   10.8572 C.ar      14 UNK        -0.0827 
     14 C14       -51.2003  -31.5235    9.4909 C.ar      14 UNK        -0.1249 
     15 C15       -52.5467  -30.8216   11.5116 C.3       14 UNK         0.0141 
     16 S16       -53.2192  -29.2930   10.7903 S.3       14 UNK        -0.2313 
     17 C17       -54.8361  -29.2080   11.6258 C.3       14 UNK        -0.0915 
     18 CA        -55.6769  -27.9878   11.1740 C.3       13 UNK         0.0968 
     19 C         -57.0621  -27.9860   11.8744 C.2       13 UNK         0.5732 
     20 N         -57.2004  -27.3722   13.0429 N.am      13 UNK        -0.7310 
     21 O         -58.0212  -28.5459   11.3487 O.2       13 UNK        -0.5035 
     22 N         -54.9411  -26.7259   11.3296 N.am      13 UNK        -0.4233 
     23 C         -55.2536  -25.5827   10.7088 C.2       13 UNK         0.4989 
     24 O         -56.2030  -25.4527    9.9337 O.2       13 UNK        -0.4996 
     25 CA        -54.3139  -24.3990   10.9931 C.3       12 UNK         0.0216 
     26 CB        -54.7633  -23.0702   10.3476 C.3       12 UNK        -0.1964 
     27 N         -54.0455  -24.2476   12.4271 N.am      12 UNK        -0.4276 
     28 C         -54.9207  -23.9193   13.3883 C.2       12 UNK         0.5020 
     29 O         -56.1006  -23.6315   13.1780 O.2       12 UNK        -0.5489 
     30 CA        -54.3750  -23.9078   14.8294 C.3       11 UNK         0.0294 
     31 CB        -55.4865  -23.7683   15.8921 C.3       11 UNK        -0.2019 
     32 N         -53.5051  -25.0480   15.1461 N.am      11 UNK        -0.4493 
     33 C         -53.8279  -26.3513   15.1318 C.2       11 UNK         0.4932 
     34 O         -54.9136  -26.7722   14.7304 O.2       11 UNK        -0.5029 
     35 CA        -52.7837  -27.3665   15.6509 C.3       10 UNK         0.0280 
     36 CB        -52.7051  -28.6060   14.7460 C.3       10 UNK        -0.1976 
     37 N         -51.4379  -26.8091   15.7997 N.am      10 UNK        -0.4242 
     38 C         -50.9894  -26.1107   16.8517 C.2       10 UNK         0.5072 
     39 O         -51.6439  -25.9127   17.8754 O.2       10 UNK        -0.5224 
     40 CA        -49.5966  -25.4667   16.7064 C.3       9 UNK         0.0343 
     41 CB        -48.4921  -26.4392   17.1484 C.3       9 UNK        -0.2003 
     42 N         -49.3255  -24.9920   15.3437 N.am      9 UNK        -0.4272 
     43 C         -50.0517  -24.0586   14.7082 C.2       9 UNK         0.4988 
     44 O         -50.9936  -23.4544   15.2205 O.2       9 UNK        -0.5108 
     45 CA        -49.7061  -23.7949   13.2369 C.3       8 UNK         0.0248 
     46 CB        -48.4836  -22.8658   13.1430 C.3       8 UNK        -0.2001 
     47 N         -49.4918  -25.0498   12.5039 N.am      8 UNK        -0.4140 
     48 C         -50.4745  -25.9205   12.2155 C.2       8 UNK         0.5028 
     49 O         -51.6661  -25.6822   12.4074 O.2       8 UNK        -0.5428 
     50 CA        -50.0773  -27.3033   11.6736 C.3       7 UNK         0.0264 
     51 CB        -50.1231  -27.3556   10.1410 C.3       7 UNK        -0.1988 
     52 N         -48.7627  -27.7262   12.1503 N.am      7 UNK        -0.4454 
     53 C         -48.5441  -28.1779   13.3933 C.2       7 UNK         0.5027 
     54 O         -49.4364  -28.2993   14.2322 O.2       7 UNK        -0.5083 
     55 CA        -47.0925  -28.5075   13.7966 C.3       6 UNK         0.0844 
     56 C56       -46.7894  -30.0187   13.6630 C.3       14 UNK        -0.0967 
     57 S57       -46.5498  -30.5794   11.9367 S.3       14 UNK        -0.2604 
     58 C58       -47.6287  -32.0418   11.8497 C.3       14 UNK         0.0134 
     59 N         -46.0949  -27.6838   13.1109 N.am      6 UNK        -0.4116 
     60 C         -45.9878  -26.3531   13.2037 C.2       5 UNK         0.5034 
     61 O         -46.7178  -25.6645   13.9194 O.2       5 UNK        -0.5045 
     62 CA        -44.9129  -25.6689   12.3304 C.3       5 UNK         0.0224 
     63 CB        -44.0453  -26.6559   11.5149 C.3       5 UNK        -0.1978 
     64 N         -45.4625  -24.6455   11.4283 N.am      5 UNK        -0.4737 
     65 C         -46.4973  -24.7801   10.5873 C.2       4 UNK         0.5027 
     66 O         -47.2037  -25.7870   10.5094 O.2       4 UNK        -0.5211 
     67 CA        -46.7938  -23.5946    9.6656 C.3       4 UNK         0.0297 
     68 CB        -46.1949  -23.8256    8.2675 C.3       4 UNK        -0.1993 
     69 N         -48.2421  -23.4361    9.5664 N.am      4 UNK        -0.4486 
     70 C         -48.8762  -22.2729    9.3743 C.2       3 UNK         0.4961 
     71 O         -48.2882  -21.2063    9.1866 O.2       3 UNK        -0.5105 
     72 CA        -50.4199  -22.2904    9.4471 C.3       3 UNK         0.0299 
     73 CB        -51.0593  -21.0791    8.7342 C.3       3 UNK        -0.1972 
     74 N         -51.0528  -23.5350    8.9885 N.am      3 UNK        -0.4305 
     75 C         -50.9259  -24.1033    7.7807 C.2       2 UNK         0.5006 
     76 O         -50.1562  -23.7140    6.8989 O.2       2 UNK        -0.5106 
     77 CA        -51.8300  -25.3046    7.4962 C.3       2 UNK         0.0296 
     78 CB        -53.0808  -24.8693    6.7094 C.3       2 UNK        -0.2002 
     79 N         -51.0408  -26.2641    6.7341 N.am      2 UNK        -0.4032 
     80 C         -51.3407  -27.5465    6.4958 C.2       1 UNK         0.5000 
     81 O         -52.3839  -28.0751    6.8823 O.2       1 UNK        -0.5238 
     82 H82       -47.1647  -26.2416    4.3868 H         1 UNK         0.0889 
     83 H83       -48.1852  -24.9432    3.7648 H         1 UNK         0.0889 
     84 H84       -47.6921  -26.2656    2.7032 H         1 UNK         0.0889 
     85 H85       -48.3256  -27.6433    5.6885 H         1 UNK         0.3028 
     86 H86       -50.8461  -28.7667    4.8254 H         1 UNK         0.0864 
     87 H87       -49.6642  -29.3537    7.5668 H         1 UNK         0.0720 
     88 H88       -48.7880  -29.8869    6.1594 H         1 UNK         0.0720 
     89 H89       -48.9503  -32.3708    7.0327 H         1 UNK         0.0814 
     90 H90       -50.4447  -33.2472    7.2515 H         1 UNK         0.0814 
     91 H91       -47.9346  -32.3858    9.1807 H         1 UNK         0.1469 
     92 H92       -50.0834  -31.1512   12.6779 H         1 UNK         0.1381 
     93 H93       -52.1074  -31.4392    8.9079 H         1 UNK         0.1206 
     94 H94       -52.4196  -30.6833   12.5861 H         1 UNK         0.0813 
     95 H95       -53.2685  -31.6295   11.3838 H         1 UNK         0.0813 
     96 H96       -55.3740  -30.1348   11.4176 H         1 UNK         0.0638 
     97 H97       -54.6745  -29.1803   12.7028 H         1 UNK         0.0638 
     98 H98       -55.8704  -28.1135   10.1066 H         1 UNK         0.0568 
     99 H99       -58.1008  -27.3656   13.4931 H         1 UNK         0.3450 
    100 H100      -56.3936  -26.9816   13.5213 H         1 UNK         0.3450 
    101 H101      -54.1522  -26.7431   11.9591 H         1 UNK         0.2987 
    102 H102      -53.3616  -24.6696   10.5381 H         1 UNK         0.0766 
    103 H103      -55.7400  -22.7501   10.7111 H         1 UNK         0.0798 
    104 H104      -54.0512  -22.2701   10.5493 H         1 UNK         0.0798 
    105 H105      -54.8412  -23.1694    9.2646 H         1 UNK         0.0798 
    106 H106      -53.1195  -24.5654   12.7116 H         1 UNK         0.3198 
    107 H107      -53.7449  -23.0199   14.9003 H         1 UNK         0.0843 
    108 H108      -56.0594  -22.8525   15.7416 H         1 UNK         0.0831 
    109 H109      -55.0705  -23.7267   16.8986 H         1 UNK         0.0831 
    110 H110      -56.1897  -24.6010   15.8529 H         1 UNK         0.0831 
    111 H111      -52.5659  -24.7921   15.4304 H         1 UNK         0.3133 
    112 H112      -53.1284  -27.6977   16.6323 H         1 UNK         0.0566 
    113 H113      -51.9327  -29.2985   15.0812 H         1 UNK         0.0814 
    114 H114      -53.6479  -29.1527   14.7555 H         1 UNK         0.0814 
    115 H115      -52.4860  -28.3327   13.7140 H         1 UNK         0.0814 
    116 H116      -50.7922  -26.9923   15.0387 H         1 UNK         0.3091 
    117 H117      -49.5655  -24.5964   17.3653 H         1 UNK         0.0702 
    118 H118      -47.5035  -25.9885   17.0570 H         1 UNK         0.0785 
    119 H119      -48.4998  -27.3560   16.5598 H         1 UNK         0.0785 
    120 H120      -48.6236  -26.7250   18.1929 H         1 UNK         0.0785 
    121 H121      -48.5299  -25.3975   14.8612 H         1 UNK         0.2998 
    122 H122      -50.5552  -23.2786   12.7840 H         1 UNK         0.0697 
    123 H123      -47.5854  -23.3140   13.5661 H         1 UNK         0.0825 
    124 H124      -48.6640  -21.9392   13.6905 H         1 UNK         0.0825 
    125 H125      -48.2621  -22.5828   12.1184 H         1 UNK         0.0825 
    126 H126      -48.5342  -25.3338   12.3346 H         1 UNK         0.3029 
    127 H127      -50.8119  -28.0216   12.0419 H         1 UNK         0.0897 
    128 H128      -49.7785  -28.3222    9.7731 H         1 UNK         0.0792 
    129 H129      -49.5182  -26.5793    9.6744 H         1 UNK         0.0792 
    130 H130      -51.1477  -27.2367    9.7931 H         1 UNK         0.0792 
    131 H131      -47.9803  -27.5856   11.5216 H         1 UNK         0.3086 
    132 H132      -47.0129  -28.2613   14.8572 H         1 UNK         0.0583 
    133 H133      -45.8735  -30.2494   14.2094 H         1 UNK         0.1020 
    134 H134      -47.5686  -30.6021   14.1569 H         1 UNK         0.1020 
    135 H135      -47.0563  -32.8587   11.4077 H         1 UNK         0.0694 
    136 H136      -47.9037  -32.3893   12.8460 H         1 UNK         0.0694 
    137 H137      -45.4836  -28.1758   12.4754 H         1 UNK         0.2989 
    138 H138      -44.2554  -25.1488   13.0292 H         1 UNK         0.1055 
    139 H139      -43.5446  -27.3788   12.1607 H         1 UNK         0.0806 
    140 H140      -43.2612  -26.1270   10.9728 H         1 UNK         0.0806 
    141 H141      -44.6322  -27.2081   10.7791 H         1 UNK         0.0806 
    142 H142      -44.9756  -23.7594   11.4398 H         1 UNK         0.3061 
    143 H143      -46.3562  -22.6943   10.1027 H         1 UNK         0.0734 
    144 H144      -46.3849  -22.9771    7.6097 H         1 UNK         0.0832 
    145 H145      -45.1136  -23.9600    8.3215 H         1 UNK         0.0832 
    146 H146      -46.6132  -24.7149    7.7940 H         1 UNK         0.0832 
    147 H147      -48.7730  -24.2788    9.7382 H         1 UNK         0.3156 
    148 H148      -50.6631  -22.2060   10.5075 H         1 UNK         0.0589 
    149 H149      -50.8170  -21.0648    7.6706 H         1 UNK         0.0808 
    150 H150      -52.1451  -21.0883    8.8309 H         1 UNK         0.0808 
    151 H151      -50.7080  -20.1387    9.1610 H         1 UNK         0.0808 
    152 H152      -51.6941  -23.9532    9.6461 H         1 UNK         0.3098 
    153 H153      -52.1428  -25.7604    8.4359 H         1 UNK         0.0720 
    154 H154      -53.7593  -25.7057    6.5411 H         1 UNK         0.0791 
    155 H155      -52.8174  -24.4513    5.7368 H         1 UNK         0.0791 
    156 H156      -53.6402  -24.1069    7.2527 H         1 UNK         0.0791 
    157 H157      -50.1753  -25.8872    6.3686 H         1 UNK         0.3028 
@<TRIPOS>BOND
     1    1    2 1    
     2    1   82 1    
     3    1   83 1    
     4    1   84 1    
     5    2    3 2    
     6    2    4 am   BACKBONE|DICT|INTERRES
     7    4    5 1    
     8    4   85 1    
     9    5    6 1    
    10    5   80 1    
    11    5   86 1    
    12    6    7 1    
    13    6   87 1    
    14    6   88 1    
    15    7    8 1    
    16    8    9 1    
    17    8   89 1    
    18    8   90 1    
    19    9   10 ar   
    20    9   14 ar   
    21   10   11 ar   
    22   10   91 1    
    23   11   12 ar   
    24   11   58 1    
    25   12   13 ar   
    26   12   92 1    
    27   13   14 ar   
    28   13   15 1    
    29   14   93 1    
    30   15   16 1    
    31   15   94 1    
    32   15   95 1    
    33   16   17 1    
    34   17   18 1    
    35   17   96 1    
    36   17   97 1    
    37   18   19 1    
    38   18   22 1    
    39   18   98 1    
    40   19   20 am   BACKBONE|DICT|INTERRES
    41   19   21 2    
    42   20   99 1    
    43   20  100 1    
    44   22   23 am   BACKBONE|DICT|INTERRES
    45   22  101 1    
    46   23   24 2    
    47   23   25 1    
    48   25   26 1    
    49   25   27 1    
    50   25  102 1    
    51   26  103 1    
    52   26  104 1    
    53   26  105 1    
    54   27   28 am   BACKBONE|DICT|INTERRES
    55   27  106 1    
    56   28   29 2    
    57   28   30 1    
    58   30   31 1    
    59   30   32 1    
    60   30  107 1    
    61   31  108 1    
    62   31  109 1    
    63   31  110 1    
    64   32   33 am   BACKBONE|DICT|INTERRES
    65   32  111 1    
    66   33   34 2    
    67   33   35 1    
    68   35   36 1    
    69   35   37 1    
    70   35  112 1    
    71   36  113 1    
    72   36  114 1    
    73   36  115 1    
    74   37   38 am   BACKBONE|DICT|INTERRES
    75   37  116 1    
    76   38   39 2    
    77   38   40 1    
    78   40   41 1    
    79   40   42 1    
    80   40  117 1    
    81   41  118 1    
    82   41  119 1    
    83   41  120 1    
    84   42   43 am   BACKBONE|DICT|INTERRES
    85   42  121 1    
    86   43   44 2    
    87   43   45 1    
    88   45   46 1    
    89   45   47 1    
    90   45  122 1    
    91   46  123 1    
    92   46  124 1    
    93   46  125 1    
    94   47   48 am   BACKBONE|DICT|INTERRES
    95   47  126 1    
    96   48   49 2    
    97   48   50 1    
    98   50   51 1    
    99   50   52 1    
   100   50  127 1    
   101   51  128 1    
   102   51  129 1    
   103   51  130 1    
   104   52   53 am   BACKBONE|DICT|INTERRES
   105   52  131 1    
   106   53   54 2    
   107   53   55 1    
   108   55   56 1    
   109   55   59 1    
   110   55  132 1    
   111   56   57 1    
   112   56  133 1    
   113   56  134 1    
   114   57   58 1    
   115   58  135 1    
   116   58  136 1    
   117   59   60 am   BACKBONE|DICT|INTERRES
   118   59  137 1    
   119   60   61 2    
   120   60   62 1    
   121   62   63 1    
   122   62   64 1    
   123   62  138 1    
   124   63  139 1    
   125   63  140 1    
   126   63  141 1    
   127   64   65 am   BACKBONE|DICT|INTERRES
   128   64  142 1    
   129   65   66 2    
   130   65   67 1    
   131   67   68 1    
   132   67   69 1    
   133   67  143 1    
   134   68  144 1    
   135   68  145 1    
   136   68  146 1    
   137   69   70 am   BACKBONE|DICT|INTERRES
   138   69  147 1    
   139   70   71 2    
   140   70   72 1    
   141   72   73 1    
   142   72   74 1    
   143   72  148 1    
   144   73  149 1    
   145   73  150 1    
   146   73  151 1    
   147   74   75 am   BACKBONE|DICT|INTERRES
   148   74  152 1    
   149   75   76 2    
   150   75   77 1    
   151   77   78 1    
   152   77   79 1    
   153   77  153 1    
   154   78  154 1    
   155   78  155 1    
   156   78  156 1    
   157   79   80 am   BACKBONE|DICT|INTERRES
   158   79  157 1    
   159   80   81 2    
@<TRIPOS>SUBSTRUCTURE
     1 UNK         1 GROUP             0       ****    0 ROOT    
