@<TRIPOS>MOLECULE
3R207
157   159    1
SMALL
USER_CHARGES


@<TRIPOS>ATOM
      1 CA        -51.1410  -21.7348    4.3499 C.3       0 UNK        -0.1975 
      2 C         -51.3463  -22.4028    5.7014 C.2       0 UNK         0.4852 
      3 O         -51.4839  -21.7111    6.7106 O.2       0 UNK        -0.5216 
      4 N         -51.3671  -23.7425    5.7278 N.am      1 UNK        -0.4461 
      5 CA        -51.5343  -24.5606    6.9365 C.3       1 UNK         0.0864 
      6 C6        -51.9514  -26.0110    6.5922 C.3       14 UNK        -0.0898 
      7 S7        -50.8030  -26.8671    5.4532 S.3       14 UNK        -0.2598 
      8 C8        -51.6582  -28.4620    5.2195 C.3       14 UNK         0.0286 
      9 C9        -51.8625  -29.1813    6.5440 C.ar      14 UNK        -0.0844 
     10 C10       -50.7552  -29.6055    7.2812 C.ar      14 UNK        -0.0881 
     11 C11       -50.9174  -30.1551    8.5548 C.ar      14 UNK        -0.0643 
     12 C12       -52.2061  -30.3374    9.0638 C.ar      14 UNK        -0.0930 
     13 C13       -53.3250  -29.9419    8.3249 C.ar      14 UNK        -0.0827 
     14 C14       -53.1475  -29.3656    7.0633 C.ar      14 UNK        -0.1249 
     15 C15       -54.7220  -30.1016    8.9045 C.3       14 UNK         0.0141 
     16 S16       -55.3574  -28.5022    9.4899 S.3       14 UNK        -0.2313 
     17 C17       -56.8802  -28.9965   10.3636 C.3       14 UNK        -0.0915 
     18 CA        -56.8145  -28.6567   11.8777 C.3       13 UNK         0.0968 
     19 C         -58.1960  -28.8380   12.5709 C.2       13 UNK         0.5732 
     20 N         -58.2999  -29.5707   13.6738 N.am      13 UNK        -0.7310 
     21 O         -59.1942  -28.2888   12.1104 O.2       13 UNK        -0.5035 
     22 N         -55.7220  -29.3859   12.5455 N.am      13 UNK        -0.4233 
     23 C         -54.8302  -28.8361   13.3762 C.2       13 UNK         0.4989 
     24 O         -54.8240  -27.6444   13.6965 O.2       13 UNK        -0.4996 
     25 CA        -53.7579  -29.7842   13.9341 C.3       12 UNK         0.0216 
     26 CB        -52.9509  -30.4558   12.8078 C.3       12 UNK        -0.1964 
     27 N         -52.8470  -29.0220   14.7803 N.am      12 UNK        -0.4276 
     28 C         -52.2825  -29.4340   15.9198 C.2       12 UNK         0.5020 
     29 O         -52.4318  -30.5614   16.3929 O.2       12 UNK        -0.5489 
     30 CA        -51.3968  -28.4163   16.6590 C.3       11 UNK         0.0294 
     31 CB        -49.9139  -28.6618   16.3345 C.3       11 UNK        -0.2019 
     32 N         -51.7338  -27.0382   16.2995 N.am      11 UNK        -0.4493 
     33 C         -52.6816  -26.2959   16.8860 C.2       11 UNK         0.4932 
     34 O         -53.3456  -26.6765   17.8516 O.2       11 UNK        -0.5029 
     35 CA        -52.9243  -24.8974   16.2795 C.3       10 UNK         0.0280 
     36 CB        -53.6844  -23.9478   17.2293 C.3       10 UNK        -0.1976 
     37 N         -51.6949  -24.2694   15.7768 N.am      10 UNK        -0.4242 
     38 C         -50.5920  -23.9571   16.4771 C.2       10 UNK         0.5072 
     39 O         -50.5034  -24.0711   17.7005 O.2       10 UNK        -0.5224 
     40 CA        -49.3549  -23.4783   15.6922 C.3       9 UNK         0.0343 
     41 CB        -48.1922  -24.4611   15.9007 C.3       9 UNK        -0.2003 
     42 N         -49.6023  -23.3405   14.2533 N.am      9 UNK        -0.4272 
     43 C         -50.0702  -22.2289   13.6707 C.2       9 UNK         0.4988 
     44 O         -50.2829  -21.1757   14.2726 O.2       9 UNK        -0.5108 
     45 CA        -50.3941  -22.3154   12.1688 C.3       8 UNK         0.0248 
     46 CB        -49.1211  -22.1721   11.3224 C.3       8 UNK        -0.2001 
     47 N         -51.0984  -23.5418   11.7819 N.am      8 UNK        -0.4140 
     48 C         -52.2744  -23.9507   12.2812 C.2       8 UNK         0.5028 
     49 O         -52.8994  -23.3460   13.1513 O.2       8 UNK        -0.5428 
     50 CA        -52.8421  -25.2709   11.7430 C.3       7 UNK         0.0264 
     51 CB        -53.7242  -25.0131   10.5124 C.3       7 UNK        -0.1988 
     52 N         -51.7897  -26.2284   11.4033 N.am      7 UNK        -0.4454 
     53 C         -51.0687  -26.9062   12.3075 C.2       7 UNK         0.5027 
     54 O         -51.2618  -26.8166   13.5229 O.2       7 UNK        -0.5083 
     55 CA        -49.9661  -27.8613   11.7863 C.3       6 UNK         0.0844 
     56 C56       -49.7060  -27.7622   10.2592 C.3       14 UNK        -0.0967 
     57 S57       -48.5854  -29.0698    9.6501 S.3       14 UNK        -0.2604 
     58 C58       -49.7010  -30.4963    9.4044 C.3       14 UNK         0.0134 
     59 N         -48.7158  -27.7830   12.5507 N.am      6 UNK        -0.4116 
     60 C         -48.0291  -26.6814   12.8874 C.2       5 UNK         0.5034 
     61 O         -48.4382  -25.5270   12.7550 O.2       5 UNK        -0.5045 
     62 CA        -46.5953  -26.9279   13.3912 C.3       5 UNK         0.0224 
     63 CB        -46.5646  -27.7764   14.6762 C.3       5 UNK        -0.1978 
     64 N         -45.7877  -27.5803   12.3544 N.am      5 UNK        -0.4737 
     65 C         -45.4384  -27.0004   11.1978 C.2       4 UNK         0.5027 
     66 O         -45.6409  -25.8109   10.9481 O.2       4 UNK        -0.5211 
     67 CA        -44.8022  -27.8821   10.1120 C.3       4 UNK         0.0297 
     68 CB        -44.7461  -29.3890   10.4429 C.3       4 UNK        -0.1993 
     69 N         -45.5925  -27.6572    8.9098 N.am      4 UNK        -0.4486 
     70 C         -45.1801  -27.7124    7.6416 C.2       3 UNK         0.4961 
     71 O         -44.0616  -28.0915    7.2925 O.2       3 UNK        -0.5105 
     72 CA        -46.1951  -27.2361    6.5820 C.3       3 UNK         0.0299 
     73 CB        -46.9885  -28.4283    6.0249 C.3       3 UNK        -0.1972 
     74 N         -47.1288  -26.2193    7.0918 N.am      3 UNK        -0.4305 
     75 C         -46.7655  -24.9774    7.4515 C.2       2 UNK         0.5006 
     76 O         -45.6163  -24.5494    7.3287 O.2       2 UNK        -0.5106 
     77 CA        -47.8599  -24.0608    8.0265 C.3       2 UNK         0.0296 
     78 CB        -47.4666  -22.5714    7.9487 C.3       2 UNK        -0.2002 
     79 N         -49.1251  -24.2473    7.3175 N.am      2 UNK        -0.4032 
     80 C         -50.3095  -24.5251    7.8794 C.2       1 UNK         0.5000 
     81 O         -50.4684  -24.7422    9.0838 O.2       1 UNK        -0.5238 
     82 H82       -50.2422  -21.1190    4.3689 H         1 UNK         0.0889 
     83 H83       -51.9895  -21.0923    4.1167 H         1 UNK         0.0889 
     84 H84       -51.0364  -22.4633    3.5460 H         1 UNK         0.0889 
     85 H85       -51.2592  -24.2634    4.8681 H         1 UNK         0.3028 
     86 H86       -52.3563  -24.1188    7.5031 H         1 UNK         0.0864 
     87 H87       -52.0597  -26.5987    7.5060 H         1 UNK         0.0720 
     88 H88       -52.9400  -26.0032    6.1302 H         1 UNK         0.0720 
     89 H89       -51.0670  -29.0913    4.5529 H         1 UNK         0.0814 
     90 H90       -52.6113  -28.2880    4.7176 H         1 UNK         0.0814 
     91 H91       -49.7618  -29.4492    6.8874 H         1 UNK         0.1469 
     92 H92       -52.3376  -30.7704   10.0441 H         1 UNK         0.1381 
     93 H93       -54.0103  -29.0304    6.5038 H         1 UNK         0.1206 
     94 H94       -55.3948  -30.5060    8.1468 H         1 UNK         0.0813 
     95 H95       -54.7142  -30.8151    9.7298 H         1 UNK         0.0813 
     96 H96       -57.0720  -30.0604   10.2141 H         1 UNK         0.0638 
     97 H97       -57.7064  -28.4682    9.8845 H         1 UNK         0.0638 
     98 H98       -56.6164  -27.5854   11.9472 H         1 UNK         0.0568 
     99 H99       -57.4899  -30.0114   14.0777 H         1 UNK         0.3450 
    100 H100      -59.2013  -29.6716   14.1133 H         1 UNK         0.3450 
    101 H101      -55.6731  -30.3748   12.3516 H         1 UNK         0.2987 
    102 H102      -54.2626  -30.5470   14.5307 H         1 UNK         0.0766 
    103 H103      -52.1101  -31.0259   13.2037 H         1 UNK         0.0798 
    104 H104      -52.5576  -29.7158   12.1114 H         1 UNK         0.0798 
    105 H105      -53.5666  -31.1510   12.2367 H         1 UNK         0.0798 
    106 H106      -52.6949  -28.0628   14.4853 H         1 UNK         0.3198 
    107 H107      -51.5442  -28.5586   17.7318 H         1 UNK         0.0843 
    108 H108      -49.7079  -28.5361   15.2710 H         1 UNK         0.0831 
    109 H109      -49.6172  -29.6754   16.6073 H         1 UNK         0.0831 
    110 H110      -49.2699  -27.9762   16.8855 H         1 UNK         0.0831 
    111 H111      -51.3047  -26.6809   15.4499 H         1 UNK         0.3133 
    112 H112      -53.5555  -25.0588   15.4042 H         1 UNK         0.0566 
    113 H113      -53.8537  -22.9764   16.7649 H         1 UNK         0.0814 
    114 H114      -54.6618  -24.3557   17.4895 H         1 UNK         0.0814 
    115 H115      -53.1422  -23.7856   18.1613 H         1 UNK         0.0814 
    116 H116      -51.6884  -24.0842   14.7808 H         1 UNK         0.3091 
    117 H117      -49.0576  -22.5113   16.1035 H         1 UNK         0.0702 
    118 H118      -47.3168  -24.1790   15.3156 H         1 UNK         0.0785 
    119 H119      -48.4829  -25.4715   15.6161 H         1 UNK         0.0785 
    120 H120      -47.8879  -24.4935   16.9477 H         1 UNK         0.0785 
    121 H121      -49.3940  -24.1499   13.6714 H         1 UNK         0.2998 
    122 H122      -51.0539  -21.4788   11.9300 H         1 UNK         0.0697 
    123 H123      -48.4409  -23.0132   11.4656 H         1 UNK         0.0825 
    124 H124      -48.5781  -21.2610   11.5771 H         1 UNK         0.0825 
    125 H125      -49.3696  -22.1183   10.2637 H         1 UNK         0.0825 
    126 H126      -50.6806  -24.0913   11.0375 H         1 UNK         0.3029 
    127 H127      -53.4672  -25.7070   12.5246 H         1 UNK         0.0897 
    128 H128      -54.1462  -25.9389   10.1253 H         1 UNK         0.0792 
    129 H129      -53.1668  -24.5350    9.7077 H         1 UNK         0.0792 
    130 H130      -54.5590  -24.3578   10.7645 H         1 UNK         0.0792 
    131 H131      -51.5340  -26.2797   10.4263 H         1 UNK         0.3086 
    132 H132      -50.3563  -28.8601   11.9817 H         1 UNK         0.0583 
    133 H133      -49.2417  -26.8029   10.0266 H         1 UNK         0.1020 
    134 H134      -50.6297  -27.8012    9.6814 H         1 UNK         0.1020 
    135 H135      -49.1441  -31.3006    8.9221 H         1 UNK         0.0694 
    136 H136      -50.0039  -30.8740   10.3822 H         1 UNK         0.0694 
    137 H137      -48.2704  -28.6724   12.7156 H         1 UNK         0.2989 
    138 H138      -46.1523  -25.9541   13.6130 H         1 UNK         0.1055 
    139 H139      -47.1665  -27.3272   15.4650 H         1 UNK         0.0806 
    140 H140      -45.5490  -27.8613   15.0635 H         1 UNK         0.0806 
    141 H141      -46.9418  -28.7869   14.5166 H         1 UNK         0.0806 
    142 H142      -45.5806  -28.5606   12.4801 H         1 UNK         0.3061 
    143 H143      -43.7872  -27.5137    9.9499 H         1 UNK         0.0734 
    144 H144      -44.3011  -29.9515    9.6219 H         1 UNK         0.0832 
    145 H145      -44.1323  -29.5796   11.3240 H         1 UNK         0.0832 
    146 H146      -45.7376  -29.8061   10.6231 H         1 UNK         0.0832 
    147 H147      -46.5228  -27.3018    9.0827 H         1 UNK         0.3156 
    148 H148      -45.6318  -26.7897    5.7599 H         1 UNK         0.0589 
    149 H149      -47.5179  -28.9609    6.8141 H         1 UNK         0.0808 
    150 H150      -47.7177  -28.1132    5.2781 H         1 UNK         0.0808 
    151 H151      -46.3216  -29.1456    5.5447 H         1 UNK         0.0808 
    152 H152      -48.0962  -26.4924    7.1920 H         1 UNK         0.3098 
    153 H153      -47.9726  -24.3317    9.0788 H         1 UNK         0.0720 
    154 H154      -48.2806  -21.9212    8.2664 H         1 UNK         0.0791 
    155 H155      -47.1957  -22.2801    6.9330 H         1 UNK         0.0791 
    156 H156      -46.6105  -22.3595    8.5907 H         1 UNK         0.0791 
    157 H157      -49.0975  -24.1219    6.3152 H         1 UNK         0.3028 
@<TRIPOS>BOND
     1    1    2 1    
     2    1   82 1    
     3    1   83 1    
     4    1   84 1    
     5    2    3 2    
     6    2    4 am   BACKBONE|DICT|INTERRES
     7    4    5 1    
     8    4   85 1    
     9    5    6 1    
    10    5   80 1    
    11    5   86 1    
    12    6    7 1    
    13    6   87 1    
    14    6   88 1    
    15    7    8 1    
    16    8    9 1    
    17    8   89 1    
    18    8   90 1    
    19    9   10 ar   
    20    9   14 ar   
    21   10   11 ar   
    22   10   91 1    
    23   11   12 ar   
    24   11   58 1    
    25   12   13 ar   
    26   12   92 1    
    27   13   14 ar   
    28   13   15 1    
    29   14   93 1    
    30   15   16 1    
    31   15   94 1    
    32   15   95 1    
    33   16   17 1    
    34   17   18 1    
    35   17   96 1    
    36   17   97 1    
    37   18   19 1    
    38   18   22 1    
    39   18   98 1    
    40   19   20 am   BACKBONE|DICT|INTERRES
    41   19   21 2    
    42   20   99 1    
    43   20  100 1    
    44   22   23 am   BACKBONE|DICT|INTERRES
    45   22  101 1    
    46   23   24 2    
    47   23   25 1    
    48   25   26 1    
    49   25   27 1    
    50   25  102 1    
    51   26  103 1    
    52   26  104 1    
    53   26  105 1    
    54   27   28 am   BACKBONE|DICT|INTERRES
    55   27  106 1    
    56   28   29 2    
    57   28   30 1    
    58   30   31 1    
    59   30   32 1    
    60   30  107 1    
    61   31  108 1    
    62   31  109 1    
    63   31  110 1    
    64   32   33 am   BACKBONE|DICT|INTERRES
    65   32  111 1    
    66   33   34 2    
    67   33   35 1    
    68   35   36 1    
    69   35   37 1    
    70   35  112 1    
    71   36  113 1    
    72   36  114 1    
    73   36  115 1    
    74   37   38 am   BACKBONE|DICT|INTERRES
    75   37  116 1    
    76   38   39 2    
    77   38   40 1    
    78   40   41 1    
    79   40   42 1    
    80   40  117 1    
    81   41  118 1    
    82   41  119 1    
    83   41  120 1    
    84   42   43 am   BACKBONE|DICT|INTERRES
    85   42  121 1    
    86   43   44 2    
    87   43   45 1    
    88   45   46 1    
    89   45   47 1    
    90   45  122 1    
    91   46  123 1    
    92   46  124 1    
    93   46  125 1    
    94   47   48 am   BACKBONE|DICT|INTERRES
    95   47  126 1    
    96   48   49 2    
    97   48   50 1    
    98   50   51 1    
    99   50   52 1    
   100   50  127 1    
   101   51  128 1    
   102   51  129 1    
   103   51  130 1    
   104   52   53 am   BACKBONE|DICT|INTERRES
   105   52  131 1    
   106   53   54 2    
   107   53   55 1    
   108   55   56 1    
   109   55   59 1    
   110   55  132 1    
   111   56   57 1    
   112   56  133 1    
   113   56  134 1    
   114   57   58 1    
   115   58  135 1    
   116   58  136 1    
   117   59   60 am   BACKBONE|DICT|INTERRES
   118   59  137 1    
   119   60   61 2    
   120   60   62 1    
   121   62   63 1    
   122   62   64 1    
   123   62  138 1    
   124   63  139 1    
   125   63  140 1    
   126   63  141 1    
   127   64   65 am   BACKBONE|DICT|INTERRES
   128   64  142 1    
   129   65   66 2    
   130   65   67 1    
   131   67   68 1    
   132   67   69 1    
   133   67  143 1    
   134   68  144 1    
   135   68  145 1    
   136   68  146 1    
   137   69   70 am   BACKBONE|DICT|INTERRES
   138   69  147 1    
   139   70   71 2    
   140   70   72 1    
   141   72   73 1    
   142   72   74 1    
   143   72  148 1    
   144   73  149 1    
   145   73  150 1    
   146   73  151 1    
   147   74   75 am   BACKBONE|DICT|INTERRES
   148   74  152 1    
   149   75   76 2    
   150   75   77 1    
   151   77   78 1    
   152   77   79 1    
   153   77  153 1    
   154   78  154 1    
   155   78  155 1    
   156   78  156 1    
   157   79   80 am   BACKBONE|DICT|INTERRES
   158   79  157 1    
   159   80   81 2    
@<TRIPOS>SUBSTRUCTURE
     1 UNK         1 GROUP             0       ****    0 ROOT    
