@<TRIPOS>MOLECULE
3R207
157   159    1
SMALL
USER_CHARGES


@<TRIPOS>ATOM
      1 CA        -45.6561  -29.4449    7.8417 C.3       0 UNK        -0.1975 
      2 C         -46.4819  -28.4891    6.9948 C.2       0 UNK         0.4852 
      3 O         -45.9427  -27.5353    6.4278 O.2       0 UNK        -0.5216 
      4 N         -47.7915  -28.7514    6.9087 N.am      1 UNK        -0.4461 
      5 CA        -48.7664  -28.0059    6.1054 C.3       1 UNK         0.0864 
      6 C6        -50.1626  -28.6804    6.1003 C.3       14 UNK        -0.0898 
      7 S7        -50.0796  -30.4394    5.5977 S.3       14 UNK        -0.2598 
      8 C8        -51.6688  -31.1240    6.1974 C.3       14 UNK         0.0286 
      9 C9        -51.9622  -30.8795    7.6775 C.ar      14 UNK        -0.0844 
     10 C10       -50.9393  -30.8093    8.6292 C.ar      14 UNK        -0.0881 
     11 C11       -51.2142  -30.4523    9.9522 C.ar      14 UNK        -0.0643 
     12 C12       -52.5422  -30.2609   10.3483 C.ar      14 UNK        -0.0930 
     13 C13       -53.5826  -30.3895    9.4219 C.ar      14 UNK        -0.0827 
     14 C14       -53.2843  -30.6912    8.0899 C.ar      14 UNK        -0.1249 
     15 C15       -55.0302  -30.1852    9.8432 C.3       14 UNK         0.0141 
     16 S16       -55.6291  -28.5415    9.3458 S.3       14 UNK        -0.2313 
     17 C17       -57.3985  -28.6427    9.7777 C.3       14 UNK        -0.0915 
     18 CA        -57.7546  -27.7717   11.0113 C.3       13 UNK         0.0968 
     19 C         -59.2945  -27.5965   11.1604 C.2       13 UNK         0.5732 
     20 N         -59.9100  -27.9903   12.2695 N.am      13 UNK        -0.7310 
     21 O         -59.9443  -27.0791   10.2547 O.2       13 UNK        -0.5035 
     22 N         -57.0877  -28.2661   12.2274 N.am      13 UNK        -0.4233 
     23 C         -56.6820  -27.4933   13.2409 C.2       13 UNK         0.4989 
     24 O         -56.8104  -26.2668   13.2600 O.2       13 UNK        -0.4996 
     25 CA        -56.0387  -28.2181   14.4343 C.3       12 UNK         0.0216 
     26 CB        -55.0638  -29.3350   14.0035 C.3       12 UNK        -0.1964 
     27 N         -55.3320  -27.2502   15.2692 N.am      12 UNK        -0.4276 
     28 C         -55.2156  -27.2983   16.5991 C.2       12 UNK         0.5020 
     29 O         -55.7065  -28.1794   17.3097 O.2       12 UNK        -0.5489 
     30 CA        -54.3962  -26.1643   17.2451 C.3       11 UNK         0.0294 
     31 CB        -55.1479  -25.5533   18.4411 C.3       11 UNK        -0.2019 
     32 N         -53.0482  -26.5552   17.6791 N.am      11 UNK        -0.4493 
     33 C         -52.1525  -27.2931   17.0061 C.2       11 UNK         0.4932 
     34 O         -52.3615  -27.8584   15.9332 O.2       11 UNK        -0.5029 
     35 CA        -50.7439  -27.3372   17.6040 C.3       10 UNK         0.0280 
     36 CB        -50.1025  -28.7306   17.4775 C.3       10 UNK        -0.1976 
     37 N         -49.9603  -26.3743   16.8412 N.am      10 UNK        -0.4242 
     38 C         -49.3259  -25.3088   17.3412 C.2       10 UNK         0.5072 
     39 O         -49.2091  -25.0764   18.5454 O.2       10 UNK        -0.5224 
     40 CA        -48.7476  -24.3129   16.3196 C.3       9 UNK         0.0343 
     41 CB        -47.4296  -24.8382   15.7284 C.3       9 UNK        -0.2003 
     42 N         -49.6815  -23.9977   15.2339 N.am      9 UNK        -0.4272 
     43 C         -50.8638  -23.3800   15.3907 C.2       9 UNK         0.4988 
     44 O         -51.2924  -22.9773   16.4723 O.2       9 UNK        -0.5108 
     45 CA        -51.7171  -23.1804   14.1299 C.3       8 UNK         0.0248 
     46 CB        -51.2455  -21.9486   13.3392 C.3       8 UNK        -0.2001 
     47 N         -51.6657  -24.3690   13.2789 N.am      8 UNK        -0.4140 
     48 C         -52.5399  -25.3831   13.3487 C.2       8 UNK         0.5028 
     49 O         -53.5608  -25.3585   14.0366 O.2       8 UNK        -0.5428 
     50 CA        -52.2537  -26.6350   12.4993 C.3       7 UNK         0.0264 
     51 CB        -53.1493  -26.6363   11.2508 C.3       7 UNK        -0.1988 
     52 N         -50.8574  -26.7779   12.0807 N.am      7 UNK        -0.4454 
     53 C         -49.8216  -27.0173   12.8988 C.2       7 UNK         0.5027 
     54 O         -49.9199  -27.1453   14.1172 O.2       7 UNK        -0.5083 
     55 CA        -48.4208  -27.0439   12.2550 C.3       6 UNK         0.0844 
     56 C56       -48.0170  -28.4688   11.7984 C.3       14 UNK        -0.0967 
     57 S57       -48.8747  -29.0154   10.2835 S.3       14 UNK        -0.2604 
     58 C58       -50.0710  -30.2312   10.9343 C.3       14 UNK         0.0134 
     59 N         -48.2561  -26.0419   11.1953 N.am      6 UNK        -0.4116 
     60 C         -48.4323  -24.7198   11.3372 C.2       5 UNK         0.5034 
     61 O         -48.8148  -24.1912   12.3841 O.2       5 UNK        -0.5045 
     62 CA        -48.1419  -23.8628   10.0915 C.3       5 UNK         0.0224 
     63 CB        -48.0710  -22.3514   10.3937 C.3       5 UNK        -0.1978 
     64 N         -46.9443  -24.3232    9.3777 N.am      5 UNK        -0.4737 
     65 C         -45.6833  -24.3581    9.8387 C.2       4 UNK         0.5027 
     66 O         -45.3338  -23.9263   10.9370 O.2       4 UNK        -0.5211 
     67 CA        -44.6319  -25.0190    8.9323 C.3       4 UNK         0.0297 
     68 CB        -44.4308  -26.4824    9.3516 C.3       4 UNK        -0.1993 
     69 N         -44.9964  -24.9530    7.5132 N.am      4 UNK        -0.4486 
     70 C         -44.8133  -23.8599    6.7578 C.2       3 UNK         0.4961 
     71 O         -44.2418  -22.8414    7.1487 O.2       3 UNK        -0.5105 
     72 CA        -45.3905  -23.8961    5.3348 C.3       3 UNK         0.0299 
     73 CB        -44.5628  -24.8147    4.4207 C.3       3 UNK        -0.1972 
     74 N         -46.7945  -24.3101    5.3211 N.am      3 UNK        -0.4305 
     75 C         -47.8136  -23.5865    5.8132 C.2       2 UNK         0.5006 
     76 O         -47.6826  -22.4642    6.3014 O.2       2 UNK        -0.5106 
     77 CA        -49.2236  -24.2058    5.7492 C.3       2 UNK         0.0296 
     78 CB        -50.0378  -23.5733    4.6084 C.3       2 UNK        -0.2002 
     79 N         -49.2095  -25.6610    5.5794 N.am      2 UNK        -0.4032 
     80 C         -48.8644  -26.5281    6.5401 C.2       1 UNK         0.5000 
     81 O         -48.6106  -26.1947    7.7027 O.2       1 UNK        -0.5238 
     82 H82       -45.8049  -30.4733    7.5136 H         1 UNK         0.0889 
     83 H83       -45.9427  -29.3732    8.8906 H         1 UNK         0.0889 
     84 H84       -44.5940  -29.2160    7.7592 H         1 UNK         0.0889 
     85 H85       -48.1743  -29.5234    7.4336 H         1 UNK         0.3028 
     86 H86       -48.3864  -28.0185    5.0815 H         1 UNK         0.0864 
     87 H87       -50.8361  -28.1676    5.4113 H         1 UNK         0.0720 
     88 H88       -50.6183  -28.5952    7.0876 H         1 UNK         0.0720 
     89 H89       -51.6776  -32.1990    6.0138 H         1 UNK         0.0814 
     90 H90       -52.4669  -30.7003    5.5856 H         1 UNK         0.0814 
     91 H91       -49.9128  -30.9655    8.3304 H         1 UNK         0.1469 
     92 H92       -52.7654  -29.9938   11.3721 H         1 UNK         0.1381 
     93 H93       -54.0876  -30.7571    7.3683 H         1 UNK         0.1206 
     94 H94       -55.1361  -30.2997   10.9225 H         1 UNK         0.0813 
     95 H95       -55.6528  -30.9552    9.3849 H         1 UNK         0.0813 
     96 H96       -57.6895  -29.6818    9.9400 H         1 UNK         0.0638 
     97 H97       -57.9523  -28.3089    8.8982 H         1 UNK         0.0638 
     98 H98       -57.3790  -26.7671   10.8066 H         1 UNK         0.0568 
     99 H99       -60.9066  -27.8632   12.3502 H         1 UNK         0.3450 
    100 H100      -59.3924  -28.4094   13.0242 H         1 UNK         0.3450 
    101 H101      -56.9730  -29.2656   12.2940 H         1 UNK         0.2987 
    102 H102      -56.8523  -28.6606   15.0126 H         1 UNK         0.0766 
    103 H103      -54.5171  -29.7347   14.8582 H         1 UNK         0.0798 
    104 H104      -54.3293  -28.9727   13.2844 H         1 UNK         0.0798 
    105 H105      -55.5897  -30.1733   13.5464 H         1 UNK         0.0798 
    106 H106      -54.8763  -26.4883   14.7650 H         1 UNK         0.3198 
    107 H107      -54.2697  -25.3701   16.5080 H         1 UNK         0.0843 
    108 H108      -55.2432  -26.2638   19.2633 H         1 UNK         0.0831 
    109 H109      -56.1561  -25.2509   18.1544 H         1 UNK         0.0831 
    110 H110      -54.6417  -24.6652   18.8198 H         1 UNK         0.0831 
    111 H111      -52.7415  -26.1429   18.5483 H         1 UNK         0.3133 
    112 H112      -50.7901  -27.0677   18.6613 H         1 UNK         0.0566 
    113 H113      -49.1061  -28.7465   17.9188 H         1 UNK         0.0814 
    114 H114      -50.7009  -29.4827   17.9928 H         1 UNK         0.0814 
    115 H115      -50.0097  -29.0420   16.4358 H         1 UNK         0.0814 
    116 H116      -50.0065  -26.4966   15.8292 H         1 UNK         0.3091 
    117 H117      -48.5343  -23.3813   16.8479 H         1 UNK         0.0702 
    118 H118      -46.9971  -24.1268   15.0242 H         1 UNK         0.0785 
    119 H119      -47.5709  -25.7838   15.2052 H         1 UNK         0.0785 
    120 H120      -46.6920  -25.0083   16.5138 H         1 UNK         0.0785 
    121 H121      -49.3839  -24.2389   14.2942 H         1 UNK         0.2998 
    122 H122      -52.7467  -22.9976   14.4454 H         1 UNK         0.0697 
    123 H123      -50.2021  -22.0306   13.0346 H         1 UNK         0.0825 
    124 H124      -51.3352  -21.0446   13.9429 H         1 UNK         0.0825 
    125 H125      -51.8462  -21.7996   12.4419 H         1 UNK         0.0825 
    126 H126      -50.8394  -24.4735   12.7027 H         1 UNK         0.3029 
    127 H127      -52.5022  -27.5026   13.1134 H         1 UNK         0.0897 
    128 H128      -54.2045  -26.6195   11.5271 H         1 UNK         0.0792 
    129 H129      -52.9898  -27.5252   10.6426 H         1 UNK         0.0792 
    130 H130      -52.9649  -25.7655   10.6205 H         1 UNK         0.0792 
    131 H131      -50.6687  -26.7015   11.0913 H         1 UNK         0.3086 
    132 H132      -47.7212  -26.7579   13.0423 H         1 UNK         0.0583 
    133 H133      -46.9459  -28.4876   11.5913 H         1 UNK         0.1020 
    134 H134      -48.1659  -29.1945   12.6007 H         1 UNK         0.1020 
    135 H135      -49.5622  -31.1770   11.1244 H         1 UNK         0.0694 
    136 H136      -50.4582  -29.8814   11.8925 H         1 UNK         0.0694 
    137 H137      -47.9947  -26.3949   10.2846 H         1 UNK         0.2989 
    138 H138      -48.9822  -24.0216    9.4137 H         1 UNK         0.1055 
    139 H139      -49.0211  -21.9880   10.7866 H         1 UNK         0.0806 
    140 H140      -47.8534  -21.7784    9.4921 H         1 UNK         0.0806 
    141 H141      -47.3047  -22.1192   11.1337 H         1 UNK         0.0806 
    142 H142      -47.1277  -24.7626    8.4833 H         1 UNK         0.3061 
    143 H143      -43.6846  -24.4950    9.0782 H         1 UNK         0.0734 
    144 H144      -43.7301  -26.9957    8.6931 H         1 UNK         0.0832 
    145 H145      -44.0294  -26.5425   10.3641 H         1 UNK         0.0832 
    146 H146      -45.3722  -27.0307    9.3475 H         1 UNK         0.0832 
    147 H147      -45.4321  -25.7763    7.1026 H         1 UNK         0.3156 
    148 H148      -45.3367  -22.8839    4.9277 H         1 UNK         0.0589 
    149 H149      -44.5991  -25.8555    4.7445 H         1 UNK         0.0808 
    150 H150      -44.9172  -24.7722    3.3907 H         1 UNK         0.0808 
    151 H151      -43.5145  -24.5132    4.4134 H         1 UNK         0.0808 
    152 H152      -46.9899  -25.2277    4.9494 H         1 UNK         0.3098 
    153 H153      -49.7235  -23.9749    6.6925 H         1 UNK         0.0720 
    154 H154      -49.5913  -23.7720    3.6331 H         1 UNK         0.0791 
    155 H155      -50.0962  -22.4901    4.7248 H         1 UNK         0.0791 
    156 H156      -51.0607  -23.9503    4.5940 H         1 UNK         0.0791 
    157 H157      -49.4234  -26.0095    4.6554 H         1 UNK         0.3028 
@<TRIPOS>BOND
     1    1    2 1    
     2    1   82 1    
     3    1   83 1    
     4    1   84 1    
     5    2    3 2    
     6    2    4 am   BACKBONE|DICT|INTERRES
     7    4    5 1    
     8    4   85 1    
     9    5    6 1    
    10    5   80 1    
    11    5   86 1    
    12    6    7 1    
    13    6   87 1    
    14    6   88 1    
    15    7    8 1    
    16    8    9 1    
    17    8   89 1    
    18    8   90 1    
    19    9   10 ar   
    20    9   14 ar   
    21   10   11 ar   
    22   10   91 1    
    23   11   12 ar   
    24   11   58 1    
    25   12   13 ar   
    26   12   92 1    
    27   13   14 ar   
    28   13   15 1    
    29   14   93 1    
    30   15   16 1    
    31   15   94 1    
    32   15   95 1    
    33   16   17 1    
    34   17   18 1    
    35   17   96 1    
    36   17   97 1    
    37   18   19 1    
    38   18   22 1    
    39   18   98 1    
    40   19   20 am   BACKBONE|DICT|INTERRES
    41   19   21 2    
    42   20   99 1    
    43   20  100 1    
    44   22   23 am   BACKBONE|DICT|INTERRES
    45   22  101 1    
    46   23   24 2    
    47   23   25 1    
    48   25   26 1    
    49   25   27 1    
    50   25  102 1    
    51   26  103 1    
    52   26  104 1    
    53   26  105 1    
    54   27   28 am   BACKBONE|DICT|INTERRES
    55   27  106 1    
    56   28   29 2    
    57   28   30 1    
    58   30   31 1    
    59   30   32 1    
    60   30  107 1    
    61   31  108 1    
    62   31  109 1    
    63   31  110 1    
    64   32   33 am   BACKBONE|DICT|INTERRES
    65   32  111 1    
    66   33   34 2    
    67   33   35 1    
    68   35   36 1    
    69   35   37 1    
    70   35  112 1    
    71   36  113 1    
    72   36  114 1    
    73   36  115 1    
    74   37   38 am   BACKBONE|DICT|INTERRES
    75   37  116 1    
    76   38   39 2    
    77   38   40 1    
    78   40   41 1    
    79   40   42 1    
    80   40  117 1    
    81   41  118 1    
    82   41  119 1    
    83   41  120 1    
    84   42   43 am   BACKBONE|DICT|INTERRES
    85   42  121 1    
    86   43   44 2    
    87   43   45 1    
    88   45   46 1    
    89   45   47 1    
    90   45  122 1    
    91   46  123 1    
    92   46  124 1    
    93   46  125 1    
    94   47   48 am   BACKBONE|DICT|INTERRES
    95   47  126 1    
    96   48   49 2    
    97   48   50 1    
    98   50   51 1    
    99   50   52 1    
   100   50  127 1    
   101   51  128 1    
   102   51  129 1    
   103   51  130 1    
   104   52   53 am   BACKBONE|DICT|INTERRES
   105   52  131 1    
   106   53   54 2    
   107   53   55 1    
   108   55   56 1    
   109   55   59 1    
   110   55  132 1    
   111   56   57 1    
   112   56  133 1    
   113   56  134 1    
   114   57   58 1    
   115   58  135 1    
   116   58  136 1    
   117   59   60 am   BACKBONE|DICT|INTERRES
   118   59  137 1    
   119   60   61 2    
   120   60   62 1    
   121   62   63 1    
   122   62   64 1    
   123   62  138 1    
   124   63  139 1    
   125   63  140 1    
   126   63  141 1    
   127   64   65 am   BACKBONE|DICT|INTERRES
   128   64  142 1    
   129   65   66 2    
   130   65   67 1    
   131   67   68 1    
   132   67   69 1    
   133   67  143 1    
   134   68  144 1    
   135   68  145 1    
   136   68  146 1    
   137   69   70 am   BACKBONE|DICT|INTERRES
   138   69  147 1    
   139   70   71 2    
   140   70   72 1    
   141   72   73 1    
   142   72   74 1    
   143   72  148 1    
   144   73  149 1    
   145   73  150 1    
   146   73  151 1    
   147   74   75 am   BACKBONE|DICT|INTERRES
   148   74  152 1    
   149   75   76 2    
   150   75   77 1    
   151   77   78 1    
   152   77   79 1    
   153   77  153 1    
   154   78  154 1    
   155   78  155 1    
   156   78  156 1    
   157   79   80 am   BACKBONE|DICT|INTERRES
   158   79  157 1    
   159   80   81 2    
@<TRIPOS>SUBSTRUCTURE
     1 UNK         1 GROUP             0       ****    0 ROOT    
