@<TRIPOS>MOLECULE
3R207
157   159    1
SMALL
USER_CHARGES


@<TRIPOS>ATOM
      1 CA        -45.5943  -30.5084    8.0402 C.3       0 UNK        -0.1975 
      2 C         -45.9782  -30.2255    6.5956 C.2       0 UNK         0.4852 
      3 O         -45.1221  -29.8416    5.7981 O.2       0 UNK        -0.5216 
      4 N         -47.2603  -30.4098    6.2538 N.am      1 UNK        -0.4461 
      5 CA        -47.8235  -30.1637    4.9190 C.3       1 UNK         0.0864 
      6 C6        -49.1488  -30.9391    4.6936 C.3       14 UNK        -0.0898 
      7 S7        -50.3832  -30.6942    6.0153 S.3       14 UNK        -0.2598 
      8 C8        -51.6570  -29.7086    5.1690 C.3       14 UNK         0.0286 
      9 C9        -52.6529  -29.1822    6.1883 C.ar      14 UNK        -0.0844 
     10 C10       -52.3860  -27.9857    6.8582 C.ar      14 UNK        -0.0881 
     11 C11       -53.2277  -27.5481    7.8826 C.ar      14 UNK        -0.0643 
     12 C12       -54.3627  -28.2923    8.2079 C.ar      14 UNK        -0.0930 
     13 C13       -54.6478  -29.4890    7.5424 C.ar      14 UNK        -0.0827 
     14 C14       -53.7911  -29.9245    6.5247 C.ar      14 UNK        -0.1249 
     15 C15       -55.8067  -30.3693    7.9987 C.3       14 UNK         0.0141 
     16 S16       -57.3405  -29.4365    8.3255 S.3       14 UNK        -0.2313 
     17 C17       -58.1406  -30.4875    9.5854 C.3       14 UNK        -0.0915 
     18 CA        -58.2166  -29.8005   10.9762 C.3       13 UNK         0.0968 
     19 C         -59.0766  -30.6442   11.9569 C.2       13 UNK         0.5732 
     20 N         -60.3896  -30.4592   11.9478 N.am      13 UNK        -0.7310 
     21 O         -58.5703  -31.4895   12.6935 O.2       13 UNK        -0.5035 
     22 N         -56.8831  -29.4973   11.5237 N.am      13 UNK        -0.4233 
     23 C         -56.6619  -28.6600   12.5451 C.2       13 UNK         0.4989 
     24 O         -57.5489  -28.0018   13.0986 O.2       13 UNK        -0.4996 
     25 CA        -55.2068  -28.5132   13.0196 C.3       12 UNK         0.0216 
     26 CB        -54.3148  -27.9289   11.9059 C.3       12 UNK        -0.1964 
     27 N         -55.1994  -27.6522   14.2024 N.am      12 UNK        -0.4276 
     28 C         -54.1627  -27.3935   15.0052 C.2       12 UNK         0.5020 
     29 O         -53.0247  -27.8418   14.8428 O.2       12 UNK        -0.5489 
     30 CA        -54.4467  -26.4994   16.2164 C.3       11 UNK         0.0294 
     31 CB        -54.8660  -27.3493   17.4317 C.3       11 UNK        -0.2019 
     32 N         -53.2346  -25.7422   16.5114 N.am      11 UNK        -0.4493 
     33 C         -53.1419  -24.6654   17.3004 C.2       11 UNK         0.4932 
     34 O         -54.1020  -24.1855   17.9055 O.2       11 UNK        -0.5029 
     35 CA        -51.7621  -23.9841   17.4102 C.3       10 UNK         0.0280 
     36 CB        -51.5010  -23.3755   18.8043 C.3       10 UNK        -0.1976 
     37 N         -50.6460  -24.8306   16.9736 N.am      10 UNK        -0.4242 
     38 C         -50.1576  -25.9336   17.5595 C.2       10 UNK         0.5072 
     39 O         -50.5753  -26.4006   18.6198 O.2       10 UNK        -0.5224 
     40 CA        -49.0118  -26.6529   16.8245 C.3       9 UNK         0.0343 
     41 CB        -49.5771  -27.7397   15.8959 C.3       9 UNK        -0.2003 
     42 N         -48.1582  -25.7493   16.0463 N.am      9 UNK        -0.4272 
     43 C         -47.3178  -24.8480   16.5761 C.2       9 UNK         0.4988 
     44 O         -47.1285  -24.7158   17.7859 O.2       9 UNK        -0.5108 
     45 CA        -46.5699  -23.9287   15.5937 C.3       8 UNK         0.0248 
     46 CB        -45.3612  -24.6509   14.9766 C.3       8 UNK        -0.2001 
     47 N         -47.4350  -23.4060   14.5321 N.am      8 UNK        -0.4140 
     48 C         -48.4481  -22.5496   14.7358 C.2       8 UNK         0.5028 
     49 O         -48.7238  -22.0597   15.8311 O.2       8 UNK        -0.5428 
     50 CA        -49.3247  -22.1992   13.5214 C.3       7 UNK         0.0264 
     51 CB        -48.6724  -21.0932   12.6768 C.3       7 UNK        -0.1988 
     52 N         -49.6126  -23.3577   12.6746 N.am      7 UNK        -0.4454 
     53 C         -50.3058  -24.4383   13.0615 C.2       7 UNK         0.5027 
     54 O         -50.8380  -24.5497   14.1650 O.2       7 UNK        -0.5083 
     55 CA        -50.3692  -25.6147   12.0721 C.3       6 UNK         0.0844 
     56 C56       -51.4931  -25.4142   11.0281 C.3       14 UNK        -0.0967 
     57 S57       -51.5656  -26.8370    9.8980 S.3       14 UNK        -0.2604 
     58 C58       -52.8476  -26.3380    8.7146 C.3       14 UNK         0.0134 
     59 N         -49.0650  -25.8620   11.4512 N.am      6 UNK        -0.4116 
     60 C         -47.9693  -26.2846   12.0933 C.2       5 UNK         0.5034 
     61 O         -47.9277  -26.5302   13.2977 O.2       5 UNK        -0.5045 
     62 CA        -46.6904  -26.4053   11.2515 C.3       5 UNK         0.0224 
     63 CB        -46.6432  -27.7539   10.5162 C.3       5 UNK        -0.1978 
     64 N         -46.5703  -25.3105   10.2857 N.am      5 UNK        -0.4737 
     65 C         -46.3327  -24.0357   10.6293 C.2       4 UNK         0.5027 
     66 O         -46.1353  -23.6666   11.7871 O.2       4 UNK        -0.5211 
     67 CA        -46.3790  -22.9923    9.4989 C.3       4 UNK         0.0297 
     68 CB        -45.0191  -22.9045    8.7890 C.3       4 UNK        -0.1993 
     69 N         -47.4314  -23.2638    8.5144 N.am      4 UNK        -0.4486 
     70 C         -48.7416  -23.3029    8.7957 C.2       3 UNK         0.4961 
     71 O         -49.2038  -23.0437    9.9054 O.2       3 UNK        -0.5105 
     72 CA        -49.7062  -23.7336    7.6774 C.3       3 UNK         0.0299 
     73 CB        -50.4284  -22.5109    7.0911 C.3       3 UNK        -0.1972 
     74 N         -49.0904  -24.5030    6.5915 N.am      3 UNK        -0.4305 
     75 C         -48.5232  -25.7098    6.7206 C.2       2 UNK         0.5006 
     76 O         -48.3812  -26.3003    7.7946 O.2       2 UNK        -0.5106 
     77 CA        -47.9791  -26.3299    5.4317 C.3       2 UNK         0.0296 
     78 CB        -46.5751  -25.7811    5.1150 C.3       2 UNK        -0.2002 
     79 N         -47.9216  -27.7804    5.5798 N.am      2 UNK        -0.4032 
     80 C         -47.9602  -28.6633    4.5727 C.2       1 UNK         0.5000 
     81 O         -48.0849  -28.3358    3.3905 O.2       1 UNK        -0.5238 
     82 H82       -46.4698  -30.6225    8.6794 H         1 UNK         0.0889 
     83 H83       -44.9915  -29.6916    8.4356 H         1 UNK         0.0889 
     84 H84       -45.0060  -31.4237    8.0988 H         1 UNK         0.0889 
     85 H85       -47.9251  -30.7327    6.9439 H         1 UNK         0.3028 
     86 H86       -47.1067  -30.5589    4.1954 H         1 UNK         0.0864 
     87 H87       -49.5853  -30.7004    3.7216 H         1 UNK         0.0720 
     88 H88       -48.9309  -32.0074    4.6543 H         1 UNK         0.0720 
     89 H89       -52.1604  -30.3214    4.4196 H         1 UNK         0.0814 
     90 H90       -51.1908  -28.8782    4.6358 H         1 UNK         0.0814 
     91 H91       -51.4854  -27.4303    6.6332 H         1 UNK         0.1469 
     92 H92       -55.0005  -27.9623    9.0152 H         1 UNK         0.1381 
     93 H93       -53.9790  -30.8671    6.0286 H         1 UNK         0.1206 
     94 H94       -56.0221  -31.1424    7.2596 H         1 UNK         0.0813 
     95 H95       -55.4883  -30.8859    8.9047 H         1 UNK         0.0813 
     96 H96       -57.6305  -31.4497    9.6562 H         1 UNK         0.0638 
     97 H97       -59.1448  -30.7095    9.2194 H         1 UNK         0.0638 
     98 H98       -58.7284  -28.8452   10.8408 H         1 UNK         0.0568 
     99 H99       -60.8165  -29.7777   11.3396 H         1 UNK         0.3450 
    100 H100      -60.9655  -31.0082   12.5667 H         1 UNK         0.3450 
    101 H101      -56.1137  -30.0223   11.1385 H         1 UNK         0.2987 
    102 H102      -54.8365  -29.4985   13.3094 H         1 UNK         0.0766 
    103 H103      -53.2976  -27.7478   12.2508 H         1 UNK         0.0798 
    104 H104      -54.7086  -26.9872   11.5220 H         1 UNK         0.0798 
    105 H105      -54.2317  -28.6233   11.0710 H         1 UNK         0.0798 
    106 H106      -56.1162  -27.2740   14.4164 H         1 UNK         0.3198 
    107 H107      -55.2450  -25.7987   15.9624 H         1 UNK         0.0843 
    108 H108      -55.7478  -27.9499   17.2046 H         1 UNK         0.0831 
    109 H109      -55.1145  -26.7272   18.2914 H         1 UNK         0.0831 
    110 H110      -54.0723  -28.0342   17.7332 H         1 UNK         0.0831 
    111 H111      -52.4146  -26.0660   16.0112 H         1 UNK         0.3133 
    112 H112      -51.7869  -23.1579   16.6981 H         1 UNK         0.0566 
    113 H113      -50.5221  -22.8978   18.8500 H         1 UNK         0.0814 
    114 H114      -52.2434  -22.6133   19.0435 H         1 UNK         0.0814 
    115 H115      -51.5463  -24.1281   19.5918 H         1 UNK         0.0814 
    116 H116      -50.2909  -24.6029   16.0493 H         1 UNK         0.3091 
    117 H117      -48.3896  -27.1386   17.5791 H         1 UNK         0.0702 
    118 H118      -48.7790  -28.3221   15.4353 H         1 UNK         0.0785 
    119 H119      -50.1815  -27.3112   15.0952 H         1 UNK         0.0785 
    120 H120      -50.2125  -28.4355   16.4457 H         1 UNK         0.0785 
    121 H121      -48.1924  -25.8506   15.0343 H         1 UNK         0.2998 
    122 H122      -46.1944  -23.0753   16.1623 H         1 UNK         0.0697 
    123 H123      -45.6627  -25.5116   14.3798 H         1 UNK         0.0825 
    124 H124      -44.6858  -25.0130   15.7527 H         1 UNK         0.0825 
    125 H125      -44.7876  -23.9838   14.3327 H         1 UNK         0.0825 
    126 H126      -47.2341  -23.7093   13.5849 H         1 UNK         0.3029 
    127 H127      -50.2775  -21.8229   13.9002 H         1 UNK         0.0897 
    128 H128      -49.3191  -20.7907   11.8529 H         1 UNK         0.0792 
    129 H129      -48.4767  -20.2055   13.2797 H         1 UNK         0.0792 
    130 H130      -47.7215  -21.4166   12.2521 H         1 UNK         0.0792 
    131 H131      -49.2734  -23.3177   11.7145 H         1 UNK         0.3086 
    132 H132      -50.6172  -26.5045   12.6558 H         1 UNK         0.0583 
    133 H133      -52.4609  -25.3139   11.5235 H         1 UNK         0.1020 
    134 H134      -51.3440  -24.5015   10.4496 H         1 UNK         0.1020 
    135 H135      -53.7146  -25.9474    9.2496 H         1 UNK         0.0694 
    136 H136      -52.4808  -25.5367    8.0729 H         1 UNK         0.0694 
    137 H137      -49.0061  -25.6980   10.4565 H         1 UNK         0.2989 
    138 H138      -45.8383  -26.3561   11.9334 H         1 UNK         0.1055 
    139 H139      -46.6925  -28.5839   11.2225 H         1 UNK         0.0806 
    140 H140      -45.7167  -27.8624    9.9530 H         1 UNK         0.0806 
    141 H141      -47.4755  -27.8687    9.8207 H         1 UNK         0.0806 
    142 H142      -46.7804  -25.5265    9.3193 H         1 UNK         0.3061 
    143 H143      -46.5917  -22.0226    9.9541 H         1 UNK         0.0734 
    144 H144      -44.2223  -22.6866    9.5017 H         1 UNK         0.0832 
    145 H145      -44.7611  -23.8387    8.2883 H         1 UNK         0.0832 
    146 H146      -45.0101  -22.1090    8.0437 H         1 UNK         0.0832 
    147 H147      -47.1380  -23.4789    7.5733 H         1 UNK         0.3156 
    148 H148      -50.4538  -24.3768    8.1420 H         1 UNK         0.0589 
    149 H149      -49.7369  -21.8383    6.5821 H         1 UNK         0.0808 
    150 H150      -51.1980  -22.8072    6.3781 H         1 UNK         0.0808 
    151 H151      -50.9230  -21.9361    7.8758 H         1 UNK         0.0808 
    152 H152      -49.1374  -24.0895    5.6707 H         1 UNK         0.3098 
    153 H153      -48.6631  -26.0801    4.6174 H         1 UNK         0.0720 
    154 H154      -46.1880  -26.1959    4.1840 H         1 UNK         0.0791 
    155 H155      -45.8629  -26.0201    5.9061 H         1 UNK         0.0791 
    156 H156      -46.5888  -24.6966    5.0011 H         1 UNK         0.0791 
    157 H157      -47.8748  -28.1093    6.5357 H         1 UNK         0.3028 
@<TRIPOS>BOND
     1    1    2 1    
     2    1   82 1    
     3    1   83 1    
     4    1   84 1    
     5    2    3 2    
     6    2    4 am   BACKBONE|DICT|INTERRES
     7    4    5 1    
     8    4   85 1    
     9    5    6 1    
    10    5   80 1    
    11    5   86 1    
    12    6    7 1    
    13    6   87 1    
    14    6   88 1    
    15    7    8 1    
    16    8    9 1    
    17    8   89 1    
    18    8   90 1    
    19    9   10 ar   
    20    9   14 ar   
    21   10   11 ar   
    22   10   91 1    
    23   11   12 ar   
    24   11   58 1    
    25   12   13 ar   
    26   12   92 1    
    27   13   14 ar   
    28   13   15 1    
    29   14   93 1    
    30   15   16 1    
    31   15   94 1    
    32   15   95 1    
    33   16   17 1    
    34   17   18 1    
    35   17   96 1    
    36   17   97 1    
    37   18   19 1    
    38   18   22 1    
    39   18   98 1    
    40   19   20 am   BACKBONE|DICT|INTERRES
    41   19   21 2    
    42   20   99 1    
    43   20  100 1    
    44   22   23 am   BACKBONE|DICT|INTERRES
    45   22  101 1    
    46   23   24 2    
    47   23   25 1    
    48   25   26 1    
    49   25   27 1    
    50   25  102 1    
    51   26  103 1    
    52   26  104 1    
    53   26  105 1    
    54   27   28 am   BACKBONE|DICT|INTERRES
    55   27  106 1    
    56   28   29 2    
    57   28   30 1    
    58   30   31 1    
    59   30   32 1    
    60   30  107 1    
    61   31  108 1    
    62   31  109 1    
    63   31  110 1    
    64   32   33 am   BACKBONE|DICT|INTERRES
    65   32  111 1    
    66   33   34 2    
    67   33   35 1    
    68   35   36 1    
    69   35   37 1    
    70   35  112 1    
    71   36  113 1    
    72   36  114 1    
    73   36  115 1    
    74   37   38 am   BACKBONE|DICT|INTERRES
    75   37  116 1    
    76   38   39 2    
    77   38   40 1    
    78   40   41 1    
    79   40   42 1    
    80   40  117 1    
    81   41  118 1    
    82   41  119 1    
    83   41  120 1    
    84   42   43 am   BACKBONE|DICT|INTERRES
    85   42  121 1    
    86   43   44 2    
    87   43   45 1    
    88   45   46 1    
    89   45   47 1    
    90   45  122 1    
    91   46  123 1    
    92   46  124 1    
    93   46  125 1    
    94   47   48 am   BACKBONE|DICT|INTERRES
    95   47  126 1    
    96   48   49 2    
    97   48   50 1    
    98   50   51 1    
    99   50   52 1    
   100   50  127 1    
   101   51  128 1    
   102   51  129 1    
   103   51  130 1    
   104   52   53 am   BACKBONE|DICT|INTERRES
   105   52  131 1    
   106   53   54 2    
   107   53   55 1    
   108   55   56 1    
   109   55   59 1    
   110   55  132 1    
   111   56   57 1    
   112   56  133 1    
   113   56  134 1    
   114   57   58 1    
   115   58  135 1    
   116   58  136 1    
   117   59   60 am   BACKBONE|DICT|INTERRES
   118   59  137 1    
   119   60   61 2    
   120   60   62 1    
   121   62   63 1    
   122   62   64 1    
   123   62  138 1    
   124   63  139 1    
   125   63  140 1    
   126   63  141 1    
   127   64   65 am   BACKBONE|DICT|INTERRES
   128   64  142 1    
   129   65   66 2    
   130   65   67 1    
   131   67   68 1    
   132   67   69 1    
   133   67  143 1    
   134   68  144 1    
   135   68  145 1    
   136   68  146 1    
   137   69   70 am   BACKBONE|DICT|INTERRES
   138   69  147 1    
   139   70   71 2    
   140   70   72 1    
   141   72   73 1    
   142   72   74 1    
   143   72  148 1    
   144   73  149 1    
   145   73  150 1    
   146   73  151 1    
   147   74   75 am   BACKBONE|DICT|INTERRES
   148   74  152 1    
   149   75   76 2    
   150   75   77 1    
   151   77   78 1    
   152   77   79 1    
   153   77  153 1    
   154   78  154 1    
   155   78  155 1    
   156   78  156 1    
   157   79   80 am   BACKBONE|DICT|INTERRES
   158   79  157 1    
   159   80   81 2    
@<TRIPOS>SUBSTRUCTURE
     1 UNK         1 GROUP             0       ****    0 ROOT    
