@<TRIPOS>MOLECULE
3R207
157   159    1
SMALL
USER_CHARGES


@<TRIPOS>ATOM
      1 CA        -44.3331  -30.9752    4.3266 C.3       0 UNK        -0.1975 
      2 C         -45.7705  -30.4848    4.4200 C.2       0 UNK         0.4852 
      3 O         -46.3647  -30.1383    3.3985 O.2       0 UNK        -0.5216 
      4 N         -46.3320  -30.4555    5.6373 N.am      1 UNK        -0.4461 
      5 CA        -47.6979  -29.9958    5.9258 C.3       1 UNK         0.0864 
      6 C6        -48.1406  -30.4544    7.3378 C.3       14 UNK        -0.0898 
      7 S7        -49.9529  -30.5003    7.5189 S.3       14 UNK        -0.2598 
      8 C8        -50.1865  -29.5748    9.0659 C.3       14 UNK         0.0286 
      9 C9        -51.5740  -28.9612    9.1153 C.ar      14 UNK        -0.0844 
     10 C10       -51.7564  -27.6389    8.7069 C.ar      14 UNK        -0.0881 
     11 C11       -53.0210  -27.0477    8.7557 C.ar      14 UNK        -0.0643 
     12 C12       -54.1150  -27.8019    9.1935 C.ar      14 UNK        -0.0930 
     13 C13       -53.9491  -29.1362    9.5800 C.ar      14 UNK        -0.0827 
     14 C14       -52.6729  -29.7077    9.5509 C.ar      14 UNK        -0.1249 
     15 C15       -55.1511  -29.9684   10.0008 C.3       14 UNK         0.0141 
     16 S16       -55.3383  -29.9968   11.8065 S.3       14 UNK        -0.2313 
     17 C17       -56.8725  -30.9731   11.9868 C.3       14 UNK        -0.0915 
     18 CA        -58.1275  -30.1024   12.2710 C.3       13 UNK         0.0968 
     19 C         -59.4010  -30.9888   12.3929 C.2       13 UNK         0.5732 
     20 N         -60.0521  -31.0674   13.5473 N.am      13 UNK        -0.7310 
     21 O         -59.8076  -31.6143   11.4165 O.2       13 UNK        -0.5035 
     22 N         -57.8910  -29.1819   13.3927 N.am      13 UNK        -0.4233 
     23 C         -58.6115  -28.0921   13.6873 C.2       13 UNK         0.4989 
     24 O         -59.6518  -27.7716   13.1120 O.2       13 UNK        -0.4996 
     25 CA        -58.0454  -27.1860   14.7969 C.3       12 UNK         0.0216 
     26 CB        -58.5951  -27.5994   16.1715 C.3       12 UNK        -0.1964 
     27 N         -56.5792  -27.2097   14.8298 N.am      12 UNK        -0.4276 
     28 C         -55.7838  -26.6831   13.8900 C.2       12 UNK         0.5020 
     29 O         -56.1973  -25.9690   12.9744 O.2       12 UNK        -0.5489 
     30 CA        -54.2865  -27.0361   13.9865 C.3       11 UNK         0.0294 
     31 CB        -53.4621  -26.4519   12.8259 C.3       11 UNK        -0.2019 
     32 N         -53.6711  -26.6357   15.2530 N.am      11 UNK        -0.4493 
     33 C         -53.8331  -27.2364   16.4385 C.2       11 UNK         0.4932 
     34 O         -54.6220  -28.1649   16.6285 O.2       11 UNK        -0.5029 
     35 CA        -52.9134  -26.7497   17.5760 C.3       10 UNK         0.0280 
     36 CB        -53.2584  -27.3904   18.9334 C.3       10 UNK        -0.1976 
     37 N         -51.5149  -27.0419   17.2477 N.am      10 UNK        -0.4242 
     38 C         -50.7659  -26.3258   16.3993 C.2       10 UNK         0.5072 
     39 O         -51.1379  -25.2601   15.9030 O.2       10 UNK        -0.5224 
     40 CA        -49.4334  -26.9619   15.9747 C.3       9 UNK         0.0343 
     41 CB        -49.6869  -28.0817   14.9498 C.3       9 UNK        -0.2003 
     42 N         -48.5247  -25.9797   15.3826 N.am      9 UNK        -0.4272 
     43 C         -47.7812  -25.1192   16.0894 C.2       9 UNK         0.4988 
     44 O         -47.7630  -25.0804   17.3211 O.2       9 UNK        -0.5108 
     45 CA        -46.8773  -24.1608   15.2972 C.3       8 UNK         0.0248 
     46 CB        -45.6103  -24.8892   14.8200 C.3       8 UNK        -0.2001 
     47 N         -47.5471  -23.5309   14.1565 N.am      8 UNK        -0.4140 
     48 C         -48.4972  -22.5903   14.2628 C.2       8 UNK         0.5028 
     49 O         -48.9159  -22.1572   15.3375 O.2       8 UNK        -0.5428 
     50 CA        -49.0538  -22.0004   12.9548 C.3       7 UNK         0.0264 
     51 CB        -48.1202  -20.9066   12.4107 C.3       7 UNK        -0.1988 
     52 N         -49.2785  -23.0062   11.9166 N.am      7 UNK        -0.4454 
     53 C         -50.2508  -23.9292   11.9500 C.2       7 UNK         0.5027 
     54 O         -51.0925  -23.9992   12.8441 O.2       7 UNK        -0.5083 
     55 CA        -50.2746  -24.9536   10.7919 C.3       6 UNK         0.0844 
     56 C56       -50.9672  -24.3588    9.5366 C.3       14 UNK        -0.0967 
     57 S57       -52.7899  -24.4228    9.6305 S.3       14 UNK        -0.2604 
     58 C58       -53.2094  -25.6051    8.3104 C.3       14 UNK         0.0134 
     59 N         -48.9351  -25.4735   10.4853 N.am      6 UNK        -0.4116 
     60 C         -48.1202  -26.0853   11.3597 C.2       5 UNK         0.5034 
     61 O         -48.4285  -26.3644   12.5167 O.2       5 UNK        -0.5045 
     62 CA        -46.6869  -26.3715   10.8867 C.3       5 UNK         0.0224 
     63 CB        -46.6060  -27.6965   10.1113 C.3       5 UNK        -0.1978 
     64 N         -46.1532  -25.2724   10.0777 N.am      5 UNK        -0.4737 
     65 C         -45.8354  -24.0667   10.5729 C.2       4 UNK         0.5027 
     66 O         -45.9025  -23.7829   11.7673 O.2       4 UNK        -0.5211 
     67 CA        -45.4284  -22.9802    9.5631 C.3       4 UNK         0.0297 
     68 CB        -43.9441  -23.1168    9.1897 C.3       4 UNK        -0.1993 
     69 N         -46.2474  -23.0071    8.3491 N.am      4 UNK        -0.4486 
     70 C         -47.5683  -22.7763    8.3173 C.2       3 UNK         0.4961 
     71 O         -48.2216  -22.4243    9.2980 O.2       3 UNK        -0.5105 
     72 CA        -48.2935  -23.0399    6.9840 C.3       3 UNK         0.0299 
     73 CB        -48.3629  -21.7534    6.1472 C.3       3 UNK        -0.1972 
     74 N         -47.6785  -24.1115    6.1917 N.am      3 UNK        -0.4305 
     75 C         -47.5481  -25.3841    6.5939 C.2       2 UNK         0.5006 
     76 O         -47.9959  -25.8117    7.6608 O.2       2 UNK        -0.5106 
     77 CA        -46.6803  -26.2775    5.6912 C.3       2 UNK         0.0296 
     78 CB        -45.1967  -25.8884    5.8277 C.3       2 UNK        -0.2002 
     79 N         -46.8018  -27.7071    5.9801 N.am      2 UNK        -0.4032 
     80 C         -47.8675  -28.4719    5.7032 C.2       1 UNK         0.5000 
     81 O         -48.9170  -28.0348    5.2264 O.2       1 UNK        -0.5238 
     82 H82       -44.2758  -31.8461    3.6742 H         1 UNK         0.0889 
     83 H83       -43.9323  -31.2548    5.3007 H         1 UNK         0.0889 
     84 H84       -43.6971  -30.1946    3.9098 H         1 UNK         0.0889 
     85 H85       -45.7954  -30.7709    6.4332 H         1 UNK         0.3028 
     86 H86       -48.3459  -30.4897    5.1977 H         1 UNK         0.0864 
     87 H87       -47.7917  -31.4714    7.5250 H         1 UNK         0.0720 
     88 H88       -47.6809  -29.8391    8.1122 H         1 UNK         0.0720 
     89 H89       -49.4382  -28.7855    9.1505 H         1 UNK         0.0814 
     90 H90       -50.0332  -30.2397    9.9172 H         1 UNK         0.0814 
     91 H91       -50.9077  -27.0750    8.3471 H         1 UNK         0.1469 
     92 H92       -55.0983  -27.3526    9.2248 H         1 UNK         0.1381 
     93 H93       -52.5373  -30.7375    9.8526 H         1 UNK         0.1206 
     94 H94       -55.0416  -30.9892    9.6312 H         1 UNK         0.0813 
     95 H95       -56.0625  -29.5723    9.5498 H         1 UNK         0.0813 
     96 H96       -57.0186  -31.5766   11.0889 H         1 UNK         0.0638 
     97 H97       -56.7160  -31.6820   12.8020 H         1 UNK         0.0638 
     98 H98       -58.2916  -29.4780   11.3907 H         1 UNK         0.0568 
     99 H99       -59.7301  -30.5533   14.3509 H         1 UNK         0.3450 
    100 H100      -60.8774  -31.6423   13.6108 H         1 UNK         0.3450 
    101 H101      -57.0530  -29.3578   13.9251 H         1 UNK         0.2987 
    102 H102      -58.3675  -26.1634   14.5893 H         1 UNK         0.0766 
    103 H103      -58.2523  -26.9224   16.9544 H         1 UNK         0.0798 
    104 H104      -58.2881  -28.6098   16.4449 H         1 UNK         0.0798 
    105 H105      -59.6858  -27.5754   16.1788 H         1 UNK         0.0798 
    106 H106      -56.1283  -27.7331   15.5775 H         1 UNK         0.3198 
    107 H107      -54.2165  -28.1233   13.9136 H         1 UNK         0.0843 
    108 H108      -53.4853  -25.3616   12.8225 H         1 UNK         0.0831 
    109 H109      -53.8495  -26.7877   11.8636 H         1 UNK         0.0831 
    110 H110      -52.4193  -26.7649   12.8784 H         1 UNK         0.0831 
    111 H111      -52.9799  -25.8928   15.2040 H         1 UNK         0.3133 
    112 H112      -53.0460  -25.6700   17.6732 H         1 UNK         0.0566 
    113 H113      -52.6236  -26.9996   19.7288 H         1 UNK         0.0814 
    114 H114      -54.2917  -27.1792   19.2121 H         1 UNK         0.0814 
    115 H115      -53.1417  -28.4748   18.9130 H         1 UNK         0.0814 
    116 H116      -51.1535  -27.9241   17.5821 H         1 UNK         0.3091 
    117 H117      -48.9568  -27.3962   16.8562 H         1 UNK         0.0702 
    118 H118      -50.2923  -28.8820   15.3769 H         1 UNK         0.0785 
    119 H119      -48.7523  -28.5290   14.6108 H         1 UNK         0.0785 
    120 H120      -50.2154  -27.7087   14.0710 H         1 UNK         0.0785 
    121 H121      -48.5017  -25.9428   14.3663 H         1 UNK         0.2998 
    122 H122      -46.5657  -23.3660   15.9784 H         1 UNK         0.0697 
    123 H123      -45.8440  -25.6767   14.1031 H         1 UNK         0.0825 
    124 H124      -45.0867  -25.3533   15.6568 H         1 UNK         0.0825 
    125 H125      -44.9125  -24.2000   14.3440 H         1 UNK         0.0825 
    126 H126      -47.1983  -23.7714   13.2327 H         1 UNK         0.3029 
    127 H127      -50.0159  -21.5381   13.1865 H         1 UNK         0.0897 
    128 H128      -48.5432  -20.4287   11.5267 H         1 UNK         0.0792 
    129 H129      -47.1436  -21.3075   12.1372 H         1 UNK         0.0792 
    130 H130      -47.9569  -20.1265   13.1555 H         1 UNK         0.0792 
    131 H131      -48.6803  -22.9600   11.0957 H         1 UNK         0.3086 
    132 H132      -50.8540  -25.8158   11.1290 H         1 UNK         0.0583 
    133 H133      -50.6756  -23.3198    9.3746 H         1 UNK         0.1020 
    134 H134      -50.6413  -24.8808    8.6377 H         1 UNK         0.1020 
    135 H135      -54.2479  -25.4404    8.0192 H         1 UNK         0.0694 
    136 H136      -52.6136  -25.4011    7.4194 H         1 UNK         0.0694 
    137 H137      -48.5910  -25.3323    9.5415 H         1 UNK         0.2989 
    138 H138      -46.0620  -26.4684   11.7772 H         1 UNK         0.1055 
    139 H139      -46.9688  -28.5249   10.7214 H         1 UNK         0.0806 
    140 H140      -45.5788  -27.9283    9.8299 H         1 UNK         0.0806 
    141 H141      -47.2055  -27.6776    9.2028 H         1 UNK         0.0806 
    142 H142      -46.1383  -25.4095    9.0773 H         1 UNK         0.3061 
    143 H143      -45.5734  -22.0102   10.0437 H         1 UNK         0.0734 
    144 H144      -43.6220  -22.3046    8.5378 H         1 UNK         0.0832 
    145 H145      -43.3152  -23.0826   10.0807 H         1 UNK         0.0832 
    146 H146      -43.7366  -24.0593    8.6815 H         1 UNK         0.0832 
    147 H147      -45.7870  -23.2694    7.4907 H         1 UNK         0.3156 
    148 H148      -49.3142  -23.3472    7.2172 H         1 UNK         0.0589 
    149 H149      -47.3715  -21.4039    5.8562 H         1 UNK         0.0808 
    150 H150      -48.9482  -21.9007    5.2393 H         1 UNK         0.0808 
    151 H151      -48.8395  -20.9489    6.7096 H         1 UNK         0.0808 
    152 H152      -47.2831  -23.8425    5.3017 H         1 UNK         0.3098 
    153 H153      -46.9925  -26.1173    4.6570 H         1 UNK         0.0720 
    154 H154      -44.5686  -26.4902    5.1702 H         1 UNK         0.0791 
    155 H155      -44.8349  -26.0227    6.8482 H         1 UNK         0.0791 
    156 H156      -45.0280  -24.8459    5.5553 H         1 UNK         0.0791 
    157 H157      -45.9892  -28.1566    6.3735 H         1 UNK         0.3028 
@<TRIPOS>BOND
     1    1    2 1    
     2    1   82 1    
     3    1   83 1    
     4    1   84 1    
     5    2    3 2    
     6    2    4 am   BACKBONE|DICT|INTERRES
     7    4    5 1    
     8    4   85 1    
     9    5    6 1    
    10    5   80 1    
    11    5   86 1    
    12    6    7 1    
    13    6   87 1    
    14    6   88 1    
    15    7    8 1    
    16    8    9 1    
    17    8   89 1    
    18    8   90 1    
    19    9   10 ar   
    20    9   14 ar   
    21   10   11 ar   
    22   10   91 1    
    23   11   12 ar   
    24   11   58 1    
    25   12   13 ar   
    26   12   92 1    
    27   13   14 ar   
    28   13   15 1    
    29   14   93 1    
    30   15   16 1    
    31   15   94 1    
    32   15   95 1    
    33   16   17 1    
    34   17   18 1    
    35   17   96 1    
    36   17   97 1    
    37   18   19 1    
    38   18   22 1    
    39   18   98 1    
    40   19   20 am   BACKBONE|DICT|INTERRES
    41   19   21 2    
    42   20   99 1    
    43   20  100 1    
    44   22   23 am   BACKBONE|DICT|INTERRES
    45   22  101 1    
    46   23   24 2    
    47   23   25 1    
    48   25   26 1    
    49   25   27 1    
    50   25  102 1    
    51   26  103 1    
    52   26  104 1    
    53   26  105 1    
    54   27   28 am   BACKBONE|DICT|INTERRES
    55   27  106 1    
    56   28   29 2    
    57   28   30 1    
    58   30   31 1    
    59   30   32 1    
    60   30  107 1    
    61   31  108 1    
    62   31  109 1    
    63   31  110 1    
    64   32   33 am   BACKBONE|DICT|INTERRES
    65   32  111 1    
    66   33   34 2    
    67   33   35 1    
    68   35   36 1    
    69   35   37 1    
    70   35  112 1    
    71   36  113 1    
    72   36  114 1    
    73   36  115 1    
    74   37   38 am   BACKBONE|DICT|INTERRES
    75   37  116 1    
    76   38   39 2    
    77   38   40 1    
    78   40   41 1    
    79   40   42 1    
    80   40  117 1    
    81   41  118 1    
    82   41  119 1    
    83   41  120 1    
    84   42   43 am   BACKBONE|DICT|INTERRES
    85   42  121 1    
    86   43   44 2    
    87   43   45 1    
    88   45   46 1    
    89   45   47 1    
    90   45  122 1    
    91   46  123 1    
    92   46  124 1    
    93   46  125 1    
    94   47   48 am   BACKBONE|DICT|INTERRES
    95   47  126 1    
    96   48   49 2    
    97   48   50 1    
    98   50   51 1    
    99   50   52 1    
   100   50  127 1    
   101   51  128 1    
   102   51  129 1    
   103   51  130 1    
   104   52   53 am   BACKBONE|DICT|INTERRES
   105   52  131 1    
   106   53   54 2    
   107   53   55 1    
   108   55   56 1    
   109   55   59 1    
   110   55  132 1    
   111   56   57 1    
   112   56  133 1    
   113   56  134 1    
   114   57   58 1    
   115   58  135 1    
   116   58  136 1    
   117   59   60 am   BACKBONE|DICT|INTERRES
   118   59  137 1    
   119   60   61 2    
   120   60   62 1    
   121   62   63 1    
   122   62   64 1    
   123   62  138 1    
   124   63  139 1    
   125   63  140 1    
   126   63  141 1    
   127   64   65 am   BACKBONE|DICT|INTERRES
   128   64  142 1    
   129   65   66 2    
   130   65   67 1    
   131   67   68 1    
   132   67   69 1    
   133   67  143 1    
   134   68  144 1    
   135   68  145 1    
   136   68  146 1    
   137   69   70 am   BACKBONE|DICT|INTERRES
   138   69  147 1    
   139   70   71 2    
   140   70   72 1    
   141   72   73 1    
   142   72   74 1    
   143   72  148 1    
   144   73  149 1    
   145   73  150 1    
   146   73  151 1    
   147   74   75 am   BACKBONE|DICT|INTERRES
   148   74  152 1    
   149   75   76 2    
   150   75   77 1    
   151   77   78 1    
   152   77   79 1    
   153   77  153 1    
   154   78  154 1    
   155   78  155 1    
   156   78  156 1    
   157   79   80 am   BACKBONE|DICT|INTERRES
   158   79  157 1    
   159   80   81 2    
@<TRIPOS>SUBSTRUCTURE
     1 UNK         1 GROUP             0       ****    0 ROOT    
