@<TRIPOS>MOLECULE
3R207
157   159    1
SMALL
USER_CHARGES


@<TRIPOS>ATOM
      1 CA        -49.4178  -26.9303    2.0323 C.3       0 UNK        -0.1975 
      2 C         -49.4089  -27.2105    3.5273 C.2       0 UNK         0.4852 
      3 O         -48.9125  -26.3896    4.3022 O.2       0 UNK        -0.5216 
      4 N         -49.9567  -28.3614    3.9428 N.am      1 UNK        -0.4461 
      5 CA        -50.0131  -28.8021    5.3404 C.3       1 UNK         0.0864 
      6 C6        -50.8883  -30.0655    5.5404 C.3       14 UNK        -0.0898 
      7 S7        -52.5583  -30.0015    4.7954 S.3       14 UNK        -0.2598 
      8 C8        -53.2231  -28.3775    5.2992 C.3       14 UNK         0.0286 
      9 C9        -53.2953  -28.2071    6.8111 C.ar      14 UNK        -0.0844 
     10 C10       -52.5764  -27.1878    7.4396 C.ar      14 UNK        -0.0881 
     11 C11       -52.6271  -27.0284    8.8265 C.ar      14 UNK        -0.0643 
     12 C12       -53.4407  -27.8749    9.5886 C.ar      14 UNK        -0.0930 
     13 C13       -54.1868  -28.8845    8.9681 C.ar      14 UNK        -0.0827 
     14 C14       -54.0986  -29.0509    7.5820 C.ar      14 UNK        -0.1249 
     15 C15       -55.0788  -29.8113    9.7838 C.3       14 UNK         0.0141 
     16 S16       -56.8299  -29.6415    9.3083 S.3       14 UNK        -0.2313 
     17 C17       -57.5967  -30.9920   10.2680 C.3       14 UNK        -0.0915 
     18 CA        -58.7192  -30.4937   11.2263 C.3       13 UNK         0.0968 
     19 C         -59.4801  -31.6652   11.9209 C.2       13 UNK         0.5732 
     20 N         -59.9532  -31.5090   13.1517 N.am      13 UNK        -0.7310 
     21 O         -59.6787  -32.7223   11.3260 O.2       13 UNK        -0.5035 
     22 N         -58.2716  -29.4191   12.1322 N.am      13 UNK        -0.4233 
     23 C         -57.3168  -29.5248   13.0630 C.2       13 UNK         0.4989 
     24 O         -56.7114  -30.5668   13.3303 O.2       13 UNK        -0.4996 
     25 CA        -56.9877  -28.2427   13.8331 C.3       12 UNK         0.0216 
     26 CB        -57.9933  -28.0022   14.9730 C.3       12 UNK        -0.1964 
     27 N         -55.6446  -28.3763   14.3867 N.am      12 UNK        -0.4276 
     28 C         -54.7294  -27.4069   14.4462 C.2       12 UNK         0.5020 
     29 O         -54.9273  -26.2470   14.0735 O.2       12 UNK        -0.5489 
     30 CA        -53.3447  -27.8282   14.9682 C.3       11 UNK         0.0294 
     31 CB        -52.5133  -28.4395   13.8290 C.3       11 UNK        -0.2019 
     32 N         -52.6114  -26.6983   15.5400 N.am      11 UNK        -0.4493 
     33 C         -52.9339  -26.0853   16.6874 C.2       11 UNK         0.4932 
     34 O         -53.8420  -26.4622   17.4318 O.2       11 UNK        -0.5029 
     35 CA        -52.0895  -24.8518   17.0607 C.3       10 UNK         0.0280 
     36 CB        -52.3793  -24.3172   18.4796 C.3       10 UNK        -0.1976 
     37 N         -50.6534  -25.0737   16.8651 N.am      10 UNK        -0.4242 
     38 C         -49.8757  -25.9874   17.4683 C.2       10 UNK         0.5072 
     39 O         -50.2738  -26.7582   18.3431 O.2       10 UNK        -0.5224 
     40 CA        -48.4030  -26.0839   17.0201 C.3       9 UNK         0.0343 
     41 CB        -48.1625  -27.4075   16.2747 C.3       9 UNK        -0.2003 
     42 N         -47.9639  -24.9741   16.1695 N.am      9 UNK        -0.4272 
     43 C         -47.7367  -23.7225   16.5928 C.2       9 UNK         0.4988 
     44 O         -47.7910  -23.3780   17.7736 O.2       9 UNK        -0.5108 
     45 CA        -47.4410  -22.6677   15.5113 C.3       8 UNK         0.0248 
     46 CB        -45.9466  -22.6634   15.1526 C.3       8 UNK        -0.2001 
     47 N         -48.2413  -22.8458   14.2941 N.am      8 UNK        -0.4140 
     48 C         -49.5807  -22.7813   14.2394 C.2       8 UNK         0.5028 
     49 O         -50.2938  -22.5318   15.2105 O.2       8 UNK        -0.5428 
     50 CA        -50.2435  -23.1103   12.8923 C.3       7 UNK         0.0264 
     51 CB        -50.1419  -21.9303   11.9125 C.3       7 UNK        -0.1988 
     52 N         -49.6759  -24.3150   12.2867 N.am      7 UNK        -0.4454 
     53 C         -49.8371  -25.5550   12.7734 C.2       7 UNK         0.5027 
     54 O         -50.5353  -25.8165   13.7538 O.2       7 UNK        -0.5083 
     55 CA        -49.0492  -26.6877   12.0800 C.3       6 UNK         0.0844 
     56 C56       -49.8572  -27.3670   10.9451 C.3       14 UNK        -0.0967 
     57 S57       -50.0232  -26.3405    9.4446 S.3       14 UNK        -0.2604 
     58 C58       -51.7984  -25.9314    9.4785 C.3       14 UNK         0.0134 
     59 N         -47.7231  -26.2416   11.6392 N.am      6 UNK        -0.4116 
     60 C         -46.7292  -25.8974   12.4688 C.2       5 UNK         0.5034 
     61 O         -46.8077  -25.9593   13.6946 O.2       5 UNK        -0.5045 
     62 CA        -45.4504  -25.3415   11.8285 C.3       5 UNK         0.0224 
     63 CB        -44.5087  -26.4797   11.4080 C.3       5 UNK        -0.1978 
     64 N         -45.7137  -24.4478   10.6939 N.am      5 UNK        -0.4737 
     65 C         -46.2772  -23.2367   10.8270 C.2       4 UNK         0.5027 
     66 O         -46.7224  -22.8210   11.8959 O.2       4 UNK        -0.5211 
     67 CA        -46.3477  -22.3150    9.5978 C.3       4 UNK         0.0297 
     68 CB        -45.2787  -21.2154    9.7027 C.3       4 UNK        -0.1993 
     69 N         -46.1787  -23.0236    8.3299 N.am      4 UNK        -0.4486 
     70 C         -47.1647  -23.6526    7.6799 C.2       3 UNK         0.4961 
     71 O         -48.3337  -23.6665    8.0650 O.2       3 UNK        -0.5105 
     72 CA        -46.7936  -24.4022    6.3848 C.3       3 UNK         0.0299 
     73 CB        -45.3695  -24.1062    5.8593 C.3       3 UNK        -0.1972 
     74 N         -47.0001  -25.8470    6.5237 N.am      3 UNK        -0.4305 
     75 C         -46.4504  -26.6510    7.4507 C.2       2 UNK         0.5006 
     76 O         -45.6538  -26.2566    8.3040 O.2       2 UNK        -0.5106 
     77 CA        -46.8647  -28.1338    7.4340 C.3       2 UNK         0.0296 
     78 CB        -46.7440  -28.8012    8.8163 C.3       2 UNK        -0.2002 
     79 N         -48.2347  -28.2719    6.9389 N.am      2 UNK        -0.4032 
     80 C         -48.5879  -29.0177    5.8858 C.2       1 UNK         0.5000 
     81 O         -47.8355  -29.8109    5.3132 O.2       1 UNK        -0.5238 
     82 H82       -48.3975  -26.8195    1.6663 H         1 UNK         0.0889 
     83 H83       -49.9560  -26.0051    1.8282 H         1 UNK         0.0889 
     84 H84       -49.8956  -27.7324    1.4701 H         1 UNK         0.0889 
     85 H85       -50.3372  -29.0093    3.2678 H         1 UNK         0.3028 
     86 H86       -50.4606  -27.9881    5.9078 H         1 UNK         0.0864 
     87 H87       -50.3890  -30.9426    5.1238 H         1 UNK         0.0720 
     88 H88       -51.0089  -30.2676    6.6066 H         1 UNK         0.0720 
     89 H89       -54.2288  -28.2740    4.8895 H         1 UNK         0.0814 
     90 H90       -52.6317  -27.5846    4.8395 H         1 UNK         0.0814 
     91 H91       -51.9641  -26.5153    6.8545 H         1 UNK         0.1469 
     92 H92       -53.4943  -27.7463   10.6608 H         1 UNK         0.1381 
     93 H93       -54.6656  -29.8357    7.0994 H         1 UNK         0.1206 
     94 H94       -54.9771  -29.6132   10.8521 H         1 UNK         0.0813 
     95 H95       -54.7572  -30.8414    9.6240 H         1 UNK         0.0813 
     96 H96       -56.8314  -31.5357   10.8239 H         1 UNK         0.0638 
     97 H97       -58.0018  -31.7027    9.5457 H         1 UNK         0.0638 
     98 H98       -59.4791  -30.0277   10.5984 H         1 UNK         0.0568 
     99 H99       -60.4535  -32.2677   13.5871 H         1 UNK         0.3450 
    100 H100      -59.8097  -30.6458   13.6497 H         1 UNK         0.3450 
    101 H101      -58.7273  -28.5278   12.0006 H         1 UNK         0.2987 
    102 H102      -57.0214  -27.4057   13.1317 H         1 UNK         0.0766 
    103 H103      -57.7516  -27.0943   15.5262 H         1 UNK         0.0798 
    104 H104      -58.0053  -28.8312   15.6820 H         1 UNK         0.0798 
    105 H105      -59.0068  -27.8848   14.5876 H         1 UNK         0.0798 
    106 H106      -55.3875  -29.3278   14.6207 H         1 UNK         0.3198 
    107 H107      -53.4756  -28.5777   15.7519 H         1 UNK         0.0843 
    108 H108      -52.9846  -29.3408   13.4349 H         1 UNK         0.0831 
    109 H109      -51.5136  -28.7150   14.1659 H         1 UNK         0.0831 
    110 H110      -52.4089  -27.7381   13.0017 H         1 UNK         0.0831 
    111 H111      -51.8635  -26.3095   14.9684 H         1 UNK         0.3133 
    112 H112      -52.3715  -24.0702   16.3539 H         1 UNK         0.0566 
    113 H113      -51.7822  -23.4317   18.6980 H         1 UNK         0.0814 
    114 H114      -53.4275  -24.0342   18.5827 H         1 UNK         0.0814 
    115 H115      -52.1679  -25.0628   19.2467 H         1 UNK         0.0814 
    116 H116      -50.2277  -24.4819   16.1614 H         1 UNK         0.3091 
    117 H117      -47.7888  -26.0843   17.9229 H         1 UNK         0.0702 
    118 H118      -47.1134  -27.5255   16.0028 H         1 UNK         0.0785 
    119 H119      -48.7550  -27.4657   15.3611 H         1 UNK         0.0785 
    120 H120      -48.4337  -28.2631   16.8946 H         1 UNK         0.0785 
    121 H121      -47.8056  -25.1925   15.1897 H         1 UNK         0.2998 
    122 H122      -47.6936  -21.6902   15.9271 H         1 UNK         0.0697 
    123 H123      -45.6338  -23.6129   14.7178 H         1 UNK         0.0825 
    124 H124      -45.3327  -22.4912   16.0377 H         1 UNK         0.0825 
    125 H125      -45.7125  -21.8752   14.4367 H         1 UNK         0.0825 
    126 H126      -47.7248  -22.9987   13.4293 H         1 UNK         0.3029 
    127 H127      -51.3027  -23.2991   13.0824 H         1 UNK         0.0897 
    128 H128      -50.6538  -22.1489   10.9750 H         1 UNK         0.0792 
    129 H129      -50.6051  -21.0369   12.3335 H         1 UNK         0.0792 
    130 H130      -49.1078  -21.6787   11.6778 H         1 UNK         0.0792 
    131 H131      -49.0784  -24.1865   11.4829 H         1 UNK         0.3086 
    132 H132      -48.8853  -27.4511   12.8438 H         1 UNK         0.0583 
    133 H133      -49.3665  -28.2974   10.6583 H         1 UNK         0.1020 
    134 H134      -50.8415  -27.6737   11.2991 H         1 UNK         0.1020 
    135 H135      -52.1232  -25.7426   10.5030 H         1 UNK         0.0694 
    136 H136      -51.9504  -24.9977    8.9351 H         1 UNK         0.0694 
    137 H137      -47.5884  -26.1279   10.6447 H         1 UNK         0.2989 
    138 H138      -44.9366  -24.7553   12.5938 H         1 UNK         0.1055 
    139 H139      -44.2328  -27.0921   12.2675 H         1 UNK         0.0806 
    140 H140      -43.5856  -26.0940   10.9752 H         1 UNK         0.0806 
    141 H141      -44.9713  -27.1409   10.6767 H         1 UNK         0.0806 
    142 H142      -45.4429  -24.7794    9.7734 H         1 UNK         0.3061 
    143 H143      -47.3277  -21.8326    9.6095 H         1 UNK         0.0734 
    144 H144      -45.3960  -20.6445   10.6251 H         1 UNK         0.0832 
    145 H145      -44.2696  -21.6294    9.7031 H         1 UNK         0.0832 
    146 H146      -45.3531  -20.5087    8.8759 H         1 UNK         0.0832 
    147 H147      -45.2430  -23.0785    7.9538 H         1 UNK         0.3156 
    148 H148      -47.5005  -24.0642    5.6255 H         1 UNK         0.0589 
    149 H149      -44.5919  -24.4546    6.5399 H         1 UNK         0.0808 
    150 H150      -45.2031  -24.5953    4.8994 H         1 UNK         0.0808 
    151 H151      -45.2213  -23.0375    5.6981 H         1 UNK         0.0808 
    152 H152      -47.6588  -26.2422    5.8579 H         1 UNK         0.3098 
    153 H153      -46.1646  -28.6312    6.7597 H         1 UNK         0.0720 
    154 H154      -45.7027  -28.8431    9.1369 H         1 UNK         0.0791 
    155 H155      -47.1150  -29.8260    8.7972 H         1 UNK         0.0791 
    156 H156      -47.2989  -28.2557    9.5772 H         1 UNK         0.0791 
    157 H157      -48.9139  -27.6454    7.3523 H         1 UNK         0.3028 
@<TRIPOS>BOND
     1    1    2 1    
     2    1   82 1    
     3    1   83 1    
     4    1   84 1    
     5    2    3 2    
     6    2    4 am   BACKBONE|DICT|INTERRES
     7    4    5 1    
     8    4   85 1    
     9    5    6 1    
    10    5   80 1    
    11    5   86 1    
    12    6    7 1    
    13    6   87 1    
    14    6   88 1    
    15    7    8 1    
    16    8    9 1    
    17    8   89 1    
    18    8   90 1    
    19    9   10 ar   
    20    9   14 ar   
    21   10   11 ar   
    22   10   91 1    
    23   11   12 ar   
    24   11   58 1    
    25   12   13 ar   
    26   12   92 1    
    27   13   14 ar   
    28   13   15 1    
    29   14   93 1    
    30   15   16 1    
    31   15   94 1    
    32   15   95 1    
    33   16   17 1    
    34   17   18 1    
    35   17   96 1    
    36   17   97 1    
    37   18   19 1    
    38   18   22 1    
    39   18   98 1    
    40   19   20 am   BACKBONE|DICT|INTERRES
    41   19   21 2    
    42   20   99 1    
    43   20  100 1    
    44   22   23 am   BACKBONE|DICT|INTERRES
    45   22  101 1    
    46   23   24 2    
    47   23   25 1    
    48   25   26 1    
    49   25   27 1    
    50   25  102 1    
    51   26  103 1    
    52   26  104 1    
    53   26  105 1    
    54   27   28 am   BACKBONE|DICT|INTERRES
    55   27  106 1    
    56   28   29 2    
    57   28   30 1    
    58   30   31 1    
    59   30   32 1    
    60   30  107 1    
    61   31  108 1    
    62   31  109 1    
    63   31  110 1    
    64   32   33 am   BACKBONE|DICT|INTERRES
    65   32  111 1    
    66   33   34 2    
    67   33   35 1    
    68   35   36 1    
    69   35   37 1    
    70   35  112 1    
    71   36  113 1    
    72   36  114 1    
    73   36  115 1    
    74   37   38 am   BACKBONE|DICT|INTERRES
    75   37  116 1    
    76   38   39 2    
    77   38   40 1    
    78   40   41 1    
    79   40   42 1    
    80   40  117 1    
    81   41  118 1    
    82   41  119 1    
    83   41  120 1    
    84   42   43 am   BACKBONE|DICT|INTERRES
    85   42  121 1    
    86   43   44 2    
    87   43   45 1    
    88   45   46 1    
    89   45   47 1    
    90   45  122 1    
    91   46  123 1    
    92   46  124 1    
    93   46  125 1    
    94   47   48 am   BACKBONE|DICT|INTERRES
    95   47  126 1    
    96   48   49 2    
    97   48   50 1    
    98   50   51 1    
    99   50   52 1    
   100   50  127 1    
   101   51  128 1    
   102   51  129 1    
   103   51  130 1    
   104   52   53 am   BACKBONE|DICT|INTERRES
   105   52  131 1    
   106   53   54 2    
   107   53   55 1    
   108   55   56 1    
   109   55   59 1    
   110   55  132 1    
   111   56   57 1    
   112   56  133 1    
   113   56  134 1    
   114   57   58 1    
   115   58  135 1    
   116   58  136 1    
   117   59   60 am   BACKBONE|DICT|INTERRES
   118   59  137 1    
   119   60   61 2    
   120   60   62 1    
   121   62   63 1    
   122   62   64 1    
   123   62  138 1    
   124   63  139 1    
   125   63  140 1    
   126   63  141 1    
   127   64   65 am   BACKBONE|DICT|INTERRES
   128   64  142 1    
   129   65   66 2    
   130   65   67 1    
   131   67   68 1    
   132   67   69 1    
   133   67  143 1    
   134   68  144 1    
   135   68  145 1    
   136   68  146 1    
   137   69   70 am   BACKBONE|DICT|INTERRES
   138   69  147 1    
   139   70   71 2    
   140   70   72 1    
   141   72   73 1    
   142   72   74 1    
   143   72  148 1    
   144   73  149 1    
   145   73  150 1    
   146   73  151 1    
   147   74   75 am   BACKBONE|DICT|INTERRES
   148   74  152 1    
   149   75   76 2    
   150   75   77 1    
   151   77   78 1    
   152   77   79 1    
   153   77  153 1    
   154   78  154 1    
   155   78  155 1    
   156   78  156 1    
   157   79   80 am   BACKBONE|DICT|INTERRES
   158   79  157 1    
   159   80   81 2    
@<TRIPOS>SUBSTRUCTURE
     1 UNK         1 GROUP             0       ****    0 ROOT    
