@<TRIPOS>MOLECULE
3R207
157   159    1
SMALL
USER_CHARGES


@<TRIPOS>ATOM
      1 CA        -44.6728  -30.4505    5.3678 C.3       0 UNK        -0.1975 
      2 C         -45.6818  -29.9028    4.3694 C.2       0 UNK         0.4852 
      3 O         -45.2961  -29.4842    3.2773 O.2       0 UNK        -0.5216 
      4 N         -46.9703  -29.9067    4.7361 N.am      1 UNK        -0.4461 
      5 CA        -48.0835  -29.3765    3.9380 C.3       1 UNK         0.0864 
      6 C6        -49.4570  -29.8402    4.4894 C.3       14 UNK        -0.0898 
      7 S7        -49.6926  -29.4431    6.2551 S.3       14 UNK        -0.2598 
      8 C8        -51.4693  -29.7519    6.4686 C.3       14 UNK         0.0286 
      9 C9        -51.9190  -29.2656    7.8363 C.ar      14 UNK        -0.0844 
     10 C10       -52.5246  -28.0152    7.9755 C.ar      14 UNK        -0.0881 
     11 C11       -52.8898  -27.5353    9.2375 C.ar      14 UNK        -0.0643 
     12 C12       -52.6529  -28.3244   10.3687 C.ar      14 UNK        -0.0930 
     13 C13       -52.0545  -29.5821   10.2378 C.ar      14 UNK        -0.0827 
     14 C14       -51.6969  -30.0495    8.9701 C.ar      14 UNK        -0.1249 
     15 C15       -51.7607  -30.4358   11.4591 C.3       14 UNK         0.0141 
     16 S16       -53.1319  -31.5798   11.8110 S.3       14 UNK        -0.2313 
     17 C17       -54.0579  -30.7012   13.1151 C.3       14 UNK        -0.0915 
     18 CA        -55.3215  -29.9344   12.6154 C.3       13 UNK         0.0968 
     19 C         -56.5642  -30.8409   12.3497 C.2       13 UNK         0.5732 
     20 N         -56.3720  -32.0559   11.8559 N.am      13 UNK        -0.7310 
     21 O         -57.7110  -30.4393   12.5437 O.2       13 UNK        -0.5035 
     22 N         -55.6430  -28.7783   13.4710 N.am      13 UNK        -0.4233 
     23 C         -55.9341  -28.8235   14.7784 C.2       13 UNK         0.4989 
     24 O         -55.8517  -29.8469   15.4604 O.2       13 UNK        -0.4996 
     25 CA        -56.4053  -27.5091   15.4367 C.3       12 UNK         0.0216 
     26 CB        -56.4747  -27.6068   16.9728 C.3       12 UNK        -0.1964 
     27 N         -55.5891  -26.3448   15.0772 N.am      12 UNK        -0.4276 
     28 C         -55.6964  -25.6427   13.9418 C.2       12 UNK         0.5020 
     29 O         -56.4274  -25.9907   13.0133 O.2       12 UNK        -0.5489 
     30 CA        -54.8424  -24.3713   13.7683 C.3       11 UNK         0.0294 
     31 CB        -55.7248  -23.1183   13.6024 C.3       11 UNK        -0.2019 
     32 N         -53.8065  -24.1631   14.7877 N.am      11 UNK        -0.4493 
     33 C         -53.9241  -23.8558   16.0876 C.2       11 UNK         0.4932 
     34 O         -54.9975  -23.6660   16.6600 O.2       11 UNK        -0.5029 
     35 CA        -52.5966  -23.8205   16.8762 C.3       10 UNK         0.0280 
     36 CB        -52.7969  -23.7104   18.4023 C.3       10 UNK        -0.1976 
     37 N         -51.7322  -24.9602   16.5349 N.am      10 UNK        -0.4242 
     38 C         -52.0388  -26.2618   16.6525 C.2       10 UNK         0.5072 
     39 O         -53.0597  -26.6727   17.2048 O.2       10 UNK        -0.5224 
     40 CA        -51.1039  -27.2890   15.9884 C.3       9 UNK         0.0343 
     41 CB        -51.8379  -27.9852   14.8328 C.3       9 UNK        -0.2003 
     42 N         -49.8525  -26.7266   15.4744 N.am      9 UNK        -0.4272 
     43 C         -48.7732  -26.4652   16.2240 C.2       9 UNK         0.4988 
     44 O         -48.7139  -26.6743   17.4361 O.2       9 UNK        -0.5108 
     45 CA        -47.5566  -25.8554   15.5044 C.3       8 UNK         0.0248 
     46 CB        -46.7173  -26.9567   14.8370 C.3       8 UNK        -0.2001 
     47 N         -47.9175  -24.8412   14.5093 N.am      8 UNK        -0.4140 
     48 C         -48.5322  -23.6828   14.7923 C.2       8 UNK         0.5028 
     49 O         -48.8348  -23.3250   15.9310 O.2       8 UNK        -0.5428 
     50 CA        -48.9279  -22.7948   13.6008 C.3       7 UNK         0.0264 
     51 CB        -47.7166  -22.0116   13.0711 C.3       7 UNK        -0.1988 
     52 N         -49.5502  -23.5475   12.5088 N.am      7 UNK        -0.4454 
     53 C         -50.6750  -24.2689   12.6240 C.2       7 UNK         0.5027 
     54 O         -51.3226  -24.3659   13.6637 O.2       7 UNK        -0.5083 
     55 CA        -51.1410  -25.0455   11.3822 C.3       6 UNK         0.0844 
     56 C56       -51.8855  -24.0960   10.4104 C.3       14 UNK        -0.0967 
     57 S57       -52.3925  -24.8471    8.8304 S.3       14 UNK        -0.2604 
     58 C58       -53.5378  -26.1634    9.3568 C.3       14 UNK         0.0134 
     59 N         -50.0262  -25.7737   10.7748 N.am      6 UNK        -0.4116 
     60 C         -49.3548  -26.7691   11.3739 C.2       5 UNK         0.5034 
     61 O         -49.6397  -27.2249   12.4820 O.2       5 UNK        -0.5045 
     62 CA        -48.1170  -27.3021   10.6379 C.3       5 UNK         0.0224 
     63 CB        -48.5213  -28.3321    9.5739 C.3       5 UNK        -0.1978 
     64 N         -47.3440  -26.2225   10.0181 N.am      5 UNK        -0.4737 
     65 C         -46.6618  -25.2980   10.7127 C.2       4 UNK         0.5027 
     66 O         -46.5665  -25.3022   11.9398 O.2       4 UNK        -0.5211 
     67 CA        -46.0220  -24.1452    9.9157 C.3       4 UNK         0.0297 
     68 CB        -44.6014  -24.5246    9.4700 C.3       4 UNK        -0.1993 
     69 N         -46.8104  -23.7479    8.7468 N.am      4 UNK        -0.4486 
     70 C         -48.0755  -23.3076    8.7901 C.2       3 UNK         0.4961 
     71 O         -48.6700  -23.0630    9.8396 O.2       3 UNK        -0.5105 
     72 CA        -48.8293  -23.1558    7.4547 C.3       3 UNK         0.0299 
     73 CB        -48.9847  -21.6689    7.0987 C.3       3 UNK        -0.1972 
     74 N         -48.2471  -23.8688    6.3082 N.am      3 UNK        -0.4305 
     75 C         -48.0158  -25.1873    6.2270 C.2       2 UNK         0.5006 
     76 O         -48.1805  -25.9770    7.1607 O.2       2 UNK        -0.5106 
     77 CA        -47.4508  -25.6877    4.8923 C.3       2 UNK         0.0296 
     78 CB        -45.9610  -25.3251    4.7575 C.3       2 UNK        -0.2002 
     79 N         -47.5912  -27.1386    4.8247 N.am      2 UNK        -0.4032 
     80 C         -48.0175  -27.8413    3.7679 C.2       1 UNK         0.5000 
     81 O         -48.3330  -27.3369    2.6879 O.2       1 UNK        -0.5238 
     82 H82       -45.1506  -30.7893    6.2869 H         1 UNK         0.0889 
     83 H83       -43.9468  -29.6804    5.6273 H         1 UNK         0.0889 
     84 H84       -44.1357  -31.2936    4.9342 H         1 UNK         0.0889 
     85 H85       -47.2307  -30.2667    5.6439 H         1 UNK         0.3028 
     86 H86       -47.9820  -29.7975    2.9352 H         1 UNK         0.0864 
     87 H87       -50.2714  -29.4050    3.9067 H         1 UNK         0.0720 
     88 H88       -49.5517  -30.9209    4.3727 H         1 UNK         0.0720 
     89 H89       -52.0293  -29.2450    5.6812 H         1 UNK         0.0814 
     90 H90       -51.6722  -30.8185    6.3616 H         1 UNK         0.0814 
     91 H91       -52.6922  -27.3992    7.1025 H         1 UNK         0.1469 
     92 H92       -52.9256  -27.9622   11.3500 H         1 UNK         0.1381 
     93 H93       -51.2214  -31.0154    8.8668 H         1 UNK         0.1206 
     94 H94       -51.5363  -29.8056   12.3191 H         1 UNK         0.0813 
     95 H95       -50.8582  -31.0233   11.2839 H         1 UNK         0.0813 
     96 H96       -54.3282  -31.4249   13.8859 H         1 UNK         0.0638 
     97 H97       -53.3729  -30.0116   13.6031 H         1 UNK         0.0638 
     98 H98       -55.0843  -29.4929   11.6474 H         1 UNK         0.0568 
     99 H99       -57.1654  -32.6464   11.6631 H         1 UNK         0.3450 
    100 H100      -55.4345  -32.3843   11.6753 H         1 UNK         0.3450 
    101 H101      -55.8182  -27.9004   12.9932 H         1 UNK         0.2987 
    102 H102      -57.4225  -27.3351   15.0792 H         1 UNK         0.0766 
    103 H103      -57.1580  -28.3972   17.2862 H         1 UNK         0.0798 
    104 H104      -56.8343  -26.6773   17.4149 H         1 UNK         0.0798 
    105 H105      -55.4988  -27.8283   17.4063 H         1 UNK         0.0798 
    106 H106      -54.9351  -26.0233   15.7797 H         1 UNK         0.3198 
    107 H107      -54.2987  -24.5111   12.8330 H         1 UNK         0.0843 
    108 H108      -56.3404  -22.9338   14.4831 H         1 UNK         0.0831 
    109 H109      -56.4021  -23.2285   12.7544 H         1 UNK         0.0831 
    110 H110      -55.1217  -22.2289   13.4204 H         1 UNK         0.0831 
    111 H111      -52.8529  -24.2917   14.4420 H         1 UNK         0.3133 
    112 H112      -52.0658  -22.9265   16.5456 H         1 UNK         0.0566 
    113 H113      -53.3675  -24.5500   18.8005 H         1 UNK         0.0814 
    114 H114      -53.3397  -22.7999   18.6587 H         1 UNK         0.0814 
    115 H115      -51.8412  -23.6763   18.9253 H         1 UNK         0.0814 
    116 H116      -50.8877  -24.7270   16.0272 H         1 UNK         0.3091 
    117 H117      -50.8676  -28.0431   16.7420 H         1 UNK         0.0702 
    118 H118      -51.2286  -28.7835   14.4104 H         1 UNK         0.0785 
    119 H119      -52.0859  -27.2883   14.0310 H         1 UNK         0.0785 
    120 H120      -52.7698  -28.4337   15.1789 H         1 UNK         0.0785 
    121 H121      -49.8018  -26.5749   14.4721 H         1 UNK         0.2998 
    122 H122      -46.9373  -25.3678   16.2601 H         1 UNK         0.0697 
    123 H123      -45.8040  -26.5500   14.4023 H         1 UNK         0.0825 
    124 H124      -47.2697  -27.4587   14.0416 H         1 UNK         0.0825 
    125 H125      -46.4214  -27.7171   15.5610 H         1 UNK         0.0825 
    126 H126      -47.6558  -25.0341   13.5455 H         1 UNK         0.3029 
    127 H127      -49.6669  -22.0748   13.9590 H         1 UNK         0.0897 
    128 H128      -47.2833  -21.3890   13.8549 H         1 UNK         0.0792 
    129 H129      -47.9978  -21.3518   12.2498 H         1 UNK         0.0792 
    130 H130      -46.9309  -22.6760   12.7124 H         1 UNK         0.0792 
    131 H131      -49.1090  -23.4811   11.5929 H         1 UNK         0.3086 
    132 H132      -51.8550  -25.7937   11.7296 H         1 UNK         0.0583 
    133 H133      -52.7773  -23.6891   10.8910 H         1 UNK         0.1020 
    134 H134      -51.2668  -23.2311   10.1647 H         1 UNK         0.1020 
    135 H135      -53.8950  -25.9780   10.3709 H         1 UNK         0.0694 
    136 H136      -54.4195  -26.1352    8.7151 H         1 UNK         0.0694 
    137 H137      -49.7197  -25.4553    9.8675 H         1 UNK         0.2989 
    138 H138      -47.4797  -27.7987   11.3729 H         1 UNK         0.1055 
    139 H139      -49.2089  -27.9064    8.8415 H         1 UNK         0.0806 
    140 H140      -49.0245  -29.1848   10.0307 H         1 UNK         0.0806 
    141 H141      -47.6546  -28.7160    9.0360 H         1 UNK         0.0806 
    142 H142      -47.4256  -26.1253    9.0096 H         1 UNK         0.3061 
    143 H143      -45.9544  -23.2804   10.5782 H         1 UNK         0.0734 
    144 H144      -44.6054  -25.3709    8.7816 H         1 UNK         0.0832 
    145 H145      -44.1028  -23.6903    8.9763 H         1 UNK         0.0832 
    146 H146      -43.9874  -24.8051   10.3271 H         1 UNK         0.0832 
    147 H147      -46.4023  -23.9196    7.8403 H         1 UNK         0.3156 
    148 H148      -49.8265  -23.5708    7.6121 H         1 UNK         0.0589 
    149 H149      -49.6210  -21.5329    6.2240 H         1 UNK         0.0808 
    150 H150      -48.0215  -21.2003    6.8926 H         1 UNK         0.0808 
    151 H151      -49.4465  -21.1166    7.9188 H         1 UNK         0.0808 
    152 H152      -48.0524  -23.3039    5.4935 H         1 UNK         0.3098 
    153 H153      -48.0175  -25.2157    4.0869 H         1 UNK         0.0720 
    154 H154      -45.8102  -24.2451    4.7758 H         1 UNK         0.0791 
    155 H155      -45.5515  -25.6905    3.8154 H         1 UNK         0.0791 
    156 H156      -45.3668  -25.7540    5.5657 H         1 UNK         0.0791 
    157 H157      -47.4629  -27.6202    5.7052 H         1 UNK         0.3028 
@<TRIPOS>BOND
     1    1    2 1    
     2    1   82 1    
     3    1   83 1    
     4    1   84 1    
     5    2    3 2    
     6    2    4 am   BACKBONE|DICT|INTERRES
     7    4    5 1    
     8    4   85 1    
     9    5    6 1    
    10    5   80 1    
    11    5   86 1    
    12    6    7 1    
    13    6   87 1    
    14    6   88 1    
    15    7    8 1    
    16    8    9 1    
    17    8   89 1    
    18    8   90 1    
    19    9   10 ar   
    20    9   14 ar   
    21   10   11 ar   
    22   10   91 1    
    23   11   12 ar   
    24   11   58 1    
    25   12   13 ar   
    26   12   92 1    
    27   13   14 ar   
    28   13   15 1    
    29   14   93 1    
    30   15   16 1    
    31   15   94 1    
    32   15   95 1    
    33   16   17 1    
    34   17   18 1    
    35   17   96 1    
    36   17   97 1    
    37   18   19 1    
    38   18   22 1    
    39   18   98 1    
    40   19   20 am   BACKBONE|DICT|INTERRES
    41   19   21 2    
    42   20   99 1    
    43   20  100 1    
    44   22   23 am   BACKBONE|DICT|INTERRES
    45   22  101 1    
    46   23   24 2    
    47   23   25 1    
    48   25   26 1    
    49   25   27 1    
    50   25  102 1    
    51   26  103 1    
    52   26  104 1    
    53   26  105 1    
    54   27   28 am   BACKBONE|DICT|INTERRES
    55   27  106 1    
    56   28   29 2    
    57   28   30 1    
    58   30   31 1    
    59   30   32 1    
    60   30  107 1    
    61   31  108 1    
    62   31  109 1    
    63   31  110 1    
    64   32   33 am   BACKBONE|DICT|INTERRES
    65   32  111 1    
    66   33   34 2    
    67   33   35 1    
    68   35   36 1    
    69   35   37 1    
    70   35  112 1    
    71   36  113 1    
    72   36  114 1    
    73   36  115 1    
    74   37   38 am   BACKBONE|DICT|INTERRES
    75   37  116 1    
    76   38   39 2    
    77   38   40 1    
    78   40   41 1    
    79   40   42 1    
    80   40  117 1    
    81   41  118 1    
    82   41  119 1    
    83   41  120 1    
    84   42   43 am   BACKBONE|DICT|INTERRES
    85   42  121 1    
    86   43   44 2    
    87   43   45 1    
    88   45   46 1    
    89   45   47 1    
    90   45  122 1    
    91   46  123 1    
    92   46  124 1    
    93   46  125 1    
    94   47   48 am   BACKBONE|DICT|INTERRES
    95   47  126 1    
    96   48   49 2    
    97   48   50 1    
    98   50   51 1    
    99   50   52 1    
   100   50  127 1    
   101   51  128 1    
   102   51  129 1    
   103   51  130 1    
   104   52   53 am   BACKBONE|DICT|INTERRES
   105   52  131 1    
   106   53   54 2    
   107   53   55 1    
   108   55   56 1    
   109   55   59 1    
   110   55  132 1    
   111   56   57 1    
   112   56  133 1    
   113   56  134 1    
   114   57   58 1    
   115   58  135 1    
   116   58  136 1    
   117   59   60 am   BACKBONE|DICT|INTERRES
   118   59  137 1    
   119   60   61 2    
   120   60   62 1    
   121   62   63 1    
   122   62   64 1    
   123   62  138 1    
   124   63  139 1    
   125   63  140 1    
   126   63  141 1    
   127   64   65 am   BACKBONE|DICT|INTERRES
   128   64  142 1    
   129   65   66 2    
   130   65   67 1    
   131   67   68 1    
   132   67   69 1    
   133   67  143 1    
   134   68  144 1    
   135   68  145 1    
   136   68  146 1    
   137   69   70 am   BACKBONE|DICT|INTERRES
   138   69  147 1    
   139   70   71 2    
   140   70   72 1    
   141   72   73 1    
   142   72   74 1    
   143   72  148 1    
   144   73  149 1    
   145   73  150 1    
   146   73  151 1    
   147   74   75 am   BACKBONE|DICT|INTERRES
   148   74  152 1    
   149   75   76 2    
   150   75   77 1    
   151   77   78 1    
   152   77   79 1    
   153   77  153 1    
   154   78  154 1    
   155   78  155 1    
   156   78  156 1    
   157   79   80 am   BACKBONE|DICT|INTERRES
   158   79  157 1    
   159   80   81 2    
@<TRIPOS>SUBSTRUCTURE
     1 UNK         1 GROUP             0       ****    0 ROOT    
