@<TRIPOS>MOLECULE
3R207
157   159    1
SMALL
USER_CHARGES


@<TRIPOS>ATOM
      1 CA        -54.4968  -28.3486    7.5807 C.3       0 UNK        -0.1975 
      2 C         -54.2097  -28.3633    6.0821 C.2       0 UNK         0.4852 
      3 O         -55.1393  -28.2280    5.2888 O.2       0 UNK        -0.5216 
      4 N         -52.9547  -28.5299    5.6397 N.am      1 UNK        -0.4461 
      5 CA        -51.7379  -28.6719    6.4537 C.3       1 UNK         0.0864 
      6 C6        -50.5943  -29.3490    5.6575 C.3       14 UNK        -0.0898 
      7 S7        -51.0443  -31.0501    5.1662 S.3       14 UNK        -0.2598 
      8 C8        -49.9546  -32.0777    6.2113 C.3       14 UNK         0.0286 
      9 C9        -50.0246  -31.7215    7.6924 C.ar      14 UNK        -0.0844 
     10 C10       -48.8638  -31.3383    8.3723 C.ar      14 UNK        -0.0881 
     11 C11       -48.9141  -30.9853    9.7236 C.ar      14 UNK        -0.0643 
     12 C12       -50.1361  -31.0279   10.3991 C.ar      14 UNK        -0.0930 
     13 C13       -51.3060  -31.3966    9.7292 C.ar      14 UNK        -0.0827 
     14 C14       -51.2419  -31.7618    8.3810 C.ar      14 UNK        -0.1249 
     15 C15       -52.6386  -31.3646   10.4601 C.3       14 UNK         0.0141 
     16 S16       -53.0909  -29.6542   10.8823 S.3       14 UNK        -0.2313 
     17 C17       -54.7425  -29.8806   11.6211 C.3       14 UNK        -0.0915 
     18 CA        -55.7112  -28.7348   11.2272 C.3       13 UNK         0.0968 
     19 C         -57.1575  -29.0078   11.7358 C.2       13 UNK         0.5732 
     20 N         -57.7708  -28.1437   12.5369 N.am      13 UNK        -0.7310 
     21 O         -57.7446  -30.0282   11.3840 O.2       13 UNK        -0.5035 
     22 N         -55.1701  -27.4243   11.6148 N.am      13 UNK        -0.4233 
     23 C         -55.4662  -26.2602   11.0267 C.2       13 UNK         0.4989 
     24 O         -56.1772  -26.1613   10.0252 O.2       13 UNK        -0.4996 
     25 CA        -54.8649  -24.9967   11.6799 C.3       12 UNK         0.0216 
     26 CB        -55.6231  -23.7105   11.2915 C.3       12 UNK        -0.1964 
     27 N         -54.7361  -25.0895   13.1431 N.am      12 UNK        -0.4276 
     28 C         -55.6963  -25.3613   14.0389 C.2       12 UNK         0.5020 
     29 O         -56.8619  -25.6231   13.7353 O.2       12 UNK        -0.5489 
     30 CA        -55.2591  -25.3935   15.5180 C.3       11 UNK         0.0294 
     31 CB        -56.4533  -25.5332   16.4809 C.3       11 UNK        -0.2019 
     32 N         -54.3010  -26.4704   15.7937 N.am      11 UNK        -0.4493 
     33 C         -53.0126  -26.4683   15.4310 C.2       11 UNK         0.4932 
     34 O         -52.4940  -25.5579   14.7836 O.2       11 UNK        -0.5029 
     35 CA        -52.1890  -27.7019   15.8148 C.3       10 UNK         0.0280 
     36 CB        -52.3900  -28.8184   14.7758 C.3       10 UNK        -0.1976 
     37 N         -50.7738  -27.3406   15.8483 N.am      10 UNK        -0.4242 
     38 C         -49.9710  -27.4203   16.9149 C.2       10 UNK         0.5072 
     39 O         -50.3228  -27.8590   18.0115 O.2       10 UNK        -0.5224 
     40 CA        -48.5213  -26.9373   16.7324 C.3       9 UNK         0.0343 
     41 CB        -47.6786  -28.0148   16.0301 C.3       9 UNK        -0.2003 
     42 N         -48.4067  -25.6764   15.9957 N.am      9 UNK        -0.4272 
     43 C         -48.8287  -24.4822   16.4390 C.2       9 UNK         0.4988 
     44 O         -49.3719  -24.3074   17.5303 O.2       9 UNK        -0.5108 
     45 CA        -48.5980  -23.2755   15.5147 C.3       8 UNK         0.0248 
     46 CB        -47.1406  -22.7906   15.5894 C.3       8 UNK        -0.2001 
     47 N         -48.9438  -23.6088   14.1332 N.am      8 UNK        -0.4140 
     48 C         -50.1683  -23.4606   13.6086 C.2       8 UNK         0.5028 
     49 O         -51.0755  -22.8414   14.1666 O.2       8 UNK        -0.5428 
     50 CA        -50.4425  -24.0923   12.2292 C.3       7 UNK         0.0264 
     51 CB        -50.5921  -23.0059   11.1511 C.3       7 UNK        -0.1988 
     52 N         -49.4235  -25.0515   11.7960 N.am      7 UNK        -0.4454 
     53 C         -49.2285  -26.2688   12.3209 C.2       7 UNK         0.5027 
     54 O         -49.9039  -26.7354   13.2355 O.2       7 UNK        -0.5083 
     55 CA        -48.0354  -27.0786   11.7789 C.3       6 UNK         0.0844 
     56 C56       -48.4088  -27.8073   10.4706 C.3       14 UNK        -0.0967 
     57 S57       -47.0753  -28.9090    9.8845 S.3       14 UNK        -0.2604 
     58 C58       -47.6518  -30.5420   10.4492 C.3       14 UNK         0.0134 
     59 N         -46.8402  -26.2469   11.6216 N.am      6 UNK        -0.4116 
     60 C         -46.1738  -25.6565   12.6200 C.2       5 UNK         0.5034 
     61 O         -46.5120  -25.7217   13.8014 O.2       5 UNK        -0.5045 
     62 CA        -44.9435  -24.8268   12.2220 C.3       5 UNK         0.0224 
     63 CB        -43.7340  -25.7383   11.9592 C.3       5 UNK        -0.1978 
     64 N         -45.1987  -23.9909   11.0449 N.am      5 UNK        -0.4737 
     65 C         -45.9781  -22.9010   11.0622 C.2       4 UNK         0.5027 
     66 O         -46.5182  -22.4631   12.0775 O.2       4 UNK        -0.5211 
     67 CA        -46.2174  -22.1935    9.7160 C.3       4 UNK         0.0297 
     68 CB        -45.0541  -21.2411    9.3952 C.3       4 UNK        -0.1993 
     69 N         -46.4502  -23.0897    8.5738 N.am      4 UNK        -0.4486 
     70 C         -47.4049  -24.0277    8.5174 C.2       3 UNK         0.4961 
     71 O         -48.1035  -24.3522    9.4780 O.2       3 UNK        -0.5105 
     72 CA        -47.6110  -24.7417    7.1732 C.3       3 UNK         0.0299 
     73 CB        -46.7188  -25.9887    7.0775 C.3       3 UNK        -0.1972 
     74 N         -49.0131  -25.1435    7.0539 N.am      3 UNK        -0.4305 
     75 C         -50.0145  -24.3246    6.7113 C.2       2 UNK         0.5006 
     76 O         -49.8362  -23.1995    6.2400 O.2       2 UNK        -0.5106 
     77 CA        -51.4509  -24.8393    6.9559 C.3       2 UNK         0.0296 
     78 CB        -52.5270  -23.9050    6.3705 C.3       2 UNK        -0.2002 
     79 N         -51.6915  -26.2008    6.4652 N.am      2 UNK        -0.4032 
     80 C         -51.2674  -27.3304    7.0507 C.2       1 UNK         0.5000 
     81 O         -50.5409  -27.3379    8.0427 O.2       1 UNK        -0.5238 
     82 H82       -53.9489  -27.5559    8.0886 H         1 UNK         0.0889 
     83 H83       -54.2346  -29.3049    8.0323 H         1 UNK         0.0889 
     84 H84       -55.5578  -28.1767    7.7606 H         1 UNK         0.0889 
     85 H85       -52.8063  -28.5821    4.6418 H         1 UNK         0.3028 
     86 H86       -51.9679  -29.3127    7.3060 H         1 UNK         0.0864 
     87 H87       -49.6722  -29.3756    6.2418 H         1 UNK         0.0720 
     88 H88       -50.3613  -28.7792    4.7561 H         1 UNK         0.0720 
     89 H89       -48.9331  -31.9859    5.8390 H         1 UNK         0.0814 
     90 H90       -50.2318  -33.1251    6.0860 H         1 UNK         0.0814 
     91 H91       -47.9180  -31.2956    7.8494 H         1 UNK         0.1469 
     92 H92       -50.1870  -30.7416   11.4409 H         1 UNK         0.1381 
     93 H93       -52.1428  -32.0463    7.8546 H         1 UNK         0.1206 
     94 H94       -52.5732  -31.9610   11.3712 H         1 UNK         0.0813 
     95 H95       -53.4250  -31.8078    9.8472 H         1 UNK         0.0813 
     96 H96       -55.1428  -30.8433   11.2982 H         1 UNK         0.0638 
     97 H97       -54.6339  -29.9407   12.7049 H         1 UNK         0.0638 
     98 H98       -55.7914  -28.7469   10.1398 H         1 UNK         0.0568 
     99 H99       -57.3258  -27.2807   12.8353 H         1 UNK         0.3450 
    100 H100      -58.7083  -28.3472   12.8432 H         1 UNK         0.3450 
    101 H101      -54.5790  -27.4148   12.4310 H         1 UNK         0.2987 
    102 H102      -53.8498  -24.9125   11.2888 H         1 UNK         0.0766 
    103 H103      -55.6220  -23.5635   10.2107 H         1 UNK         0.0798 
    104 H104      -56.6639  -23.7444   11.6155 H         1 UNK         0.0798 
    105 H105      -55.1616  -22.8288   11.7363 H         1 UNK         0.0798 
    106 H106      -53.7962  -24.9797   13.5212 H         1 UNK         0.3198 
    107 H107      -54.7755  -24.4370   15.7297 H         1 UNK         0.0843 
    108 H108      -56.9786  -26.4789   16.3409 H         1 UNK         0.0831 
    109 H109      -57.1775  -24.7328   16.3222 H         1 UNK         0.0831 
    110 H110      -56.1343  -25.4759   17.5217 H         1 UNK         0.0831 
    111 H111      -54.6618  -27.2731   16.2900 H         1 UNK         0.3133 
    112 H112      -52.5241  -28.0555   16.7919 H         1 UNK         0.0566 
    113 H113      -52.1061  -28.4933   13.7733 H         1 UNK         0.0814 
    114 H114      -51.7934  -29.6974   15.0201 H         1 UNK         0.0814 
    115 H115      -53.4321  -29.1364   14.7356 H         1 UNK         0.0814 
    116 H116      -50.4144  -26.9417   14.9810 H         1 UNK         0.3091 
    117 H117      -48.1003  -26.7760   17.7270 H         1 UNK         0.0702 
    118 H118      -46.6305  -27.7210   15.9689 H         1 UNK         0.0785 
    119 H119      -48.0318  -28.2045   15.0159 H         1 UNK         0.0785 
    120 H120      -47.7202  -28.9598   16.5735 H         1 UNK         0.0785 
    121 H121      -47.9059  -25.7182   15.1128 H         1 UNK         0.2998 
    122 H122      -49.2337  -22.4590   15.8640 H         1 UNK         0.0697 
    123 H123      -46.4328  -23.5617   15.2864 H         1 UNK         0.0825 
    124 H124      -46.8821  -22.4947   16.6069 H         1 UNK         0.0825 
    125 H125      -46.9804  -21.9235   14.9482 H         1 UNK         0.0825 
    126 H126      -48.2408  -24.0892   13.5887 H         1 UNK         0.3029 
    127 H127      -51.3905  -24.6283   12.3102 H         1 UNK         0.0897 
    128 H128      -49.6671  -22.4421   11.0214 H         1 UNK         0.0792 
    129 H129      -51.3763  -22.2953   11.4156 H         1 UNK         0.0792 
    130 H130      -50.8576  -23.4382   10.1862 H         1 UNK         0.0792 
    131 H131      -48.8385  -24.7617   11.0102 H         1 UNK         0.3086 
    132 H132      -47.8021  -27.8390   12.5273 H         1 UNK         0.0583 
    133 H133      -49.3345  -28.3724   10.5885 H         1 UNK         0.1020 
    134 H134      -48.6085  -27.0786    9.6847 H         1 UNK         0.1020 
    135 H135      -46.8625  -31.2744   10.2742 H         1 UNK         0.0694 
    136 H136      -47.8095  -30.5131   11.5286 H         1 UNK         0.0694 
    137 H137      -46.5171  -26.1082   10.6765 H         1 UNK         0.2989 
    138 H138      -44.7017  -24.1737   13.0640 H         1 UNK         0.1055 
    139 H139      -43.5196  -26.3601   12.8297 H         1 UNK         0.0806 
    140 H140      -42.8366  -25.1552   11.7516 H         1 UNK         0.0806 
    141 H141      -43.9024  -26.4078   11.1147 H         1 UNK         0.0806 
    142 H142      -44.7889  -24.2774   10.1675 H         1 UNK         0.3061 
    143 H143      -47.1211  -21.5913    9.8324 H         1 UNK         0.0734 
    144 H144      -44.1251  -21.7828    9.2133 H         1 UNK         0.0832 
    145 H145      -45.2677  -20.6334    8.5157 H         1 UNK         0.0832 
    146 H146      -44.8730  -20.5539   10.2232 H         1 UNK         0.0832 
    147 H147      -45.9086  -22.9057    7.7411 H         1 UNK         0.3156 
    148 H148      -47.3568  -24.0600    6.3589 H         1 UNK         0.0589 
    149 H149      -46.9317  -26.7011    7.8739 H         1 UNK         0.0808 
    150 H150      -46.8591  -26.5025    6.1263 H         1 UNK         0.0808 
    151 H151      -45.6632  -25.7238    7.1495 H         1 UNK         0.0808 
    152 H152      -49.2766  -26.0212    7.4940 H         1 UNK         0.3098 
    153 H153      -51.5875  -24.8473    8.0396 H         1 UNK         0.0720 
    154 H154      -53.5310  -24.2531    6.6147 H         1 UNK         0.0791 
    155 H155      -52.4500  -23.8322    5.2850 H         1 UNK         0.0791 
    156 H156      -52.4326  -22.8957    6.7737 H         1 UNK         0.0791 
    157 H157      -52.2563  -26.2841    5.6321 H         1 UNK         0.3028 
@<TRIPOS>BOND
     1    1    2 1    
     2    1   82 1    
     3    1   83 1    
     4    1   84 1    
     5    2    3 2    
     6    2    4 am   BACKBONE|DICT|INTERRES
     7    4    5 1    
     8    4   85 1    
     9    5    6 1    
    10    5   80 1    
    11    5   86 1    
    12    6    7 1    
    13    6   87 1    
    14    6   88 1    
    15    7    8 1    
    16    8    9 1    
    17    8   89 1    
    18    8   90 1    
    19    9   10 ar   
    20    9   14 ar   
    21   10   11 ar   
    22   10   91 1    
    23   11   12 ar   
    24   11   58 1    
    25   12   13 ar   
    26   12   92 1    
    27   13   14 ar   
    28   13   15 1    
    29   14   93 1    
    30   15   16 1    
    31   15   94 1    
    32   15   95 1    
    33   16   17 1    
    34   17   18 1    
    35   17   96 1    
    36   17   97 1    
    37   18   19 1    
    38   18   22 1    
    39   18   98 1    
    40   19   20 am   BACKBONE|DICT|INTERRES
    41   19   21 2    
    42   20   99 1    
    43   20  100 1    
    44   22   23 am   BACKBONE|DICT|INTERRES
    45   22  101 1    
    46   23   24 2    
    47   23   25 1    
    48   25   26 1    
    49   25   27 1    
    50   25  102 1    
    51   26  103 1    
    52   26  104 1    
    53   26  105 1    
    54   27   28 am   BACKBONE|DICT|INTERRES
    55   27  106 1    
    56   28   29 2    
    57   28   30 1    
    58   30   31 1    
    59   30   32 1    
    60   30  107 1    
    61   31  108 1    
    62   31  109 1    
    63   31  110 1    
    64   32   33 am   BACKBONE|DICT|INTERRES
    65   32  111 1    
    66   33   34 2    
    67   33   35 1    
    68   35   36 1    
    69   35   37 1    
    70   35  112 1    
    71   36  113 1    
    72   36  114 1    
    73   36  115 1    
    74   37   38 am   BACKBONE|DICT|INTERRES
    75   37  116 1    
    76   38   39 2    
    77   38   40 1    
    78   40   41 1    
    79   40   42 1    
    80   40  117 1    
    81   41  118 1    
    82   41  119 1    
    83   41  120 1    
    84   42   43 am   BACKBONE|DICT|INTERRES
    85   42  121 1    
    86   43   44 2    
    87   43   45 1    
    88   45   46 1    
    89   45   47 1    
    90   45  122 1    
    91   46  123 1    
    92   46  124 1    
    93   46  125 1    
    94   47   48 am   BACKBONE|DICT|INTERRES
    95   47  126 1    
    96   48   49 2    
    97   48   50 1    
    98   50   51 1    
    99   50   52 1    
   100   50  127 1    
   101   51  128 1    
   102   51  129 1    
   103   51  130 1    
   104   52   53 am   BACKBONE|DICT|INTERRES
   105   52  131 1    
   106   53   54 2    
   107   53   55 1    
   108   55   56 1    
   109   55   59 1    
   110   55  132 1    
   111   56   57 1    
   112   56  133 1    
   113   56  134 1    
   114   57   58 1    
   115   58  135 1    
   116   58  136 1    
   117   59   60 am   BACKBONE|DICT|INTERRES
   118   59  137 1    
   119   60   61 2    
   120   60   62 1    
   121   62   63 1    
   122   62   64 1    
   123   62  138 1    
   124   63  139 1    
   125   63  140 1    
   126   63  141 1    
   127   64   65 am   BACKBONE|DICT|INTERRES
   128   64  142 1    
   129   65   66 2    
   130   65   67 1    
   131   67   68 1    
   132   67   69 1    
   133   67  143 1    
   134   68  144 1    
   135   68  145 1    
   136   68  146 1    
   137   69   70 am   BACKBONE|DICT|INTERRES
   138   69  147 1    
   139   70   71 2    
   140   70   72 1    
   141   72   73 1    
   142   72   74 1    
   143   72  148 1    
   144   73  149 1    
   145   73  150 1    
   146   73  151 1    
   147   74   75 am   BACKBONE|DICT|INTERRES
   148   74  152 1    
   149   75   76 2    
   150   75   77 1    
   151   77   78 1    
   152   77   79 1    
   153   77  153 1    
   154   78  154 1    
   155   78  155 1    
   156   78  156 1    
   157   79   80 am   BACKBONE|DICT|INTERRES
   158   79  157 1    
   159   80   81 2    
@<TRIPOS>SUBSTRUCTURE
     1 UNK         1 GROUP             0       ****    0 ROOT    
