@<TRIPOS>MOLECULE
3R207
157   159    1
SMALL
USER_CHARGES


@<TRIPOS>ATOM
      1 CA        -53.3765  -30.2692    7.1174 C.3       0 UNK        -0.1975 
      2 C         -52.3791  -29.6355    6.1644 C.2       0 UNK         0.4852 
      3 O         -51.7055  -30.3419    5.4136 O.2       0 UNK        -0.5216 
      4 N         -52.2726  -28.3014    6.2016 N.am      1 UNK        -0.4461 
      5 CA        -51.3603  -27.5081    5.3654 C.3       1 UNK         0.0864 
      6 C6        -51.7893  -26.0209    5.2836 C.3       14 UNK        -0.0898 
      7 S7        -53.4821  -25.8084    4.6323 S.3       14 UNK        -0.2598 
      8 C8        -54.3472  -25.0440    6.0416 C.3       14 UNK         0.0286 
      9 C9        -54.5773  -26.0317    7.1765 C.ar      14 UNK        -0.0844 
     10 C10       -53.7101  -26.0642    8.2709 C.ar      14 UNK        -0.0881 
     11 C11       -53.9134  -26.9755    9.3116 C.ar      14 UNK        -0.0643 
     12 C12       -55.0216  -27.8258    9.2678 C.ar      14 UNK        -0.0930 
     13 C13       -55.9120  -27.7988    8.1858 C.ar      14 UNK        -0.0827 
     14 C14       -55.6706  -26.9017    7.1402 C.ar      14 UNK        -0.1249 
     15 C15       -57.1503  -28.6970    8.0930 C.3       14 UNK         0.0141 
     16 S16       -57.4694  -29.7972    9.5182 S.3       14 UNK        -0.2313 
     17 C17       -56.2458  -31.1131    9.2131 C.3       14 UNK        -0.0915 
     18 CA        -56.2081  -32.1846   10.3394 C.3       13 UNK         0.0968 
     19 C         -55.3394  -33.4245    9.9579 C.2       13 UNK         0.5732 
     20 N         -54.7012  -34.1014   10.9054 N.am      13 UNK        -0.7310 
     21 O         -55.2676  -33.8056    8.7916 O.2       13 UNK        -0.5035 
     22 N         -55.9240  -31.6191   11.6737 N.am      13 UNK        -0.4233 
     23 C         -54.7818  -31.0387   12.0662 C.2       13 UNK         0.4989 
     24 O         -53.8053  -30.8509   11.3352 O.2       13 UNK        -0.4996 
     25 CA        -54.7113  -30.6296   13.5439 C.3       12 UNK         0.0216 
     26 CB        -54.7647  -31.8655   14.4677 C.3       12 UNK        -0.1964 
     27 N         -53.4731  -29.8882   13.7735 N.am      12 UNK        -0.4276 
     28 C         -53.2111  -29.0990   14.8214 C.2       12 UNK         0.5020 
     29 O         -54.0116  -28.9036   15.7397 O.2       12 UNK        -0.5489 
     30 CA        -51.8143  -28.4437   14.8934 C.3       11 UNK         0.0294 
     31 CB        -50.9913  -28.5302   13.5897 C.3       11 UNK        -0.2019 
     32 N         -51.8731  -27.0582   15.3694 N.am      11 UNK        -0.4493 
     33 C         -52.5456  -26.0308   14.8344 C.2       11 UNK         0.4932 
     34 O         -53.2207  -26.1108   13.8089 O.2       11 UNK        -0.5029 
     35 CA        -52.4491  -24.6683   15.5489 C.3       10 UNK         0.0280 
     36 CB        -53.5409  -24.5364   16.6295 C.3       10 UNK        -0.1976 
     37 N         -51.1171  -24.3235   16.0782 N.am      10 UNK        -0.4242 
     38 C         -50.4445  -24.9001   17.0857 C.2       10 UNK         0.5072 
     39 O         -50.8581  -25.8852   17.7006 O.2       10 UNK        -0.5224 
     40 CA        -49.0911  -24.2869   17.4787 C.3       9 UNK         0.0343 
     41 CB        -48.1387  -25.3188   18.1172 C.3       9 UNK        -0.2003 
     42 N         -48.4129  -23.6392   16.3529 N.am      9 UNK        -0.4272 
     43 C         -47.6566  -22.5393   16.4728 C.2       9 UNK         0.4988 
     44 O         -47.5824  -21.8654   17.5015 O.2       9 UNK        -0.5108 
     45 CA        -46.8001  -22.1401   15.2637 C.3       8 UNK         0.0248 
     46 CB        -45.5615  -23.0445   15.1648 C.3       8 UNK        -0.2001 
     47 N         -47.5364  -22.1776   14.0015 N.am      8 UNK        -0.4140 
     48 C         -48.3213  -21.1877   13.5554 C.2       8 UNK         0.5028 
     49 O         -48.5515  -20.1568   14.1890 O.2       8 UNK        -0.5428 
     50 CA        -48.9341  -21.3558   12.1542 C.3       7 UNK         0.0264 
     51 CB        -48.0685  -20.6394   11.1050 C.3       7 UNK        -0.1988 
     52 N         -49.1088  -22.7614   11.7728 N.am      7 UNK        -0.4454 
     53 C         -50.1137  -23.5207   12.2342 C.2       7 UNK         0.5027 
     54 O         -50.9851  -23.0929   12.9907 O.2       7 UNK        -0.5083 
     55 CA        -50.1512  -25.0040   11.8159 C.3       6 UNK         0.0844 
     56 C56       -50.8549  -25.1766   10.4465 C.3       14 UNK        -0.0967 
     57 S57       -51.2079  -26.9278   10.0657 S.3       14 UNK        -0.2604 
     58 C58       -52.9734  -27.0443   10.5095 C.3       14 UNK         0.0134 
     59 N         -48.8353  -25.6483   11.8614 N.am      6 UNK        -0.4116 
     60 C         -48.0650  -25.7732   12.9525 C.2       5 UNK         0.5034 
     61 O         -48.3377  -25.2841   14.0493 O.2       5 UNK        -0.5045 
     62 CA        -46.7587  -26.5606   12.7898 C.3       5 UNK         0.0224 
     63 CB        -47.0411  -28.0710   12.7286 C.3       5 UNK        -0.1978 
     64 N         -46.0571  -26.1436   11.5763 N.am      5 UNK        -0.4737 
     65 C         -45.0381  -25.2753   11.5450 C.2       4 UNK         0.5027 
     66 O         -44.5048  -24.8127   12.5524 O.2       4 UNK        -0.5211 
     67 CA        -44.5184  -24.8349   10.1623 C.3       4 UNK         0.0297 
     68 CB        -43.2820  -25.6594    9.7698 C.3       4 UNK        -0.1993 
     69 N         -45.5111  -24.9150    9.0861 N.am      4 UNK        -0.4486 
     70 C         -46.6565  -24.2208    9.0407 C.2       3 UNK         0.4961 
     71 O         -47.0190  -23.4292    9.9098 O.2       3 UNK        -0.5105 
     72 CA        -47.5912  -24.5033    7.8529 C.3       3 UNK         0.0299 
     73 CB        -47.1632  -23.6833    6.6261 C.3       3 UNK        -0.1972 
     74 N         -47.7288  -25.9160    7.4726 N.am      3 UNK        -0.4305 
     75 C         -47.9308  -26.9594    8.2909 C.2       2 UNK         0.5006 
     76 O         -47.8806  -26.8923    9.5194 O.2       2 UNK        -0.5106 
     77 CA        -48.3026  -28.2893    7.6160 C.3       2 UNK         0.0296 
     78 CB        -48.3155  -29.4678    8.6082 C.3       2 UNK        -0.2002 
     79 N         -49.6235  -28.1795    6.9971 N.am      2 UNK        -0.4032 
     80 C         -49.8832  -27.6146    5.8090 C.2       1 UNK         0.5000 
     81 O         -49.0005  -27.1558    5.0798 O.2       1 UNK        -0.5238 
     82 H82       -54.3949  -30.0346    6.8091 H         1 UNK         0.0889 
     83 H83       -53.2227  -29.8991    8.1311 H         1 UNK         0.0889 
     84 H84       -53.2663  -31.3534    7.1348 H         1 UNK         0.0889 
     85 H85       -52.8839  -27.7694    6.8087 H         1 UNK         0.3028 
     86 H86       -51.4023  -27.9177    4.3537 H         1 UNK         0.0864 
     87 H87       -51.1222  -25.4716    4.6163 H         1 UNK         0.0720 
     88 H88       -51.6971  -25.5371    6.2567 H         1 UNK         0.0720 
     89 H89       -55.3082  -24.6606    5.6952 H         1 UNK         0.0814 
     90 H90       -53.7861  -24.1753    6.3900 H         1 UNK         0.0814 
     91 H91       -52.8726  -25.3826    8.3096 H         1 UNK         0.1469 
     92 H92       -55.1795  -28.5065   10.0914 H         1 UNK         0.1381 
     93 H93       -56.3454  -26.8711    6.2951 H         1 UNK         0.1206 
     94 H94       -58.0252  -28.0570    7.9710 H         1 UNK         0.0813 
     95 H95       -57.0869  -29.3017    7.1871 H         1 UNK         0.0813 
     96 H96       -55.2617  -30.6658    9.0914 H         1 UNK         0.0638 
     97 H97       -56.4964  -31.5691    8.2538 H         1 UNK         0.0638 
     98 H98       -57.2169  -32.5910   10.4163 H         1 UNK         0.0568 
     99 H99       -54.1532  -34.9071   10.6486 H         1 UNK         0.3450 
    100 H100      -54.7587  -33.8154   11.8686 H         1 UNK         0.3450 
    101 H101      -56.6651  -31.7308   12.3501 H         1 UNK         0.2987 
    102 H102      -55.5592  -29.9737   13.7530 H         1 UNK         0.0766 
    103 H103      -53.9314  -32.5435   14.2789 H         1 UNK         0.0798 
    104 H104      -55.6863  -32.4316   14.3292 H         1 UNK         0.0798 
    105 H105      -54.7275  -31.5807   15.5193 H         1 UNK         0.0798 
    106 H106      -52.8020  -29.9706   13.0186 H         1 UNK         0.3198 
    107 H107      -51.2691  -28.9977   15.6589 H         1 UNK         0.0843 
    108 H108      -51.4973  -28.0374   12.7626 H         1 UNK         0.0831 
    109 H109      -50.7975  -29.5635   13.3002 H         1 UNK         0.0831 
    110 H110      -50.0215  -28.0488   13.7099 H         1 UNK         0.0831 
    111 H111      -51.4148  -26.8715   16.2594 H         1 UNK         0.3133 
    112 H112      -52.6649  -23.9110   14.7949 H         1 UNK         0.0566 
    113 H113      -53.5285  -23.5480   17.0886 H         1 UNK         0.0814 
    114 H114      -54.5317  -24.6805   16.1967 H         1 UNK         0.0814 
    115 H115      -53.4267  -25.2773   17.4212 H         1 UNK         0.0814 
    116 H116      -50.6663  -23.5511   15.6063 H         1 UNK         0.3091 
    117 H117      -49.3316  -23.5385   18.2364 H         1 UNK         0.0702 
    118 H118      -48.5860  -25.7814   18.9980 H         1 UNK         0.0785 
    119 H119      -47.8894  -26.1167   17.4165 H         1 UNK         0.0785 
    120 H120      -47.2072  -24.8539   18.4405 H         1 UNK         0.0785 
    121 H121      -48.4054  -24.1598   15.4756 H         1 UNK         0.2998 
    122 H122      -46.4480  -21.1195   15.4306 H         1 UNK         0.0697 
    123 H123      -45.8300  -24.0838   14.9717 H         1 UNK         0.0825 
    124 H124      -44.9868  -23.0237   16.0917 H         1 UNK         0.0825 
    125 H125      -44.8959  -22.7179   14.3656 H         1 UNK         0.0825 
    126 H126      -47.4280  -23.0024   13.4295 H         1 UNK         0.3029 
    127 H127      -49.9137  -20.8721   12.1636 H         1 UNK         0.0897 
    128 H128      -48.4880  -20.7430   10.1041 H         1 UNK         0.0792 
    129 H129      -47.0508  -21.0311   11.0845 H         1 UNK         0.0792 
    130 H130      -48.0005  -19.5722   11.3201 H         1 UNK         0.0792 
    131 H131      -48.4120  -23.1548   11.1419 H         1 UNK         0.3086 
    132 H132      -50.7620  -25.5143   12.5619 H         1 UNK         0.0583 
    133 H133      -51.7880  -24.6103   10.4166 H         1 UNK         0.1020 
    134 H134      -50.2358  -24.7710    9.6466 H         1 UNK         0.1020 
    135 H135      -53.1170  -27.9889   11.0361 H         1 UNK         0.0694 
    136 H136      -53.2416  -26.2593   11.2157 H         1 UNK         0.0694 
    137 H137      -48.5350  -26.1039   11.0018 H         1 UNK         0.2989 
    138 H138      -46.1403  -26.3689   13.6697 H         1 UNK         0.1055 
    139 H139      -47.5368  -28.4116   13.6385 H         1 UNK         0.0806 
    140 H140      -46.1168  -28.6407   12.6325 H         1 UNK         0.0806 
    141 H141      -47.6835  -28.3347   11.8870 H         1 UNK         0.0806 
    142 H142      -46.4703  -26.4415   10.6962 H         1 UNK         0.3061 
    143 H143      -44.2178  -23.7888   10.2514 H         1 UNK         0.0734 
    144 H144      -42.5108  -25.5956   10.5390 H         1 UNK         0.0832 
    145 H145      -42.8399  -25.2978    8.8413 H         1 UNK         0.0832 
    146 H146      -43.5253  -26.7148    9.6404 H         1 UNK         0.0832 
    147 H147      -45.3196  -25.5623    8.3353 H         1 UNK         0.3156 
    148 H148      -48.5855  -24.1620    8.1428 H         1 UNK         0.0589 
    149 H149      -46.1982  -24.0109    6.2373 H         1 UNK         0.0808 
    150 H150      -47.8937  -23.7628    5.8206 H         1 UNK         0.0808 
    151 H151      -47.0730  -22.6247    6.8746 H         1 UNK         0.0808 
    152 H152      -47.8355  -26.1003    6.4806 H         1 UNK         0.3098 
    153 H153      -47.5548  -28.5001    6.8487 H         1 UNK         0.0720 
    154 H154      -48.5425  -30.4074    8.1044 H         1 UNK         0.0791 
    155 H155      -49.0540  -29.3244    9.3986 H         1 UNK         0.0791 
    156 H156      -47.3432  -29.5838    9.0889 H         1 UNK         0.0791 
    157 H157      -50.4077  -28.4816    7.5566 H         1 UNK         0.3028 
@<TRIPOS>BOND
     1    1    2 1    
     2    1   82 1    
     3    1   83 1    
     4    1   84 1    
     5    2    3 2    
     6    2    4 am   BACKBONE|DICT|INTERRES
     7    4    5 1    
     8    4   85 1    
     9    5    6 1    
    10    5   80 1    
    11    5   86 1    
    12    6    7 1    
    13    6   87 1    
    14    6   88 1    
    15    7    8 1    
    16    8    9 1    
    17    8   89 1    
    18    8   90 1    
    19    9   10 ar   
    20    9   14 ar   
    21   10   11 ar   
    22   10   91 1    
    23   11   12 ar   
    24   11   58 1    
    25   12   13 ar   
    26   12   92 1    
    27   13   14 ar   
    28   13   15 1    
    29   14   93 1    
    30   15   16 1    
    31   15   94 1    
    32   15   95 1    
    33   16   17 1    
    34   17   18 1    
    35   17   96 1    
    36   17   97 1    
    37   18   19 1    
    38   18   22 1    
    39   18   98 1    
    40   19   20 am   BACKBONE|DICT|INTERRES
    41   19   21 2    
    42   20   99 1    
    43   20  100 1    
    44   22   23 am   BACKBONE|DICT|INTERRES
    45   22  101 1    
    46   23   24 2    
    47   23   25 1    
    48   25   26 1    
    49   25   27 1    
    50   25  102 1    
    51   26  103 1    
    52   26  104 1    
    53   26  105 1    
    54   27   28 am   BACKBONE|DICT|INTERRES
    55   27  106 1    
    56   28   29 2    
    57   28   30 1    
    58   30   31 1    
    59   30   32 1    
    60   30  107 1    
    61   31  108 1    
    62   31  109 1    
    63   31  110 1    
    64   32   33 am   BACKBONE|DICT|INTERRES
    65   32  111 1    
    66   33   34 2    
    67   33   35 1    
    68   35   36 1    
    69   35   37 1    
    70   35  112 1    
    71   36  113 1    
    72   36  114 1    
    73   36  115 1    
    74   37   38 am   BACKBONE|DICT|INTERRES
    75   37  116 1    
    76   38   39 2    
    77   38   40 1    
    78   40   41 1    
    79   40   42 1    
    80   40  117 1    
    81   41  118 1    
    82   41  119 1    
    83   41  120 1    
    84   42   43 am   BACKBONE|DICT|INTERRES
    85   42  121 1    
    86   43   44 2    
    87   43   45 1    
    88   45   46 1    
    89   45   47 1    
    90   45  122 1    
    91   46  123 1    
    92   46  124 1    
    93   46  125 1    
    94   47   48 am   BACKBONE|DICT|INTERRES
    95   47  126 1    
    96   48   49 2    
    97   48   50 1    
    98   50   51 1    
    99   50   52 1    
   100   50  127 1    
   101   51  128 1    
   102   51  129 1    
   103   51  130 1    
   104   52   53 am   BACKBONE|DICT|INTERRES
   105   52  131 1    
   106   53   54 2    
   107   53   55 1    
   108   55   56 1    
   109   55   59 1    
   110   55  132 1    
   111   56   57 1    
   112   56  133 1    
   113   56  134 1    
   114   57   58 1    
   115   58  135 1    
   116   58  136 1    
   117   59   60 am   BACKBONE|DICT|INTERRES
   118   59  137 1    
   119   60   61 2    
   120   60   62 1    
   121   62   63 1    
   122   62   64 1    
   123   62  138 1    
   124   63  139 1    
   125   63  140 1    
   126   63  141 1    
   127   64   65 am   BACKBONE|DICT|INTERRES
   128   64  142 1    
   129   65   66 2    
   130   65   67 1    
   131   67   68 1    
   132   67   69 1    
   133   67  143 1    
   134   68  144 1    
   135   68  145 1    
   136   68  146 1    
   137   69   70 am   BACKBONE|DICT|INTERRES
   138   69  147 1    
   139   70   71 2    
   140   70   72 1    
   141   72   73 1    
   142   72   74 1    
   143   72  148 1    
   144   73  149 1    
   145   73  150 1    
   146   73  151 1    
   147   74   75 am   BACKBONE|DICT|INTERRES
   148   74  152 1    
   149   75   76 2    
   150   75   77 1    
   151   77   78 1    
   152   77   79 1    
   153   77  153 1    
   154   78  154 1    
   155   78  155 1    
   156   78  156 1    
   157   79   80 am   BACKBONE|DICT|INTERRES
   158   79  157 1    
   159   80   81 2    
@<TRIPOS>SUBSTRUCTURE
     1 UNK         1 GROUP             0       ****    0 ROOT    
