@<TRIPOS>MOLECULE
3R207
157   159    1
SMALL
USER_CHARGES


@<TRIPOS>ATOM
      1 CA        -44.7382  -31.4654    7.5507 C.3       0 UNK        -0.1975 
      2 C         -45.5642  -30.8489    6.4316 C.2       0 UNK         0.4852 
      3 O         -45.1873  -30.9518    5.2638 O.2       0 UNK        -0.5216 
      4 N         -46.6870  -30.2063    6.7809 N.am      1 UNK        -0.4461 
      5 CA        -47.6229  -29.5661    5.8435 C.3       1 UNK         0.0864 
      6 C6        -48.9580  -29.1782    6.5277 C.3       14 UNK        -0.0898 
      7 S7        -49.7292  -30.5243    7.4880 S.3       14 UNK        -0.2598 
      8 C8        -50.2709  -29.6263    8.9791 C.3       14 UNK         0.0286 
      9 C9        -51.5856  -28.8897    8.7560 C.ar      14 UNK        -0.0844 
     10 C10       -51.6192  -27.6807    8.0534 C.ar      14 UNK        -0.0881 
     11 C11       -52.8233  -26.9944    7.8705 C.ar      14 UNK        -0.0643 
     12 C12       -54.0015  -27.5180    8.4127 C.ar      14 UNK        -0.0930 
     13 C13       -53.9817  -28.7255    9.1176 C.ar      14 UNK        -0.0827 
     14 C14       -52.7735  -29.4107    9.2756 C.ar      14 UNK        -0.1249 
     15 C15       -55.2574  -29.2918    9.7221 C.3       14 UNK         0.0141 
     16 S16       -55.2575  -29.0695   11.5255 S.3       14 UNK        -0.2313 
     17 C17       -56.8134  -29.8920   12.0142 C.3       14 UNK        -0.0915 
     18 CA        -57.7535  -28.9720   12.8406 C.3       13 UNK         0.0968 
     19 C         -59.0383  -29.7420   13.2663 C.2       13 UNK         0.5732 
     20 N         -59.2654  -30.0085   14.5479 N.am      13 UNK        -0.7310 
     21 O         -59.8456  -30.1030   12.4131 O.2       13 UNK        -0.5035 
     22 N         -57.0246  -28.3290   13.9422 N.am      13 UNK        -0.4233 
     23 C         -57.4445  -27.2983   14.6840 C.2       13 UNK         0.4989 
     24 O         -58.5272  -26.7317   14.5265 O.2       13 UNK        -0.4996 
     25 CA        -56.4667  -26.8175   15.7739 C.3       12 UNK         0.0216 
     26 CB        -57.1636  -26.0781   16.9359 C.3       12 UNK        -0.1964 
     27 N         -55.5889  -27.8908   16.2641 N.am      12 UNK        -0.4276 
     28 C         -55.9451  -28.9956   16.9396 C.2       12 UNK         0.5020 
     29 O         -57.1034  -29.2393   17.2810 O.2       12 UNK        -0.5489 
     30 CA        -54.8492  -30.0386   17.2460 C.3       11 UNK         0.0294 
     31 CB        -55.1883  -31.3846   16.5810 C.3       11 UNK        -0.2019 
     32 N         -53.5060  -29.6355   16.8186 N.am      11 UNK        -0.4493 
     33 C         -52.7136  -28.7644   17.4568 C.2       11 UNK         0.4932 
     34 O         -53.0069  -28.2262   18.5245 O.2       11 UNK        -0.5029 
     35 CA        -51.3821  -28.3998   16.7706 C.3       10 UNK         0.0280 
     36 CB        -50.8900  -29.4530   15.7515 C.3       10 UNK        -0.1976 
     37 N         -51.4441  -27.0743   16.1456 N.am      10 UNK        -0.4242 
     38 C         -52.3217  -26.6390   15.2308 C.2       10 UNK         0.5072 
     39 O         -53.2258  -27.3356   14.7676 O.2       10 UNK        -0.5224 
     40 CA        -52.1995  -25.1812   14.7538 C.3       9 UNK         0.0343 
     41 CB        -52.9485  -24.2274   15.7047 C.3       9 UNK        -0.2003 
     42 N         -50.8321  -24.7098   14.4907 N.am      9 UNK        -0.4272 
     43 C         -49.8184  -24.5166   15.3500 C.2       9 UNK         0.4988 
     44 O         -49.8787  -24.7901   16.5498 O.2       9 UNK        -0.5108 
     45 CA        -48.5043  -23.9328   14.7930 C.3       8 UNK         0.0248 
     46 CB        -47.4371  -25.0340   14.6822 C.3       8 UNK        -0.2001 
     47 N         -48.6452  -23.2624   13.4965 N.am      8 UNK        -0.4140 
     48 C         -49.3446  -22.1380   13.2839 C.2       8 UNK         0.5028 
     49 O         -49.8803  -21.4856   14.1807 O.2       8 UNK        -0.5428 
     50 CA        -49.5064  -21.6759   11.8247 C.3       7 UNK         0.0264 
     51 CB        -48.3879  -20.6923   11.4467 C.3       7 UNK        -0.1988 
     52 N         -49.5483  -22.7704   10.8472 N.am      7 UNK        -0.4454 
     53 C         -50.4708  -23.7457   10.8125 C.2       7 UNK         0.5027 
     54 O         -51.3838  -23.8482   11.6327 O.2       7 UNK        -0.5083 
     55 CA        -50.3148  -24.8150    9.7090 C.3       6 UNK         0.0844 
     56 C56       -50.7349  -24.2873    8.3142 C.3       14 UNK        -0.0967 
     57 S57       -52.5477  -24.2363    8.1060 S.3       14 UNK        -0.2604 
     58 C58       -52.8573  -25.7005    7.0684 C.3       14 UNK         0.0134 
     59 N         -48.9588  -25.3660    9.6955 N.am      6 UNK        -0.4116 
     60 C         -48.4184  -26.0850   10.6897 C.2       5 UNK         0.5034 
     61 O         -49.0391  -26.4734   11.6785 O.2       5 UNK        -0.5045 
     62 CA        -46.9137  -26.3795   10.5842 C.3       5 UNK         0.0224 
     63 CB        -46.6570  -27.6777    9.8007 C.3       5 UNK        -0.1978 
     64 N         -46.1779  -25.2681    9.9719 N.am      5 UNK        -0.4737 
     65 C         -45.9766  -24.0837   10.5688 C.2       4 UNK         0.5027 
     66 O         -46.3566  -23.8242   11.7093 O.2       4 UNK        -0.5211 
     67 CA        -45.2691  -22.9944    9.7441 C.3       4 UNK         0.0297 
     68 CB        -43.7438  -23.1548    9.8387 C.3       4 UNK        -0.1993 
     69 N         -45.6754  -22.9856    8.3365 N.am      4 UNK        -0.4486 
     70 C         -46.9127  -22.7083    7.8994 C.2       3 UNK         0.4961 
     71 O         -47.8421  -22.3824    8.6357 O.2       3 UNK        -0.5105 
     72 CA        -47.1755  -22.8891    6.3933 C.3       3 UNK         0.0299 
     73 CB        -46.8439  -21.5982    5.6289 C.3       3 UNK        -0.1972 
     74 N         -46.4402  -24.0167    5.8072 N.am      3 UNK        -0.4305 
     75 C         -46.5644  -25.2890    6.2086 C.2       2 UNK         0.5006 
     76 O         -47.3351  -25.6474    7.1051 O.2       2 UNK        -0.5106 
     77 CA        -45.6142  -26.3073    5.5554 C.3       2 UNK         0.0296 
     78 CB        -44.1892  -26.1439    6.1126 C.3       2 UNK        -0.2002 
     79 N         -46.0666  -27.6678    5.8342 N.am      2 UNK        -0.4032 
     80 C         -47.0405  -28.3037    5.1702 C.2       1 UNK         0.5000 
     81 O         -47.5152  -27.9086    4.1032 O.2       1 UNK        -0.5238 
     82 H82       -44.6555  -32.5422    7.4057 H         1 UNK         0.0889 
     83 H83       -45.1812  -31.2884    8.5307 H         1 UNK         0.0889 
     84 H84       -43.7335  -31.0434    7.5517 H         1 UNK         0.0889 
     85 H85       -46.9717  -30.1977    7.7498 H         1 UNK         0.3028 
     86 H86       -47.8408  -30.2855    5.0512 H         1 UNK         0.0864 
     87 H87       -49.6840  -28.8451    5.7831 H         1 UNK         0.0720 
     88 H88       -48.7903  -28.3265    7.1887 H         1 UNK         0.0720 
     89 H89       -50.3801  -30.3467    9.7912 H         1 UNK         0.0814 
     90 H90       -49.5015  -28.9267    9.3077 H         1 UNK         0.0814 
     91 H91       -50.7088  -27.2668    7.6478 H         1 UNK         0.1469 
     92 H92       -54.9333  -26.9842    8.2845 H         1 UNK         0.1381 
     93 H93       -52.7588  -30.3425    9.8248 H         1 UNK         0.1206 
     94 H94       -55.3350  -30.3539    9.4842 H         1 UNK         0.0813 
     95 H95       -56.1383  -28.8087    9.2961 H         1 UNK         0.0813 
     96 H96       -56.5483  -30.7802   12.5908 H         1 UNK         0.0638 
     97 H97       -57.3272  -30.2520   11.1209 H         1 UNK         0.0638 
     98 H98       -58.0908  -28.1701   12.1814 H         1 UNK         0.0568 
     99 H99       -58.6163  -29.7069   15.2597 H         1 UNK         0.3450 
    100 H100      -60.1029  -30.5052   14.8067 H         1 UNK         0.3450 
    101 H101      -56.1070  -28.7038   14.1289 H         1 UNK         0.2987 
    102 H102      -55.8106  -26.1004   15.2794 H         1 UNK         0.0766 
    103 H103      -57.6844  -25.1897   16.5769 H         1 UNK         0.0798 
    104 H104      -56.4430  -25.7493   17.6847 H         1 UNK         0.0798 
    105 H105      -57.9027  -26.7066   17.4333 H         1 UNK         0.0798 
    106 H106      -54.6215  -27.8177   15.9547 H         1 UNK         0.3198 
    107 H107      -54.8397  -30.1839   18.3284 H         1 UNK         0.0843 
    108 H108      -56.1588  -31.7544   16.9153 H         1 UNK         0.0831 
    109 H109      -54.4523  -32.1487   16.8319 H         1 UNK         0.0831 
    110 H110      -55.2301  -31.3004   15.4943 H         1 UNK         0.0831 
    111 H111      -53.1872  -29.9947   15.9298 H         1 UNK         0.3133 
    112 H112      -50.6351  -28.3346   17.5630 H         1 UNK         0.0566 
    113 H113      -49.8873  -29.2103   15.3992 H         1 UNK         0.0814 
    114 H114      -50.8365  -30.4446   16.2034 H         1 UNK         0.0814 
    115 H115      -51.5332  -29.5199   14.8734 H         1 UNK         0.0814 
    116 H116      -50.7785  -26.3841   16.4891 H         1 UNK         0.3091 
    117 H117      -52.7046  -25.1351   13.7876 H         1 UNK         0.0702 
    118 H118      -52.5112  -24.2179   16.7034 H         1 UNK         0.0785 
    119 H119      -53.9924  -24.5231   15.8130 H         1 UNK         0.0785 
    120 H120      -52.9392  -23.2054   15.3253 H         1 UNK         0.0785 
    121 H121      -50.6660  -24.4692   13.5192 H         1 UNK         0.2998 
    122 H122      -48.1528  -23.1900   15.5119 H         1 UNK         0.0697 
    123 H123      -47.7247  -25.8032   13.9651 H         1 UNK         0.0825 
    124 H124      -47.2806  -25.5264   15.6429 H         1 UNK         0.0825 
    125 H125      -46.4760  -24.6258   14.3691 H         1 UNK         0.0825 
    126 H126      -48.1468  -23.6736   12.7138 H         1 UNK         0.3029 
    127 H127      -50.4602  -21.1484   11.7580 H         1 UNK         0.0897 
    128 H128      -48.5314  -20.2933   10.4423 H         1 UNK         0.0792 
    129 H129      -48.3648  -19.8441   12.1323 H         1 UNK         0.0792 
    130 H130      -47.4075  -21.1675   11.4821 H         1 UNK         0.0792 
    131 H131      -48.8489  -22.7353   10.1063 H         1 UNK         0.3086 
    132 H132      -50.9766  -25.6436    9.9708 H         1 UNK         0.0583 
    133 H133      -50.3346  -23.2889    8.1284 H         1 UNK         0.1020 
    134 H134      -50.3091  -24.9122    7.5280 H         1 UNK         0.1020 
    135 H135      -53.8352  -25.5880    6.5977 H         1 UNK         0.0694 
    136 H136      -52.1366  -25.7389    6.2501 H         1 UNK         0.0694 
    137 H137      -48.3721  -25.1318    8.9030 H         1 UNK         0.2989 
    138 H138      -46.5349  -26.5157   11.6001 H         1 UNK         0.1055 
    139 H139      -47.1373  -28.5255   10.2911 H         1 UNK         0.0806 
    140 H140      -45.5918  -27.9014    9.7408 H         1 UNK         0.0806 
    141 H141      -47.0489  -27.6252    8.7860 H         1 UNK         0.0806 
    142 H142      -45.8922  -25.3824    9.0102 H         1 UNK         0.3061 
    143 H143      -45.5365  -22.0272   10.1740 H         1 UNK         0.0734 
    144 H144      -43.4160  -23.1450   10.8793 H         1 UNK         0.0832 
    145 H145      -43.4053  -24.0944    9.4002 H         1 UNK         0.0832 
    146 H146      -43.2262  -22.3404    9.3314 H         1 UNK         0.0832 
    147 H147      -44.9739  -23.2361    7.6554 H         1 UNK         0.3156 
    148 H148      -48.2413  -23.0932    6.2704 H         1 UNK         0.0589 
    149 H149      -45.7826  -21.3531    5.6860 H         1 UNK         0.0808 
    150 H150      -47.1147  -21.6792    4.5760 H         1 UNK         0.0808 
    151 H151      -47.3962  -20.7509    6.0383 H         1 UNK         0.0808 
    152 H152      -45.7858  -23.7991    5.0687 H         1 UNK         0.3098 
    153 H153      -45.6011  -26.1398    4.4763 H         1 UNK         0.0720 
    154 H154      -43.5094  -26.8755    5.6750 H         1 UNK         0.0791 
    155 H155      -44.1584  -26.2681    7.1961 H         1 UNK         0.0791 
    156 H156      -43.7841  -25.1572    5.8847 H         1 UNK         0.0791 
    157 H157      -45.7640  -28.0696    6.7081 H         1 UNK         0.3028 
@<TRIPOS>BOND
     1    1    2 1    
     2    1   82 1    
     3    1   83 1    
     4    1   84 1    
     5    2    3 2    
     6    2    4 am   BACKBONE|DICT|INTERRES
     7    4    5 1    
     8    4   85 1    
     9    5    6 1    
    10    5   80 1    
    11    5   86 1    
    12    6    7 1    
    13    6   87 1    
    14    6   88 1    
    15    7    8 1    
    16    8    9 1    
    17    8   89 1    
    18    8   90 1    
    19    9   10 ar   
    20    9   14 ar   
    21   10   11 ar   
    22   10   91 1    
    23   11   12 ar   
    24   11   58 1    
    25   12   13 ar   
    26   12   92 1    
    27   13   14 ar   
    28   13   15 1    
    29   14   93 1    
    30   15   16 1    
    31   15   94 1    
    32   15   95 1    
    33   16   17 1    
    34   17   18 1    
    35   17   96 1    
    36   17   97 1    
    37   18   19 1    
    38   18   22 1    
    39   18   98 1    
    40   19   20 am   BACKBONE|DICT|INTERRES
    41   19   21 2    
    42   20   99 1    
    43   20  100 1    
    44   22   23 am   BACKBONE|DICT|INTERRES
    45   22  101 1    
    46   23   24 2    
    47   23   25 1    
    48   25   26 1    
    49   25   27 1    
    50   25  102 1    
    51   26  103 1    
    52   26  104 1    
    53   26  105 1    
    54   27   28 am   BACKBONE|DICT|INTERRES
    55   27  106 1    
    56   28   29 2    
    57   28   30 1    
    58   30   31 1    
    59   30   32 1    
    60   30  107 1    
    61   31  108 1    
    62   31  109 1    
    63   31  110 1    
    64   32   33 am   BACKBONE|DICT|INTERRES
    65   32  111 1    
    66   33   34 2    
    67   33   35 1    
    68   35   36 1    
    69   35   37 1    
    70   35  112 1    
    71   36  113 1    
    72   36  114 1    
    73   36  115 1    
    74   37   38 am   BACKBONE|DICT|INTERRES
    75   37  116 1    
    76   38   39 2    
    77   38   40 1    
    78   40   41 1    
    79   40   42 1    
    80   40  117 1    
    81   41  118 1    
    82   41  119 1    
    83   41  120 1    
    84   42   43 am   BACKBONE|DICT|INTERRES
    85   42  121 1    
    86   43   44 2    
    87   43   45 1    
    88   45   46 1    
    89   45   47 1    
    90   45  122 1    
    91   46  123 1    
    92   46  124 1    
    93   46  125 1    
    94   47   48 am   BACKBONE|DICT|INTERRES
    95   47  126 1    
    96   48   49 2    
    97   48   50 1    
    98   50   51 1    
    99   50   52 1    
   100   50  127 1    
   101   51  128 1    
   102   51  129 1    
   103   51  130 1    
   104   52   53 am   BACKBONE|DICT|INTERRES
   105   52  131 1    
   106   53   54 2    
   107   53   55 1    
   108   55   56 1    
   109   55   59 1    
   110   55  132 1    
   111   56   57 1    
   112   56  133 1    
   113   56  134 1    
   114   57   58 1    
   115   58  135 1    
   116   58  136 1    
   117   59   60 am   BACKBONE|DICT|INTERRES
   118   59  137 1    
   119   60   61 2    
   120   60   62 1    
   121   62   63 1    
   122   62   64 1    
   123   62  138 1    
   124   63  139 1    
   125   63  140 1    
   126   63  141 1    
   127   64   65 am   BACKBONE|DICT|INTERRES
   128   64  142 1    
   129   65   66 2    
   130   65   67 1    
   131   67   68 1    
   132   67   69 1    
   133   67  143 1    
   134   68  144 1    
   135   68  145 1    
   136   68  146 1    
   137   69   70 am   BACKBONE|DICT|INTERRES
   138   69  147 1    
   139   70   71 2    
   140   70   72 1    
   141   72   73 1    
   142   72   74 1    
   143   72  148 1    
   144   73  149 1    
   145   73  150 1    
   146   73  151 1    
   147   74   75 am   BACKBONE|DICT|INTERRES
   148   74  152 1    
   149   75   76 2    
   150   75   77 1    
   151   77   78 1    
   152   77   79 1    
   153   77  153 1    
   154   78  154 1    
   155   78  155 1    
   156   78  156 1    
   157   79   80 am   BACKBONE|DICT|INTERRES
   158   79  157 1    
   159   80   81 2    
@<TRIPOS>SUBSTRUCTURE
     1 UNK         1 GROUP             0       ****    0 ROOT    
