@<TRIPOS>MOLECULE
3R207
157   159    1
SMALL
USER_CHARGES


@<TRIPOS>ATOM
      1 CA        -47.9391  -29.2210    7.4970 C.3       0 UNK        -0.1975 
      2 C         -48.0499  -27.9301    6.7028 C.2       0 UNK         0.4852 
      3 O         -47.3934  -26.9454    7.0428 O.2       0 UNK        -0.5216 
      4 N         -48.8544  -27.9354    5.6305 N.am      1 UNK        -0.4461 
      5 CA        -49.2064  -26.7983    4.7555 C.3       1 UNK         0.0864 
      6 C6        -50.0390  -25.6697    5.4442 C.3       14 UNK        -0.0898 
      7 S7        -51.1645  -26.1672    6.7913 S.3       14 UNK        -0.2598 
      8 C8        -52.3162  -27.3119    5.9729 C.3       14 UNK         0.0286 
      9 C9        -52.9626  -28.1943    7.0258 C.ar      14 UNK        -0.0844 
     10 C10       -52.2275  -29.2440    7.5853 C.ar      14 UNK        -0.0881 
     11 C11       -52.7501  -29.9850    8.6466 C.ar      14 UNK        -0.0643 
     12 C12       -54.0400  -29.7138    9.1041 C.ar      14 UNK        -0.0930 
     13 C13       -54.7876  -28.6727    8.5494 C.ar      14 UNK        -0.0827 
     14 C14       -54.2474  -27.9156    7.5048 C.ar      14 UNK        -0.1249 
     15 C15       -56.1476  -28.3398    9.1380 C.3       14 UNK         0.0141 
     16 S16       -55.9459  -27.4658   10.7239 S.3       14 UNK        -0.2313 
     17 C17       -57.3864  -28.0710   11.6698 C.3       14 UNK        -0.0915 
     18 CA        -57.0589  -29.2178   12.6688 C.3       13 UNK         0.0968 
     19 C         -56.8675  -30.5940   11.9672 C.2       13 UNK         0.5732 
     20 N         -57.9307  -31.1497   11.4016 N.am      13 UNK        -0.7310 
     21 O         -55.7741  -31.1534   11.9092 O.2       13 UNK        -0.5035 
     22 N         -55.9600  -28.8459   13.5709 N.am      13 UNK        -0.4233 
     23 C         -55.6159  -29.4980   14.6888 C.2       13 UNK         0.4989 
     24 O         -56.2202  -30.4778   15.1283 O.2       13 UNK        -0.4996 
     25 CA        -54.4034  -28.9562   15.4701 C.3       12 UNK         0.0216 
     26 CB        -53.1249  -29.7130   15.0734 C.3       12 UNK        -0.1964 
     27 N         -54.1779  -27.5141   15.3182 N.am      12 UNK        -0.4276 
     28 C         -55.0316  -26.5585   15.7113 C.2       12 UNK         0.5020 
     29 O         -56.1386  -26.7875   16.2042 O.2       12 UNK        -0.5489 
     30 CA        -54.5449  -25.1071   15.5425 C.3       11 UNK         0.0294 
     31 CB        -55.6781  -24.0709   15.6957 C.3       11 UNK        -0.2019 
     32 N         -53.4271  -24.7873   16.4404 N.am      11 UNK        -0.4493 
     33 C         -53.4036  -24.8966   17.7795 C.2       11 UNK         0.4932 
     34 O         -54.3688  -25.2446   18.4622 O.2       11 UNK        -0.5029 
     35 CA        -52.0748  -24.5418   18.4779 C.3       10 UNK         0.0280 
     36 CB        -52.0412  -24.9743   19.9595 C.3       10 UNK        -0.1976 
     37 N         -50.8860  -25.0431   17.7805 N.am      10 UNK        -0.4242 
     38 C         -50.5926  -26.3047   17.4327 C.2       10 UNK         0.5072 
     39 O         -51.3365  -27.2633   17.6476 O.2       10 UNK        -0.5224 
     40 CA        -49.2283  -26.5309   16.7380 C.3       9 UNK         0.0343 
     41 CB        -49.0950  -27.9540   16.1633 C.3       9 UNK        -0.2003 
     42 N         -48.9496  -25.5648   15.6690 N.am      9 UNK        -0.4272 
     43 C         -48.6430  -24.2693   15.8281 C.2       9 UNK         0.4988 
     44 O         -48.4813  -23.7396   16.9282 O.2       9 UNK        -0.5108 
     45 CA        -48.5798  -23.3982   14.5621 C.3       8 UNK         0.0248 
     46 CB        -47.1683  -23.4244   13.9557 C.3       8 UNK        -0.2001 
     47 N         -49.5636  -23.7756   13.5423 N.am      8 UNK        -0.4140 
     48 C         -50.8956  -23.7929   13.7131 C.2       8 UNK         0.5028 
     49 O         -51.4661  -23.4757   14.7581 O.2       8 UNK        -0.5428 
     50 CA        -51.7288  -24.3078   12.5301 C.3       7 UNK         0.0264 
     51 CB        -51.8267  -23.2594   11.4108 C.3       7 UNK        -0.1988 
     52 N         -51.1789  -25.5584   12.0083 N.am      7 UNK        -0.4454 
     53 C         -51.2773  -26.7417   12.6343 C.2       7 UNK         0.5027 
     54 O         -51.9338  -26.9135   13.6630 O.2       7 UNK        -0.5083 
     55 CA        -50.4974  -27.9265   12.0238 C.3       6 UNK         0.0844 
     56 C56       -51.4111  -28.7550   11.0918 C.3       14 UNK        -0.0967 
     57 S57       -50.5509  -30.1815   10.3311 S.3       14 UNK        -0.2604 
     58 C58       -51.8830  -30.9955    9.3809 C.3       14 UNK         0.0134 
     59 N         -49.2701  -27.4847   11.3503 N.am      6 UNK        -0.4116 
     60 C         -48.1889  -27.0130   11.9837 C.2       5 UNK         0.5034 
     61 O         -48.1120  -26.8853   13.2043 O.2       5 UNK        -0.5045 
     62 CA        -47.0095  -26.5694   11.1048 C.3       5 UNK         0.0224 
     63 CB        -46.1373  -27.7716   10.7111 C.3       5 UNK        -0.1978 
     64 N         -47.4122  -25.8356    9.9011 N.am      5 UNK        -0.4737 
     65 C         -48.0495  -24.6550    9.9020 C.2       4 UNK         0.5027 
     66 O         -48.4801  -24.1184   10.9231 O.2       4 UNK        -0.5211 
     67 CA        -48.2376  -23.9758    8.5326 C.3       4 UNK         0.0297 
     68 CB        -48.5638  -22.4707    8.6321 C.3       4 UNK        -0.1993 
     69 N         -47.1062  -24.2368    7.6311 N.am      4 UNK        -0.4486 
     70 C         -45.8408  -23.8093    7.7627 C.2       3 UNK         0.4961 
     71 O         -45.4817  -22.9782    8.5972 O.2       3 UNK        -0.5105 
     72 CA        -44.7741  -24.4250    6.8378 C.3       3 UNK         0.0299 
     73 CB        -43.7538  -25.2339    7.6597 C.3       3 UNK        -0.1972 
     74 N         -45.3252  -25.2975    5.7926 N.am      3 UNK        -0.4305 
     75 C         -44.9792  -25.2471    4.4959 C.2       2 UNK         0.5006 
     76 O         -44.2061  -24.4112    4.0258 O.2       2 UNK        -0.5106 
     77 CA        -45.5661  -26.3172    3.5521 C.3       2 UNK         0.0296 
     78 CB        -44.5693  -27.4741    3.3723 C.3       2 UNK        -0.2002 
     79 N         -46.8453  -26.8556    4.0155 N.am      2 UNK        -0.4032 
     80 C         -48.0060  -26.1864    3.9901 C.2       1 UNK         0.5000 
     81 O         -48.1430  -25.1049    3.4143 O.2       1 UNK        -0.5238 
     82 H82       -46.8919  -29.4831    7.6447 H         1 UNK         0.0889 
     83 H83       -48.4296  -30.0541    6.9943 H         1 UNK         0.0889 
     84 H84       -48.4025  -29.0956    8.4739 H         1 UNK         0.0889 
     85 H85       -49.3198  -28.7998    5.3913 H         1 UNK         0.3028 
     86 H86       -49.8380  -27.2309    3.9784 H         1 UNK         0.0864 
     87 H87       -50.6281  -25.1379    4.6948 H         1 UNK         0.0720 
     88 H88       -49.3747  -24.9179    5.8708 H         1 UNK         0.0720 
     89 H89       -51.7923  -27.9363    5.2493 H         1 UNK         0.0814 
     90 H90       -53.0649  -26.7454    5.4172 H         1 UNK         0.0814 
     91 H91       -51.2172  -29.4324    7.2501 H         1 UNK         0.1469 
     92 H92       -54.4400  -30.2716    9.9382 H         1 UNK         0.1381 
     93 H93       -54.8080  -27.0868    7.0941 H         1 UNK         0.1206 
     94 H94       -56.7104  -29.2635    9.2776 H         1 UNK         0.0813 
     95 H95       -56.7312  -27.7211    8.4547 H         1 UNK         0.0813 
     96 H96       -58.1880  -28.3547   10.9857 H         1 UNK         0.0638 
     97 H97       -57.7782  -27.2197   12.2286 H         1 UNK         0.0638 
     98 H98       -57.9358  -29.3392   13.3077 H         1 UNK         0.0568 
     99 H99       -58.8363  -30.7089   11.4407 H         1 UNK         0.3450 
    100 H100      -57.8271  -32.0388   10.9385 H         1 UNK         0.3450 
    101 H101      -55.3911  -28.0696   13.2697 H         1 UNK         0.2987 
    102 H102      -54.5920  -29.1421   16.5294 H         1 UNK         0.0766 
    103 H103      -52.2711  -29.3872   15.6686 H         1 UNK         0.0798 
    104 H104      -52.8777  -29.5631   14.0222 H         1 UNK         0.0798 
    105 H105      -53.2409  -30.7860   15.2314 H         1 UNK         0.0798 
    106 H106      -53.2933  -27.2381   14.8933 H         1 UNK         0.3198 
    107 H107      -54.1661  -25.0246   14.5251 H         1 UNK         0.0843 
    108 H108      -56.1125  -24.0862   16.6958 H         1 UNK         0.0831 
    109 H109      -56.4846  -24.2704   14.9891 H         1 UNK         0.0831 
    110 H110      -55.3188  -23.0604   15.5018 H         1 UNK         0.0831 
    111 H111      -52.5852  -24.4513   15.9757 H         1 UNK         0.3133 
    112 H112      -52.0028  -23.4536   18.4512 H         1 UNK         0.0566 
    113 H113      -51.1070  -24.6805   20.4381 H         1 UNK         0.0814 
    114 H114      -52.8512  -24.5099   20.5233 H         1 UNK         0.0814 
    115 H115      -52.1474  -26.0545   20.0655 H         1 UNK         0.0814 
    116 H116      -50.1840  -24.3445   17.5507 H         1 UNK         0.3091 
    117 H117      -48.4626  -26.4118   17.5070 H         1 UNK         0.0702 
    118 H118      -48.1109  -28.1137   15.7225 H         1 UNK         0.0785 
    119 H119      -49.8426  -28.1443   15.3922 H         1 UNK         0.0785 
    120 H120      -49.2252  -28.7082   16.9404 H         1 UNK         0.0785 
    121 H121      -48.9936  -25.9270   14.7218 H         1 UNK         0.2998 
    122 H122      -48.8036  -22.3718   14.8595 H         1 UNK         0.0697 
    123 H123      -46.8868  -24.4272   13.6348 H         1 UNK         0.0825 
    124 H124      -46.4250  -23.0934   14.6822 H         1 UNK         0.0825 
    125 H125      -47.0944  -22.7640   13.0913 H         1 UNK         0.0825 
    126 H126      -49.1903  -24.0157   12.6253 H         1 UNK         0.3029 
    127 H127      -52.7412  -24.5015   12.8841 H         1 UNK         0.0897 
    128 H128      -52.4301  -23.6223   10.5784 H         1 UNK         0.0792 
    129 H129      -50.8481  -22.9833   11.0205 H         1 UNK         0.0792 
    130 H130      -52.2969  -22.3462   11.7776 H         1 UNK         0.0792 
    131 H131      -50.5915  -25.4897   11.1900 H         1 UNK         0.3086 
    132 H132      -50.2010  -28.5719   12.8537 H         1 UNK         0.0583 
    133 H133      -52.2795  -29.1287   11.6380 H         1 UNK         0.1020 
    134 H134      -51.8013  -28.1145   10.2981 H         1 UNK         0.1020 
    135 H135      -51.4414  -31.6904    8.6653 H         1 UNK         0.0694 
    136 H136      -52.4857  -31.5963   10.0641 H         1 UNK         0.0694 
    137 H137      -49.2493  -27.5658   10.3451 H         1 UNK         0.2989 
    138 H138      -46.3978  -25.8929   11.7054 H         1 UNK         0.1055 
    139 H139      -45.7860  -28.3030   11.5968 H         1 UNK         0.0806 
    140 H140      -45.2549  -27.4570   10.1536 H         1 UNK         0.0806 
    141 H141      -46.6835  -28.4885   10.0989 H         1 UNK         0.0806 
    142 H142      -47.1388  -26.2252    9.0056 H         1 UNK         0.3061 
    143 H143      -49.1039  -24.4631    8.0891 H         1 UNK         0.0734 
    144 H144      -48.6491  -22.0167    7.6451 H         1 UNK         0.0832 
    145 H145      -49.5133  -22.3120    9.1430 H         1 UNK         0.0832 
    146 H146      -47.8040  -21.9242    9.1911 H         1 UNK         0.0832 
    147 H147      -47.2696  -24.9917    6.9753 H         1 UNK         0.3156 
    148 H148      -44.2520  -23.5801    6.3844 H         1 UNK         0.0589 
    149 H149      -44.2205  -26.0911    8.1465 H         1 UNK         0.0808 
    150 H150      -42.9444  -25.6051    7.0309 H         1 UNK         0.0808 
    151 H151      -43.2999  -24.6215    8.4400 H         1 UNK         0.0808 
    152 H152      -45.9603  -26.0266    6.1037 H         1 UNK         0.3098 
    153 H153      -45.7221  -25.8480    2.5781 H         1 UNK         0.0720 
    154 H154      -44.9373  -28.2075    2.6545 H         1 UNK         0.0791 
    155 H155      -44.3747  -27.9911    4.3130 H         1 UNK         0.0791 
    156 H156      -43.6119  -27.1090    2.9975 H         1 UNK         0.0791 
    157 H157      -46.8221  -27.7419    4.4985 H         1 UNK         0.3028 
@<TRIPOS>BOND
     1    1    2 1    
     2    1   82 1    
     3    1   83 1    
     4    1   84 1    
     5    2    3 2    
     6    2    4 am   BACKBONE|DICT|INTERRES
     7    4    5 1    
     8    4   85 1    
     9    5    6 1    
    10    5   80 1    
    11    5   86 1    
    12    6    7 1    
    13    6   87 1    
    14    6   88 1    
    15    7    8 1    
    16    8    9 1    
    17    8   89 1    
    18    8   90 1    
    19    9   10 ar   
    20    9   14 ar   
    21   10   11 ar   
    22   10   91 1    
    23   11   12 ar   
    24   11   58 1    
    25   12   13 ar   
    26   12   92 1    
    27   13   14 ar   
    28   13   15 1    
    29   14   93 1    
    30   15   16 1    
    31   15   94 1    
    32   15   95 1    
    33   16   17 1    
    34   17   18 1    
    35   17   96 1    
    36   17   97 1    
    37   18   19 1    
    38   18   22 1    
    39   18   98 1    
    40   19   20 am   BACKBONE|DICT|INTERRES
    41   19   21 2    
    42   20   99 1    
    43   20  100 1    
    44   22   23 am   BACKBONE|DICT|INTERRES
    45   22  101 1    
    46   23   24 2    
    47   23   25 1    
    48   25   26 1    
    49   25   27 1    
    50   25  102 1    
    51   26  103 1    
    52   26  104 1    
    53   26  105 1    
    54   27   28 am   BACKBONE|DICT|INTERRES
    55   27  106 1    
    56   28   29 2    
    57   28   30 1    
    58   30   31 1    
    59   30   32 1    
    60   30  107 1    
    61   31  108 1    
    62   31  109 1    
    63   31  110 1    
    64   32   33 am   BACKBONE|DICT|INTERRES
    65   32  111 1    
    66   33   34 2    
    67   33   35 1    
    68   35   36 1    
    69   35   37 1    
    70   35  112 1    
    71   36  113 1    
    72   36  114 1    
    73   36  115 1    
    74   37   38 am   BACKBONE|DICT|INTERRES
    75   37  116 1    
    76   38   39 2    
    77   38   40 1    
    78   40   41 1    
    79   40   42 1    
    80   40  117 1    
    81   41  118 1    
    82   41  119 1    
    83   41  120 1    
    84   42   43 am   BACKBONE|DICT|INTERRES
    85   42  121 1    
    86   43   44 2    
    87   43   45 1    
    88   45   46 1    
    89   45   47 1    
    90   45  122 1    
    91   46  123 1    
    92   46  124 1    
    93   46  125 1    
    94   47   48 am   BACKBONE|DICT|INTERRES
    95   47  126 1    
    96   48   49 2    
    97   48   50 1    
    98   50   51 1    
    99   50   52 1    
   100   50  127 1    
   101   51  128 1    
   102   51  129 1    
   103   51  130 1    
   104   52   53 am   BACKBONE|DICT|INTERRES
   105   52  131 1    
   106   53   54 2    
   107   53   55 1    
   108   55   56 1    
   109   55   59 1    
   110   55  132 1    
   111   56   57 1    
   112   56  133 1    
   113   56  134 1    
   114   57   58 1    
   115   58  135 1    
   116   58  136 1    
   117   59   60 am   BACKBONE|DICT|INTERRES
   118   59  137 1    
   119   60   61 2    
   120   60   62 1    
   121   62   63 1    
   122   62   64 1    
   123   62  138 1    
   124   63  139 1    
   125   63  140 1    
   126   63  141 1    
   127   64   65 am   BACKBONE|DICT|INTERRES
   128   64  142 1    
   129   65   66 2    
   130   65   67 1    
   131   67   68 1    
   132   67   69 1    
   133   67  143 1    
   134   68  144 1    
   135   68  145 1    
   136   68  146 1    
   137   69   70 am   BACKBONE|DICT|INTERRES
   138   69  147 1    
   139   70   71 2    
   140   70   72 1    
   141   72   73 1    
   142   72   74 1    
   143   72  148 1    
   144   73  149 1    
   145   73  150 1    
   146   73  151 1    
   147   74   75 am   BACKBONE|DICT|INTERRES
   148   74  152 1    
   149   75   76 2    
   150   75   77 1    
   151   77   78 1    
   152   77   79 1    
   153   77  153 1    
   154   78  154 1    
   155   78  155 1    
   156   78  156 1    
   157   79   80 am   BACKBONE|DICT|INTERRES
   158   79  157 1    
   159   80   81 2    
@<TRIPOS>SUBSTRUCTURE
     1 UNK         1 GROUP             0       ****    0 ROOT    
