@<TRIPOS>MOLECULE
3R207
157   159    1
SMALL
USER_CHARGES


@<TRIPOS>ATOM
      1 CA        -47.2408  -27.7655    7.2009 C.3       0 UNK        -0.1975 
      2 C         -48.3370  -27.2383    6.2861 C.2       0 UNK         0.4852 
      3 O         -48.0690  -26.4185    5.4085 O.2       0 UNK        -0.5216 
      4 N         -49.5804  -27.6852    6.4991 N.am      1 UNK        -0.4461 
      5 CA        -50.7991  -27.2912    5.7791 C.3       1 UNK         0.0864 
      6 C6        -51.8822  -28.4030    5.8874 C.3       14 UNK        -0.0898 
      7 S7        -52.3726  -28.7878    7.6086 S.3       14 UNK        -0.2598 
      8 C8        -51.5669  -30.3972    7.8969 C.3       14 UNK         0.0286 
      9 C9        -51.3560  -30.6949    9.3795 C.ar      14 UNK        -0.0844 
     10 C10       -50.1398  -31.2308    9.8155 C.ar      14 UNK        -0.0881 
     11 C11       -49.9388  -31.5435   11.1637 C.ar      14 UNK        -0.0643 
     12 C12       -50.9640  -31.3116   12.0852 C.ar      14 UNK        -0.0930 
     13 C13       -52.1849  -30.7759   11.6658 C.ar      14 UNK        -0.0827 
     14 C14       -52.3732  -30.4711   10.3141 C.ar      14 UNK        -0.1249 
     15 C15       -53.2892  -30.4970   12.6744 C.3       14 UNK         0.0141 
     16 S16       -54.8459  -31.3423   12.2548 S.3       14 UNK        -0.2313 
     17 C17       -56.0397  -30.3679   13.2325 C.3       14 UNK        -0.0915 
     18 CA        -56.7239  -29.2609   12.3836 C.3       13 UNK         0.0968 
     19 C         -57.9362  -28.6195   13.1201 C.2       13 UNK         0.5732 
     20 N         -58.0724  -27.2989   13.1784 N.am      13 UNK        -0.7310 
     21 O         -58.7944  -29.3365   13.6299 O.2       13 UNK        -0.5035 
     22 N         -55.7458  -28.2636   11.9291 N.am      13 UNK        -0.4233 
     23 C         -55.5711  -27.8568   10.6660 C.2       13 UNK         0.4989 
     24 O         -56.1915  -28.3227    9.7086 O.2       13 UNK        -0.4996 
     25 CA        -54.5216  -26.7480   10.4246 C.3       12 UNK         0.0216 
     26 CB        -54.8574  -25.8714    9.2012 C.3       12 UNK        -0.1964 
     27 N         -54.2426  -25.9013   11.5928 N.am      12 UNK        -0.4276 
     28 C         -55.1098  -25.2005   12.3347 C.2       12 UNK         0.5020 
     29 O         -56.3244  -25.1678   12.1229 O.2       12 UNK        -0.5489 
     30 CA        -54.5140  -24.4713   13.5580 C.3       11 UNK         0.0294 
     31 CB        -55.6023  -23.8463   14.4552 C.3       11 UNK        -0.2019 
     32 N         -53.6177  -25.3031   14.3795 N.am      11 UNK        -0.4493 
     33 C         -53.8589  -26.5284   14.8743 C.2       11 UNK         0.4932 
     34 O         -54.8570  -27.1933   14.5931 O.2       11 UNK        -0.5029 
     35 CA        -52.8268  -27.1141   15.8572 C.3       10 UNK         0.0280 
     36 CB        -52.6723  -28.6365   15.7039 C.3       10 UNK        -0.1976 
     37 N         -51.5044  -26.4953   15.7345 N.am      10 UNK        -0.4242 
     38 C         -50.9774  -25.6258   16.6064 C.2       10 UNK         0.5072 
     39 O         -51.5700  -25.2003   17.5989 O.2       10 UNK        -0.5224 
     40 CA        -49.5444  -25.1388   16.3244 C.3       9 UNK         0.0343 
     41 CB        -48.5170  -26.1747   16.8067 C.3       9 UNK        -0.2003 
     42 N         -49.2937  -24.8169   14.9169 N.am      9 UNK        -0.4272 
     43 C         -49.9264  -23.8518   14.2333 C.2       9 UNK         0.4988 
     44 O         -50.8212  -23.1465   14.7004 O.2       9 UNK        -0.5108 
     45 CA        -49.4968  -23.6512   12.7722 C.3       8 UNK         0.0248 
     46 CB        -48.1732  -22.8742   12.7013 C.3       8 UNK        -0.2001 
     47 N         -49.3940  -24.9229   12.0505 N.am      8 UNK        -0.4140 
     48 C         -50.4555  -25.6911   11.7666 C.2       8 UNK         0.5028 
     49 O         -51.6160  -25.3517   11.9826 O.2       8 UNK        -0.5428 
     50 CA        -50.1931  -27.0886   11.1922 C.3       7 UNK         0.0264 
     51 CB        -50.0189  -27.0308    9.6726 C.3       7 UNK        -0.1988 
     52 N         -49.0378  -27.7385   11.8084 N.am      7 UNK        -0.4454 
     53 C         -49.0064  -28.1372   13.0883 C.2       7 UNK         0.5027 
     54 O         -49.9512  -28.0033   13.8656 O.2       7 UNK        -0.5083 
     55 CA        -47.6897  -28.7388   13.6163 C.3       6 UNK         0.0844 
     56 C56       -47.6764  -30.2853   13.5177 C.3       14 UNK        -0.0967 
     57 S57       -47.3175  -30.9228   11.8393 S.3       14 UNK        -0.2604 
     58 C58       -48.6249  -32.1669   11.6100 C.3       14 UNK         0.0134 
     59 N         -46.4977  -28.1432   13.0126 N.am      6 UNK        -0.4116 
     60 C         -46.1382  -26.8546   13.0572 C.2       5 UNK         0.5034 
     61 O         -46.7733  -25.9872   13.6623 O.2       5 UNK        -0.5045 
     62 CA        -44.8488  -26.4766   12.2954 C.3       5 UNK         0.0224 
     63 CB        -44.2736  -27.6234   11.4299 C.3       5 UNK        -0.1978 
     64 N         -44.9644  -25.2723   11.4634 N.am      5 UNK        -0.4737 
     65 C         -45.9212  -24.9727   10.5747 C.2       4 UNK         0.5027 
     66 O         -46.9706  -25.6026   10.4253 O.2       4 UNK        -0.5211 
     67 CA        -45.6186  -23.7853    9.6580 C.3       4 UNK         0.0297 
     68 CB        -44.9104  -24.2594    8.3756 C.3       4 UNK        -0.1993 
     69 N         -46.8565  -23.0923    9.3150 N.am      4 UNK        -0.4486 
     70 C         -46.9279  -21.7983    8.9801 C.2       3 UNK         0.4961 
     71 O         -45.9360  -21.0716    8.8927 O.2       3 UNK        -0.5105 
     72 CA        -48.3275  -21.1914    8.7375 C.3       3 UNK         0.0299 
     73 CB        -48.2777  -19.9754    7.7868 C.3       3 UNK        -0.1972 
     74 N         -49.3670  -22.1300    8.2916 N.am      3 UNK        -0.4305 
     75 C         -49.3518  -22.8995    7.1940 C.2       2 UNK         0.5006 
     76 O         -48.3780  -23.0494    6.4539 O.2       2 UNK        -0.5106 
     77 CA        -50.6788  -23.5712    6.8324 C.3       2 UNK         0.0296 
     78 CB        -51.4458  -22.7202    5.8006 C.3       2 UNK        -0.2002 
     79 N         -50.4122  -24.9075    6.3101 N.am      2 UNK        -0.4032 
     80 C         -51.3158  -25.8875    6.1957 C.2       1 UNK         0.5000 
     81 O         -52.5147  -25.7135    6.4241 O.2       1 UNK        -0.5238 
     82 H82       -47.5764  -28.6203    7.7879 H         1 UNK         0.0889 
     83 H83       -46.9216  -26.9852    7.8913 H         1 UNK         0.0889 
     84 H84       -46.3772  -28.0774    6.6142 H         1 UNK         0.0889 
     85 H85       -49.7442  -28.3310    7.2567 H         1 UNK         0.3028 
     86 H86       -50.5413  -27.2031    4.7215 H         1 UNK         0.0864 
     87 H87       -51.5236  -29.3129    5.4039 H         1 UNK         0.0720 
     88 H88       -52.7778  -28.1197    5.3314 H         1 UNK         0.0720 
     89 H89       -50.6113  -30.4189    7.3715 H         1 UNK         0.0814 
     90 H90       -52.1801  -31.1854    7.4585 H         1 UNK         0.0814 
     91 H91       -49.3465  -31.4193    9.1050 H         1 UNK         0.1469 
     92 H92       -50.8121  -31.5517   13.1282 H         1 UNK         0.1381 
     93 H93       -53.3206  -30.0627    9.9899 H         1 UNK         0.1206 
     94 H94       -53.4449  -29.4195   12.7197 H         1 UNK         0.0813 
     95 H95       -52.9918  -30.8159   13.6738 H         1 UNK         0.0813 
     96 H96       -56.7803  -31.0713   13.6169 H         1 UNK         0.0638 
     97 H97       -55.5458  -29.9395   14.1065 H         1 UNK         0.0638 
     98 H98       -57.1650  -29.7525   11.5151 H         1 UNK         0.0568 
     99 H99       -58.8709  -26.9118   13.6540 H         1 UNK         0.3450 
    100 H100      -57.3900  -26.6761   12.7559 H         1 UNK         0.3450 
    101 H101      -55.2547  -27.7836   12.6759 H         1 UNK         0.2987 
    102 H102      -53.5881  -27.2691   10.2062 H         1 UNK         0.0766 
    103 H103      -55.8068  -25.3502    9.3273 H         1 UNK         0.0798 
    104 H104      -54.0823  -25.1255    9.0245 H         1 UNK         0.0798 
    105 H105      -54.9287  -26.4733    8.2941 H         1 UNK         0.0798 
    106 H106      -53.2532  -25.8046   11.8381 H         1 UNK         0.3198 
    107 H107      -53.9018  -23.6603   13.1599 H         1 UNK         0.0843 
    108 H108      -56.2263  -23.1524   13.8903 H         1 UNK         0.0831 
    109 H109      -55.1634  -23.2866   15.2811 H         1 UNK         0.0831 
    110 H110      -56.2599  -24.6076   14.8769 H         1 UNK         0.0831 
    111 H111      -52.7366  -24.8713   14.6261 H         1 UNK         0.3133 
    112 H112      -53.2324  -26.9333   16.8543 H         1 UNK         0.0566 
    113 H113      -52.0176  -29.0444   16.4740 H         1 UNK         0.0814 
    114 H114      -53.6300  -29.1512   15.7906 H         1 UNK         0.0814 
    115 H115      -52.2416  -28.8909   14.7378 H         1 UNK         0.0814 
    116 H116      -50.9277  -26.8293   14.9640 H         1 UNK         0.3091 
    117 H117      -49.3906  -24.2214   16.8965 H         1 UNK         0.0702 
    118 H118      -47.4955  -25.8337   16.6364 H         1 UNK         0.0785 
    119 H119      -48.6420  -27.1307   16.2991 H         1 UNK         0.0785 
    120 H120      -48.6244  -26.3593   17.8764 H         1 UNK         0.0785 
    121 H121      -48.5453  -25.3241   14.4545 H         1 UNK         0.2998 
    122 H122      -50.2650  -23.0469   12.2845 H         1 UNK         0.0697 
    123 H123      -47.3299  -23.4627   13.0626 H         1 UNK         0.0825 
    124 H124      -48.2195  -21.9676   13.3065 H         1 UNK         0.0825 
    125 H125      -47.9567  -22.5612   11.6840 H         1 UNK         0.0825 
    126 H126      -48.4668  -25.2681   11.8226 H         1 UNK         0.3029 
    127 H127      -51.0702  -27.7050   11.4045 H         1 UNK         0.0897 
    128 H128      -49.1727  -26.4130    9.3748 H         1 UNK         0.0792 
    129 H129      -50.9090  -26.6141    9.1994 H         1 UNK         0.0792 
    130 H130      -49.8700  -28.0313    9.2697 H         1 UNK         0.0792 
    131 H131      -48.2066  -27.8387   11.2433 H         1 UNK         0.3086 
    132 H132      -47.6479  -28.4887   14.6775 H         1 UNK         0.0583 
    133 H133      -46.9052  -30.6774   14.1826 H         1 UNK         0.1020 
    134 H134      -48.6125  -30.7022   13.8936 H         1 UNK         0.1020 
    135 H135      -48.2931  -32.8821   10.8558 H         1 UNK         0.0694 
    136 H136      -48.7568  -32.7412   12.5284 H         1 UNK         0.0694 
    137 H137      -45.9259  -28.7795   12.4760 H         1 UNK         0.2989 
    138 H138      -44.1139  -26.2452   13.0682 H         1 UNK         0.1055 
    139 H139      -44.0229  -28.4988   12.0306 H         1 UNK         0.0806 
    140 H140      -43.3519  -27.3144   10.9364 H         1 UNK         0.0806 
    141 H141      -44.9707  -27.9343   10.6499 H         1 UNK         0.0806 
    142 H142      -44.1755  -24.6432   11.5233 H         1 UNK         0.3061 
    143 H143      -44.9623  -23.0989   10.1981 H         1 UNK         0.0734 
    144 H144      -44.6150  -23.4165    7.7507 H         1 UNK         0.0832 
    145 H145      -44.0054  -24.8220    8.6088 H         1 UNK         0.0832 
    146 H146      -45.5543  -24.9056    7.7780 H         1 UNK         0.0832 
    147 H147      -47.6978  -23.6482    9.3934 H         1 UNK         0.3156 
    148 H148      -48.6574  -20.8269    9.7114 H         1 UNK         0.0589 
    149 H149      -47.9019  -20.2518    6.8010 H         1 UNK         0.0808 
    150 H150      -49.2646  -19.5313    7.6566 H         1 UNK         0.0808 
    151 H151      -47.6249  -19.1935    8.1769 H         1 UNK         0.0808 
    152 H152      -50.2217  -22.1024    8.8311 H         1 UNK         0.3098 
    153 H153      -51.2819  -23.6701    7.7379 H         1 UNK         0.0720 
    154 H154      -52.4274  -23.1400    5.5810 H         1 UNK         0.0791 
    155 H155      -50.8980  -22.6414    4.8607 H         1 UNK         0.0791 
    156 H156      -51.6069  -21.7068    6.1707 H         1 UNK         0.0791 
    157 H157      -49.4417  -25.1034    6.0746 H         1 UNK         0.3028 
@<TRIPOS>BOND
     1    1    2 1    
     2    1   82 1    
     3    1   83 1    
     4    1   84 1    
     5    2    3 2    
     6    2    4 am   BACKBONE|DICT|INTERRES
     7    4    5 1    
     8    4   85 1    
     9    5    6 1    
    10    5   80 1    
    11    5   86 1    
    12    6    7 1    
    13    6   87 1    
    14    6   88 1    
    15    7    8 1    
    16    8    9 1    
    17    8   89 1    
    18    8   90 1    
    19    9   10 ar   
    20    9   14 ar   
    21   10   11 ar   
    22   10   91 1    
    23   11   12 ar   
    24   11   58 1    
    25   12   13 ar   
    26   12   92 1    
    27   13   14 ar   
    28   13   15 1    
    29   14   93 1    
    30   15   16 1    
    31   15   94 1    
    32   15   95 1    
    33   16   17 1    
    34   17   18 1    
    35   17   96 1    
    36   17   97 1    
    37   18   19 1    
    38   18   22 1    
    39   18   98 1    
    40   19   20 am   BACKBONE|DICT|INTERRES
    41   19   21 2    
    42   20   99 1    
    43   20  100 1    
    44   22   23 am   BACKBONE|DICT|INTERRES
    45   22  101 1    
    46   23   24 2    
    47   23   25 1    
    48   25   26 1    
    49   25   27 1    
    50   25  102 1    
    51   26  103 1    
    52   26  104 1    
    53   26  105 1    
    54   27   28 am   BACKBONE|DICT|INTERRES
    55   27  106 1    
    56   28   29 2    
    57   28   30 1    
    58   30   31 1    
    59   30   32 1    
    60   30  107 1    
    61   31  108 1    
    62   31  109 1    
    63   31  110 1    
    64   32   33 am   BACKBONE|DICT|INTERRES
    65   32  111 1    
    66   33   34 2    
    67   33   35 1    
    68   35   36 1    
    69   35   37 1    
    70   35  112 1    
    71   36  113 1    
    72   36  114 1    
    73   36  115 1    
    74   37   38 am   BACKBONE|DICT|INTERRES
    75   37  116 1    
    76   38   39 2    
    77   38   40 1    
    78   40   41 1    
    79   40   42 1    
    80   40  117 1    
    81   41  118 1    
    82   41  119 1    
    83   41  120 1    
    84   42   43 am   BACKBONE|DICT|INTERRES
    85   42  121 1    
    86   43   44 2    
    87   43   45 1    
    88   45   46 1    
    89   45   47 1    
    90   45  122 1    
    91   46  123 1    
    92   46  124 1    
    93   46  125 1    
    94   47   48 am   BACKBONE|DICT|INTERRES
    95   47  126 1    
    96   48   49 2    
    97   48   50 1    
    98   50   51 1    
    99   50   52 1    
   100   50  127 1    
   101   51  128 1    
   102   51  129 1    
   103   51  130 1    
   104   52   53 am   BACKBONE|DICT|INTERRES
   105   52  131 1    
   106   53   54 2    
   107   53   55 1    
   108   55   56 1    
   109   55   59 1    
   110   55  132 1    
   111   56   57 1    
   112   56  133 1    
   113   56  134 1    
   114   57   58 1    
   115   58  135 1    
   116   58  136 1    
   117   59   60 am   BACKBONE|DICT|INTERRES
   118   59  137 1    
   119   60   61 2    
   120   60   62 1    
   121   62   63 1    
   122   62   64 1    
   123   62  138 1    
   124   63  139 1    
   125   63  140 1    
   126   63  141 1    
   127   64   65 am   BACKBONE|DICT|INTERRES
   128   64  142 1    
   129   65   66 2    
   130   65   67 1    
   131   67   68 1    
   132   67   69 1    
   133   67  143 1    
   134   68  144 1    
   135   68  145 1    
   136   68  146 1    
   137   69   70 am   BACKBONE|DICT|INTERRES
   138   69  147 1    
   139   70   71 2    
   140   70   72 1    
   141   72   73 1    
   142   72   74 1    
   143   72  148 1    
   144   73  149 1    
   145   73  150 1    
   146   73  151 1    
   147   74   75 am   BACKBONE|DICT|INTERRES
   148   74  152 1    
   149   75   76 2    
   150   75   77 1    
   151   77   78 1    
   152   77   79 1    
   153   77  153 1    
   154   78  154 1    
   155   78  155 1    
   156   78  156 1    
   157   79   80 am   BACKBONE|DICT|INTERRES
   158   79  157 1    
   159   80   81 2    
@<TRIPOS>SUBSTRUCTURE
     1 UNK         1 GROUP             0       ****    0 ROOT    
