@<TRIPOS>MOLECULE
3R207
157   159    1
SMALL
USER_CHARGES


@<TRIPOS>ATOM
      1 CA        -50.8123  -29.9851    1.5216 C.3       0 UNK        -0.1975 
      2 C         -51.0543  -29.2973    2.8569 C.2       0 UNK         0.4852 
      3 O         -52.0386  -28.5717    3.0018 O.2       0 UNK        -0.5216 
      4 N         -50.1632  -29.5188    3.8329 N.am      1 UNK        -0.4461 
      5 CA        -50.2432  -28.9552    5.1874 C.3       1 UNK         0.0864 
      6 C6        -49.2984  -29.6871    6.1727 C.3       14 UNK        -0.0898 
      7 S7        -49.6539  -31.4704    6.3463 S.3       14 UNK        -0.2598 
      8 C8        -51.2537  -31.4915    7.2285 C.3       14 UNK         0.0286 
      9 C9        -51.2807  -30.5561    8.4297 C.ar      14 UNK        -0.0844 
     10 C10       -50.4862  -30.8187    9.5493 C.ar      14 UNK        -0.0881 
     11 C11       -50.4713  -29.9330   10.6302 C.ar      14 UNK        -0.0643 
     12 C12       -51.2728  -28.7878   10.5922 C.ar      14 UNK        -0.0930 
     13 C13       -52.0848  -28.5207    9.4850 C.ar      14 UNK        -0.0827 
     14 C14       -52.0835  -29.4114    8.4084 C.ar      14 UNK        -0.1249 
     15 C15       -52.9369  -27.2565    9.4184 C.3       14 UNK         0.0141 
     16 S16       -53.9115  -26.9503   10.9285 S.3       14 UNK        -0.2313 
     17 C17       -55.0284  -28.3945   10.9777 C.3       14 UNK        -0.0915 
     18 CA        -56.5377  -28.0046   10.9512 C.3       13 UNK         0.0968 
     19 C         -57.4728  -29.2521   10.9120 C.2       13 UNK         0.5732 
     20 N         -58.6338  -29.2311   11.5562 N.am      13 UNK        -0.7310 
     21 O         -57.1631  -30.2446   10.2568 O.2       13 UNK        -0.5035 
     22 N         -56.9014  -26.9904   11.9613 N.am      13 UNK        -0.4233 
     23 C         -56.7638  -27.1138   13.2871 C.2       13 UNK         0.4989 
     24 O         -56.3650  -28.1314   13.8576 O.2       13 UNK        -0.4996 
     25 CA        -57.1400  -25.8890   14.1260 C.3       12 UNK         0.0216 
     26 CB        -58.5093  -26.0718   14.8019 C.3       12 UNK        -0.1964 
     27 N         -56.1053  -25.7184   15.1385 N.am      12 UNK        -0.4276 
     28 C         -55.5729  -24.5582   15.5319 C.2       12 UNK         0.5020 
     29 O         -56.0028  -23.4586   15.1795 O.2       12 UNK        -0.5489 
     30 CA        -54.3336  -24.6160   16.4446 C.3       11 UNK         0.0294 
     31 CB        -54.7244  -24.6131   17.9354 C.3       11 UNK        -0.2019 
     32 N         -53.3968  -25.7015   16.1183 N.am      11 UNK        -0.4493 
     33 C         -53.5368  -27.0233   16.2953 C.2       11 UNK         0.4932 
     34 O         -54.5307  -27.5467   16.7986 O.2       11 UNK        -0.5029 
     35 CA        -52.3959  -27.9213   15.7909 C.3       10 UNK         0.0280 
     36 CB        -52.6267  -28.2917   14.3171 C.3       10 UNK        -0.1976 
     37 N         -51.0700  -27.3177   15.9394 N.am      10 UNK        -0.4242 
     38 C         -50.4476  -27.1071   17.1078 C.2       10 UNK         0.5072 
     39 O         -50.9176  -27.4180   18.2033 O.2       10 UNK        -0.5224 
     40 CA        -49.0633  -26.4374   17.0460 C.3       9 UNK         0.0343 
     41 CB        -47.9759  -27.4560   16.6661 C.3       9 UNK        -0.2003 
     42 N         -49.0262  -25.3050   16.1182 N.am      9 UNK        -0.4272 
     43 C         -49.6446  -24.1342   16.3329 C.2       9 UNK         0.4988 
     44 O         -50.2594  -23.8620   17.3645 O.2       9 UNK        -0.5108 
     45 CA        -49.5810  -23.0897   15.2047 C.3       8 UNK         0.0248 
     46 CB        -48.2707  -22.2900   15.2824 C.3       8 UNK        -0.2001 
     47 N         -49.7266  -23.6705   13.8677 N.am      8 UNK        -0.4140 
     48 C         -50.8153  -24.3223   13.4347 C.2       8 UNK         0.5028 
     49 O         -51.8391  -24.4633   14.1025 O.2       8 UNK        -0.5428 
     50 CA        -50.7297  -24.9815   12.0481 C.3       7 UNK         0.0264 
     51 CB        -50.9626  -23.9553   10.9293 C.3       7 UNK        -0.1988 
     52 N         -49.4664  -25.6890   11.8235 N.am      7 UNK        -0.4454 
     53 C         -49.0190  -26.7014   12.5823 C.2       7 UNK         0.5027 
     54 O         -49.6342  -27.1558   13.5450 O.2       7 UNK        -0.5083 
     55 CA        -47.6313  -27.2691   12.2388 C.3       6 UNK         0.0844 
     56 C56       -47.6910  -28.2354   11.0253 C.3       14 UNK        -0.0967 
     57 S57       -47.8192  -29.9911   11.5097 S.3       14 UNK        -0.2604 
     58 C58       -49.5978  -30.2191   11.8427 C.3       14 UNK         0.0134 
     59 N         -46.6718  -26.1797   12.0496 N.am      6 UNK        -0.4116 
     60 C         -46.2386  -25.3716   13.0288 C.2       5 UNK         0.5034 
     61 O         -46.5473  -25.4974   14.2141 O.2       5 UNK        -0.5045 
     62 CA        -45.3446  -24.1950   12.6026 C.3       5 UNK         0.0224 
     63 CB        -43.8758  -24.6365   12.5047 C.3       5 UNK        -0.1978 
     64 N         -45.7657  -23.5976   11.3312 N.am      5 UNK        -0.4737 
     65 C         -46.9269  -22.9519   11.1528 C.2       4 UNK         0.5027 
     66 O         -47.7400  -22.7512   12.0528 O.2       4 UNK        -0.5211 
     67 CA        -47.2604  -22.4955    9.7231 C.3       4 UNK         0.0297 
     68 CB        -46.6738  -21.1008    9.4548 C.3       4 UNK        -0.1993 
     69 N         -46.8127  -23.4282    8.6828 N.am      4 UNK        -0.4486 
     70 C         -47.2047  -24.7045    8.5725 C.2       3 UNK         0.4961 
     71 O         -47.9733  -25.2627    9.3588 O.2       3 UNK        -0.5105 
     72 CA        -46.6511  -25.4800    7.3757 C.3       3 UNK         0.0299 
     73 CB        -46.2246  -26.9071    7.7629 C.3       3 UNK        -0.1972 
     74 N         -47.6978  -25.5508    6.3642 N.am      3 UNK        -0.4305 
     75 C         -47.5442  -25.3043    5.0589 C.2       2 UNK         0.5006 
     76 O         -46.4753  -24.9649    4.5474 O.2       2 UNK        -0.5106 
     77 CA        -48.7923  -25.5123    4.1768 C.3       2 UNK         0.0296 
     78 CB        -48.5531  -25.1309    2.7034 C.3       2 UNK        -0.2002 
     79 N         -49.2515  -26.9023    4.2374 N.am      2 UNK        -0.4032 
     80 C         -49.9649  -27.4379    5.2386 C.2       1 UNK         0.5000 
     81 O         -50.3656  -26.7829    6.2031 O.2       1 UNK        -0.5238 
     82 H82       -49.9358  -30.6322    1.5488 H         1 UNK         0.0889 
     83 H83       -50.6625  -29.2423    0.7386 H         1 UNK         0.0889 
     84 H84       -51.6743  -30.5950    1.2526 H         1 UNK         0.0889 
     85 H85       -49.3898  -30.1479    3.6677 H         1 UNK         0.3028 
     86 H86       -51.2688  -29.0852    5.5366 H         1 UNK         0.0864 
     87 H87       -49.3310  -29.2286    7.1632 H         1 UNK         0.0720 
     88 H88       -48.2622  -29.5883    5.8435 H         1 UNK         0.0720 
     89 H89       -51.4601  -32.5097    7.5611 H         1 UNK         0.0814 
     90 H90       -52.0473  -31.2383    6.5240 H         1 UNK         0.0814 
     91 H91       -49.8597  -31.7001    9.5689 H         1 UNK         0.1469 
     92 H92       -51.2694  -28.1030   11.4274 H         1 UNK         0.1381 
     93 H93       -52.6970  -29.2028    7.5429 H         1 UNK         0.1206 
     94 H94       -53.6185  -27.2910    8.5671 H         1 UNK         0.0813 
     95 H95       -52.2769  -26.4054    9.2481 H         1 UNK         0.0813 
     96 H96       -54.7948  -29.0471   10.1351 H         1 UNK         0.0638 
     97 H97       -54.7936  -28.9719   11.8727 H         1 UNK         0.0638 
     98 H98       -56.7135  -27.5148    9.9931 H         1 UNK         0.0568 
     99 H99       -58.9076  -28.4231   12.0907 H         1 UNK         0.3450 
    100 H100      -59.2356  -30.0381   11.5135 H         1 UNK         0.3450 
    101 H101      -57.2571  -26.1225   11.5879 H         1 UNK         0.2987 
    102 H102      -57.1724  -25.0108   13.4772 H         1 UNK         0.0766 
    103 H103      -58.7711  -25.2018   15.4045 H         1 UNK         0.0798 
    104 H104      -58.5234  -26.9463   15.4539 H         1 UNK         0.0798 
    105 H105      -59.2979  -26.2022   14.0600 H         1 UNK         0.0798 
    106 H106      -55.6874  -26.5797   15.4826 H         1 UNK         0.3198 
    107 H107      -53.7728  -23.6988   16.2560 H         1 UNK         0.0843 
    108 H108      -55.3332  -25.4770   18.2029 H         1 UNK         0.0831 
    109 H109      -55.3056  -23.7231   18.1798 H         1 UNK         0.0831 
    110 H110      -53.8421  -24.6111   18.5755 H         1 UNK         0.0831 
    111 H111      -52.5948  -25.3908   15.5716 H         1 UNK         0.3133 
    112 H112      -52.4140  -28.8413   16.3787 H         1 UNK         0.0566 
    113 H113      -51.8865  -29.0103   13.9672 H         1 UNK         0.0814 
    114 H114      -53.6094  -28.7434   14.1744 H         1 UNK         0.0814 
    115 H115      -52.5746  -27.4149   13.6707 H         1 UNK         0.0814 
    116 H116      -50.5744  -27.0895   15.0780 H         1 UNK         0.3091 
    117 H117      -48.8333  -26.0603   18.0449 H         1 UNK         0.0702 
    118 H118      -47.9664  -28.2944   17.3638 H         1 UNK         0.0785 
    119 H119      -48.1312  -27.8645   15.6673 H         1 UNK         0.0785 
    120 H120      -46.9846  -27.0028   16.6892 H         1 UNK         0.0785 
    121 H121      -48.5088  -25.4363   15.2570 H         1 UNK         0.2998 
    122 H122      -50.4115  -22.3961   15.3514 H         1 UNK         0.0697 
    123 H123      -47.4007  -22.9232   15.1050 H         1 UNK         0.0825 
    124 H124      -48.1485  -21.8329   16.2653 H         1 UNK         0.0825 
    125 H125      -48.2533  -21.4858   14.5465 H         1 UNK         0.0825 
    126 H126      -48.9489  -23.5367   13.2238 H         1 UNK         0.3029 
    127 H127      -51.5248  -25.7252   11.9969 H         1 UNK         0.0897 
    128 H128      -50.9068  -24.4192    9.9443 H         1 UNK         0.0792 
    129 H129      -50.2304  -23.1491   10.9615 H         1 UNK         0.0792 
    130 H130      -51.9505  -23.5021   11.0207 H         1 UNK         0.0792 
    131 H131      -48.9117  -25.4002   11.0207 H         1 UNK         0.3086 
    132 H132      -47.2868  -27.8296   13.1110 H         1 UNK         0.0583 
    133 H133      -48.4764  -27.9742   10.3126 H         1 UNK         0.1020 
    134 H134      -46.7637  -28.1645   10.4562 H         1 UNK         0.1020 
    135 H135      -49.7605  -31.2502   12.1595 H         1 UNK         0.0694 
    136 H136      -49.8900  -29.6006   12.6903 H         1 UNK         0.0694 
    137 H137      -46.4238  -25.9549   11.0977 H         1 UNK         0.2989 
    138 H138      -45.4221  -23.4287   13.3775 H         1 UNK         0.1055 
    139 H139      -43.5362  -25.0696   13.4468 H         1 UNK         0.0806 
    140 H140      -43.2219  -23.7924   12.2850 H         1 UNK         0.0806 
    141 H141      -43.7271  -25.3882   11.7284 H         1 UNK         0.0806 
    142 H142      -45.1497  -23.7084   10.5386 H         1 UNK         0.3061 
    143 H143      -48.3471  -22.4248    9.6487 H         1 UNK         0.0734 
    144 H144      -46.9874  -20.7171    8.4837 H         1 UNK         0.0832 
    145 H145      -47.0113  -20.3856   10.2066 H         1 UNK         0.0832 
    146 H146      -45.5834  -21.1073    9.4788 H         1 UNK         0.0832 
    147 H147      -46.1897  -23.0545    7.9806 H         1 UNK         0.3156 
    148 H148      -45.7752  -24.9517    6.9931 H         1 UNK         0.0589 
    149 H149      -47.0733  -27.5073    8.0932 H         1 UNK         0.0808 
    150 H150      -45.7669  -27.4219    6.9180 H         1 UNK         0.0808 
    151 H151      -45.4914  -26.8935    8.5700 H         1 UNK         0.0808 
    152 H152      -48.6217  -25.8159    6.6953 H         1 UNK         0.3098 
    153 H153      -49.5780  -24.8601    4.5645 H         1 UNK         0.0720 
    154 H154      -49.4629  -25.2420    2.1130 H         1 UNK         0.0791 
    155 H155      -47.7784  -25.7470    2.2450 H         1 UNK         0.0791 
    156 H156      -48.2375  -24.0904    2.6158 H         1 UNK         0.0791 
    157 H157      -48.9372  -27.5155    3.4996 H         1 UNK         0.3028 
@<TRIPOS>BOND
     1    1    2 1    
     2    1   82 1    
     3    1   83 1    
     4    1   84 1    
     5    2    3 2    
     6    2    4 am   BACKBONE|DICT|INTERRES
     7    4    5 1    
     8    4   85 1    
     9    5    6 1    
    10    5   80 1    
    11    5   86 1    
    12    6    7 1    
    13    6   87 1    
    14    6   88 1    
    15    7    8 1    
    16    8    9 1    
    17    8   89 1    
    18    8   90 1    
    19    9   10 ar   
    20    9   14 ar   
    21   10   11 ar   
    22   10   91 1    
    23   11   12 ar   
    24   11   58 1    
    25   12   13 ar   
    26   12   92 1    
    27   13   14 ar   
    28   13   15 1    
    29   14   93 1    
    30   15   16 1    
    31   15   94 1    
    32   15   95 1    
    33   16   17 1    
    34   17   18 1    
    35   17   96 1    
    36   17   97 1    
    37   18   19 1    
    38   18   22 1    
    39   18   98 1    
    40   19   20 am   BACKBONE|DICT|INTERRES
    41   19   21 2    
    42   20   99 1    
    43   20  100 1    
    44   22   23 am   BACKBONE|DICT|INTERRES
    45   22  101 1    
    46   23   24 2    
    47   23   25 1    
    48   25   26 1    
    49   25   27 1    
    50   25  102 1    
    51   26  103 1    
    52   26  104 1    
    53   26  105 1    
    54   27   28 am   BACKBONE|DICT|INTERRES
    55   27  106 1    
    56   28   29 2    
    57   28   30 1    
    58   30   31 1    
    59   30   32 1    
    60   30  107 1    
    61   31  108 1    
    62   31  109 1    
    63   31  110 1    
    64   32   33 am   BACKBONE|DICT|INTERRES
    65   32  111 1    
    66   33   34 2    
    67   33   35 1    
    68   35   36 1    
    69   35   37 1    
    70   35  112 1    
    71   36  113 1    
    72   36  114 1    
    73   36  115 1    
    74   37   38 am   BACKBONE|DICT|INTERRES
    75   37  116 1    
    76   38   39 2    
    77   38   40 1    
    78   40   41 1    
    79   40   42 1    
    80   40  117 1    
    81   41  118 1    
    82   41  119 1    
    83   41  120 1    
    84   42   43 am   BACKBONE|DICT|INTERRES
    85   42  121 1    
    86   43   44 2    
    87   43   45 1    
    88   45   46 1    
    89   45   47 1    
    90   45  122 1    
    91   46  123 1    
    92   46  124 1    
    93   46  125 1    
    94   47   48 am   BACKBONE|DICT|INTERRES
    95   47  126 1    
    96   48   49 2    
    97   48   50 1    
    98   50   51 1    
    99   50   52 1    
   100   50  127 1    
   101   51  128 1    
   102   51  129 1    
   103   51  130 1    
   104   52   53 am   BACKBONE|DICT|INTERRES
   105   52  131 1    
   106   53   54 2    
   107   53   55 1    
   108   55   56 1    
   109   55   59 1    
   110   55  132 1    
   111   56   57 1    
   112   56  133 1    
   113   56  134 1    
   114   57   58 1    
   115   58  135 1    
   116   58  136 1    
   117   59   60 am   BACKBONE|DICT|INTERRES
   118   59  137 1    
   119   60   61 2    
   120   60   62 1    
   121   62   63 1    
   122   62   64 1    
   123   62  138 1    
   124   63  139 1    
   125   63  140 1    
   126   63  141 1    
   127   64   65 am   BACKBONE|DICT|INTERRES
   128   64  142 1    
   129   65   66 2    
   130   65   67 1    
   131   67   68 1    
   132   67   69 1    
   133   67  143 1    
   134   68  144 1    
   135   68  145 1    
   136   68  146 1    
   137   69   70 am   BACKBONE|DICT|INTERRES
   138   69  147 1    
   139   70   71 2    
   140   70   72 1    
   141   72   73 1    
   142   72   74 1    
   143   72  148 1    
   144   73  149 1    
   145   73  150 1    
   146   73  151 1    
   147   74   75 am   BACKBONE|DICT|INTERRES
   148   74  152 1    
   149   75   76 2    
   150   75   77 1    
   151   77   78 1    
   152   77   79 1    
   153   77  153 1    
   154   78  154 1    
   155   78  155 1    
   156   78  156 1    
   157   79   80 am   BACKBONE|DICT|INTERRES
   158   79  157 1    
   159   80   81 2    
@<TRIPOS>SUBSTRUCTURE
     1 UNK         1 GROUP             0       ****    0 ROOT    
