@<TRIPOS>MOLECULE
3R207
157   159    1
SMALL
USER_CHARGES


@<TRIPOS>ATOM
      1 CA        -52.0865  -27.6558    2.1081 C.3       0 UNK        -0.1975 
      2 C         -51.0131  -28.2826    2.9867 C.2       0 UNK         0.4852 
      3 O         -50.0056  -28.7599    2.4618 O.2       0 UNK        -0.5216 
      4 N         -51.2356  -28.2822    4.3101 N.am      1 UNK        -0.4461 
      5 CA        -50.3477  -28.7982    5.3670 C.3       1 UNK         0.0864 
      6 C6        -49.9926  -30.3077    5.2136 C.3       14 UNK        -0.0898 
      7 S7        -51.4619  -31.3689    4.9692 S.3       14 UNK        -0.2598 
      8 C8        -51.6599  -32.1632    6.5951 C.3       14 UNK         0.0286 
      9 C9        -52.0579  -31.1711    7.6785 C.ar      14 UNK        -0.0844 
     10 C10       -51.1401  -30.7996    8.6636 C.ar      14 UNK        -0.0881 
     11 C11       -51.5049  -29.9059    9.6745 C.ar      14 UNK        -0.0643 
     12 C12       -52.8017  -29.3838    9.7019 C.ar      14 UNK        -0.0930 
     13 C13       -53.7296  -29.7497    8.7210 C.ar      14 UNK        -0.0827 
     14 C14       -53.3510  -30.6412    7.7117 C.ar      14 UNK        -0.1249 
     15 C15       -55.1389  -29.1786    8.7383 C.3       14 UNK         0.0141 
     16 S16       -56.3407  -30.3959    9.3582 S.3       14 UNK        -0.2313 
     17 C17       -57.9066  -29.4925    9.1029 C.3       14 UNK        -0.0915 
     18 CA        -58.7177  -29.1527   10.3889 C.3       13 UNK         0.0968 
     19 C         -59.3899  -30.3797   11.0828 C.2       13 UNK         0.5732 
     20 N         -59.7117  -30.3130   12.3687 N.am      13 UNK        -0.7310 
     21 O         -59.6743  -31.3884   10.4405 O.2       13 UNK        -0.5035 
     22 N         -58.0514  -28.1605   11.2569 N.am      13 UNK        -0.4233 
     23 C         -57.1305  -28.3762   12.2065 C.2       13 UNK         0.4989 
     24 O         -56.7043  -29.4846   12.5412 O.2       13 UNK        -0.4996 
     25 CA        -56.6158  -27.1253   12.9298 C.3       12 UNK         0.0216 
     26 CB        -57.7014  -26.5052   13.8313 C.3       12 UNK        -0.1964 
     27 N         -55.4592  -27.4962   13.7397 N.am      12 UNK        -0.4276 
     28 C         -54.4513  -26.6887   14.0777 C.2       12 UNK         0.5020 
     29 O         -54.3796  -25.5033   13.7412 O.2       12 UNK        -0.5489 
     30 CA        -53.3249  -27.3334   14.9037 C.3       11 UNK         0.0294 
     31 CB        -52.4083  -28.1813   14.0072 C.3       11 UNK        -0.2019 
     32 N         -52.5153  -26.3188   15.5766 N.am      11 UNK        -0.4493 
     33 C         -52.8598  -25.6941   16.7099 C.2       11 UNK         0.4932 
     34 O         -53.8724  -25.9668   17.3585 O.2       11 UNK        -0.5029 
     35 CA        -51.9067  -24.5823   17.1939 C.3       10 UNK         0.0280 
     36 CB        -52.1760  -24.1359   18.6468 C.3       10 UNK        -0.1976 
     37 N         -50.4926  -24.9220   16.9987 N.am      10 UNK        -0.4242 
     38 C         -49.8126  -25.9456   17.5400 C.2       10 UNK         0.5072 
     39 O         -50.2885  -26.7247   18.3673 O.2       10 UNK        -0.5224 
     40 CA        -48.3597  -26.1676   17.0725 C.3       9 UNK         0.0343 
     41 CB        -48.2644  -27.4542   16.2345 C.3       9 UNK        -0.2003 
     42 N         -47.8085  -25.0574   16.2915 N.am      9 UNK        -0.4272 
     43 C         -47.4258  -23.8744   16.7907 C.2       9 UNK         0.4988 
     44 O         -47.4211  -23.6065   17.9925 O.2       9 UNK        -0.5108 
     45 CA        -47.0186  -22.7929   15.7723 C.3       8 UNK         0.0248 
     46 CB        -45.5376  -22.9362   15.3876 C.3       8 UNK        -0.2001 
     47 N         -47.8523  -22.7912   14.5629 N.am      8 UNK        -0.4140 
     48 C         -49.1736  -22.5523   14.5572 C.2       8 UNK         0.5028 
     49 O         -49.8229  -22.2799   15.5666 O.2       8 UNK        -0.5428 
     50 CA        -49.9110  -22.6834   13.2157 C.3       7 UNK         0.0264 
     51 CB        -49.6835  -21.4367   12.3462 C.3       7 UNK        -0.1988 
     52 N         -49.5305  -23.8900   12.4780 N.am      7 UNK        -0.4454 
     53 C         -49.7604  -25.1431   12.8994 C.2       7 UNK         0.5027 
     54 O         -50.3852  -25.4099   13.9263 O.2       7 UNK        -0.5083 
     55 CA        -49.1368  -26.2939   12.0833 C.3       6 UNK         0.0844 
     56 C56       -50.0243  -26.7117   10.8861 C.3       14 UNK        -0.0967 
     57 S57       -49.3746  -28.2252   10.0976 S.3       14 UNK        -0.2604 
     58 C58       -50.4853  -29.5156   10.7298 C.3       14 UNK         0.0134 
     59 N         -47.7648  -25.9857   11.6726 N.am      6 UNK        -0.4116 
     60 C         -46.7376  -25.7820   12.5067 C.2       5 UNK         0.5034 
     61 O         -46.8196  -25.8559   13.7313 O.2       5 UNK        -0.5045 
     62 CA        -45.4026  -25.3815   11.8659 C.3       5 UNK         0.0224 
     63 CB        -44.6487  -26.6177   11.3499 C.3       5 UNK        -0.1978 
     64 N         -45.5960  -24.4240   10.7759 N.am      5 UNK        -0.4737 
     65 C         -45.9428  -23.1426   10.9538 C.2       4 UNK         0.5027 
     66 O         -46.1036  -22.6252   12.0596 O.2       4 UNK        -0.5211 
     67 CA        -46.1823  -22.3102    9.6821 C.3       4 UNK         0.0297 
     68 CB        -44.8486  -21.8216    9.0953 C.3       4 UNK        -0.1993 
     69 N         -46.9414  -23.0292    8.6530 N.am      4 UNK        -0.4486 
     70 C         -48.2137  -23.4222    8.8007 C.2       3 UNK         0.4961 
     71 O         -48.8725  -23.2366    9.8215 O.2       3 UNK        -0.5105 
     72 CA        -48.8660  -24.1731    7.6295 C.3       3 UNK         0.0299 
     73 CB        -49.2392  -23.1964    6.5028 C.3       3 UNK        -0.1972 
     74 N         -48.1159  -25.3023    7.0671 N.am      3 UNK        -0.4305 
     75 C         -47.3984  -26.2305    7.7156 C.2       2 UNK         0.5006 
     76 O         -47.0650  -26.1499    8.8977 O.2       2 UNK        -0.5106 
     77 CA        -47.0386  -27.4904    6.9035 C.3       2 UNK         0.0296 
     78 CB        -46.0821  -28.4265    7.6668 C.3       2 UNK        -0.2002 
     79 N         -48.2434  -28.2442    6.5327 N.am      2 UNK        -0.4032 
     80 C         -49.0926  -27.9078    5.5502 C.2       1 UNK         0.5000 
     81 O         -48.9211  -26.9078    4.8443 O.2       1 UNK        -0.5238 
     82 H82       -52.9289  -27.2858    2.6923 H         1 UNK         0.0889 
     83 H83       -52.4644  -28.3900    1.3971 H         1 UNK         0.0889 
     84 H84       -51.6700  -26.8198    1.5468 H         1 UNK         0.0889 
     85 H85       -52.0835  -27.8533    4.6520 H         1 UNK         0.3028 
     86 H86       -50.9158  -28.6926    6.2931 H         1 UNK         0.0864 
     87 H87       -49.4452  -30.6697    6.0847 H         1 UNK         0.0720 
     88 H88       -49.3262  -30.4608    4.3633 H         1 UNK         0.0720 
     89 H89       -50.7384  -32.6848    6.8587 H         1 UNK         0.0814 
     90 H90       -52.4299  -32.9321    6.5171 H         1 UNK         0.0814 
     91 H91       -50.1377  -31.2056    8.6478 H         1 UNK         0.1469 
     92 H92       -53.0872  -28.6941   10.4844 H         1 UNK         0.1381 
     93 H93       -54.0665  -30.9277    6.9526 H         1 UNK         0.1206 
     94 H94       -55.4161  -28.8748    7.7275 H         1 UNK         0.0813 
     95 H95       -55.1850  -28.2808    9.3570 H         1 UNK         0.0813 
     96 H96       -58.5186  -30.0826    8.4188 H         1 UNK         0.0638 
     97 H97       -57.6993  -28.5676    8.5631 H         1 UNK         0.0638 
     98 H98       -59.5878  -28.6053   10.0247 H         1 UNK         0.0568 
     99 H99       -60.1595  -31.1028   12.8058 H         1 UNK         0.3450 
    100 H100      -59.4845  -29.4960   12.9112 H         1 UNK         0.3450 
    101 H101      -58.3445  -27.2073   11.0996 H         1 UNK         0.2987 
    102 H102      -56.3092  -26.4017   12.1712 H         1 UNK         0.0766 
    103 H103      -57.3300  -25.6174   14.3437 H         1 UNK         0.0798 
    104 H104      -58.0427  -27.2090   14.5915 H         1 UNK         0.0798 
    105 H105      -58.5736  -26.1980   13.2533 H         1 UNK         0.0798 
    106 H106      -55.4209  -28.4832   13.9675 H         1 UNK         0.3198 
    107 H107      -53.7743  -27.9827   15.6585 H         1 UNK         0.0843 
    108 H108      -51.9594  -27.5781   13.2199 H         1 UNK         0.0831 
    109 H109      -52.9602  -28.9899   13.5261 H         1 UNK         0.0831 
    110 H110      -51.6008  -28.6363   14.5812 H         1 UNK         0.0831 
    111 H111      -51.7017  -25.9808   15.0643 H         1 UNK         0.3133 
    112 H112      -52.0977  -23.7240   16.5483 H         1 UNK         0.0566 
    113 H113      -51.4961  -23.3390   18.9481 H         1 UNK         0.0814 
    114 H114      -53.1913  -23.7528   18.7552 H         1 UNK         0.0814 
    115 H115      -52.0633  -24.9592   19.3527 H         1 UNK         0.0814 
    116 H116      -50.0068  -24.3391   16.3273 H         1 UNK         0.3091 
    117 H117      -47.7458  -26.2949   17.9665 H         1 UNK         0.0702 
    118 H118      -48.8642  -27.3860   15.3261 H         1 UNK         0.0785 
    119 H119      -48.6210  -28.3178   16.7973 H         1 UNK         0.0785 
    120 H120      -47.2352  -27.6616   15.9409 H         1 UNK         0.0785 
    121 H121      -47.6914  -25.2219   15.2944 H         1 UNK         0.2998 
    122 H122      -47.1480  -21.8229   16.2569 H         1 UNK         0.0697 
    123 H123      -45.3399  -23.8822   14.8837 H         1 UNK         0.0825 
    124 H124      -44.8996  -22.8983   16.2715 H         1 UNK         0.0825 
    125 H125      -45.2203  -22.1314   14.7242 H         1 UNK         0.0825 
    126 H126      -47.3802  -22.9675   13.6815 H         1 UNK         0.3029 
    127 H127      -50.9792  -22.7535   13.4333 H         1 UNK         0.0897 
    128 H128      -50.2899  -21.4709   11.4409 H         1 UNK         0.0792 
    129 H129      -49.9569  -20.5282   12.8845 H         1 UNK         0.0792 
    130 H130      -48.6399  -21.3382   12.0447 H         1 UNK         0.0792 
    131 H131      -49.0718  -23.7437   11.5801 H         1 UNK         0.3086 
    132 H132      -49.0767  -27.1495   12.7598 H         1 UNK         0.0583 
    133 H133      -51.0598  -26.8705   11.1892 H         1 UNK         0.1020 
    134 H134      -50.0509  -25.9186   10.1372 H         1 UNK         0.1020 
    135 H135      -49.8878  -30.3881   10.9983 H         1 UNK         0.0694 
    136 H136      -50.9730  -29.1930   11.6494 H         1 UNK         0.0694 
    137 H137      -47.5856  -25.9535   10.6710 H         1 UNK         0.2989 
    138 H138      -44.7920  -24.9064   12.6370 H         1 UNK         0.1055 
    139 H139      -44.4652  -27.3257   12.1592 H         1 UNK         0.0806 
    140 H140      -43.6794  -26.3452   10.9322 H         1 UNK         0.0806 
    141 H141      -45.2101  -27.1455   10.5782 H         1 UNK         0.0806 
    142 H142      -45.6053  -24.8014    9.8364 H         1 UNK         0.3061 
    143 H143      -46.7654  -21.4332    9.9719 H         1 UNK         0.0734 
    144 H144      -45.0080  -21.1511    8.2507 H         1 UNK         0.0832 
    145 H145      -44.2750  -21.2691    9.8411 H         1 UNK         0.0832 
    146 H146      -44.2265  -22.6504    8.7551 H         1 UNK         0.0832 
    147 H147      -46.4670  -23.2449    7.7882 H         1 UNK         0.3156 
    148 H148      -49.7956  -24.5979    8.0124 H         1 UNK         0.0589 
    149 H149      -48.3548  -22.7902    6.0104 H         1 UNK         0.0808 
    150 H150      -49.8511  -23.6828    5.7427 H         1 UNK         0.0808 
    151 H151      -49.8152  -22.3536    6.8881 H         1 UNK         0.0808 
    152 H152      -48.3422  -25.5340    6.1035 H         1 UNK         0.3098 
    153 H153      -46.5292  -27.1628    5.9948 H         1 UNK         0.0720 
    154 H154      -45.7973  -29.2853    7.0589 H         1 UNK         0.0791 
    155 H155      -46.5315  -28.8005    8.5880 H         1 UNK         0.0791 
    156 H156      -45.1637  -27.9059    7.9413 H         1 UNK         0.0791 
    157 H157      -48.4702  -29.0295    7.1253 H         1 UNK         0.3028 
@<TRIPOS>BOND
     1    1    2 1    
     2    1   82 1    
     3    1   83 1    
     4    1   84 1    
     5    2    3 2    
     6    2    4 am   BACKBONE|DICT|INTERRES
     7    4    5 1    
     8    4   85 1    
     9    5    6 1    
    10    5   80 1    
    11    5   86 1    
    12    6    7 1    
    13    6   87 1    
    14    6   88 1    
    15    7    8 1    
    16    8    9 1    
    17    8   89 1    
    18    8   90 1    
    19    9   10 ar   
    20    9   14 ar   
    21   10   11 ar   
    22   10   91 1    
    23   11   12 ar   
    24   11   58 1    
    25   12   13 ar   
    26   12   92 1    
    27   13   14 ar   
    28   13   15 1    
    29   14   93 1    
    30   15   16 1    
    31   15   94 1    
    32   15   95 1    
    33   16   17 1    
    34   17   18 1    
    35   17   96 1    
    36   17   97 1    
    37   18   19 1    
    38   18   22 1    
    39   18   98 1    
    40   19   20 am   BACKBONE|DICT|INTERRES
    41   19   21 2    
    42   20   99 1    
    43   20  100 1    
    44   22   23 am   BACKBONE|DICT|INTERRES
    45   22  101 1    
    46   23   24 2    
    47   23   25 1    
    48   25   26 1    
    49   25   27 1    
    50   25  102 1    
    51   26  103 1    
    52   26  104 1    
    53   26  105 1    
    54   27   28 am   BACKBONE|DICT|INTERRES
    55   27  106 1    
    56   28   29 2    
    57   28   30 1    
    58   30   31 1    
    59   30   32 1    
    60   30  107 1    
    61   31  108 1    
    62   31  109 1    
    63   31  110 1    
    64   32   33 am   BACKBONE|DICT|INTERRES
    65   32  111 1    
    66   33   34 2    
    67   33   35 1    
    68   35   36 1    
    69   35   37 1    
    70   35  112 1    
    71   36  113 1    
    72   36  114 1    
    73   36  115 1    
    74   37   38 am   BACKBONE|DICT|INTERRES
    75   37  116 1    
    76   38   39 2    
    77   38   40 1    
    78   40   41 1    
    79   40   42 1    
    80   40  117 1    
    81   41  118 1    
    82   41  119 1    
    83   41  120 1    
    84   42   43 am   BACKBONE|DICT|INTERRES
    85   42  121 1    
    86   43   44 2    
    87   43   45 1    
    88   45   46 1    
    89   45   47 1    
    90   45  122 1    
    91   46  123 1    
    92   46  124 1    
    93   46  125 1    
    94   47   48 am   BACKBONE|DICT|INTERRES
    95   47  126 1    
    96   48   49 2    
    97   48   50 1    
    98   50   51 1    
    99   50   52 1    
   100   50  127 1    
   101   51  128 1    
   102   51  129 1    
   103   51  130 1    
   104   52   53 am   BACKBONE|DICT|INTERRES
   105   52  131 1    
   106   53   54 2    
   107   53   55 1    
   108   55   56 1    
   109   55   59 1    
   110   55  132 1    
   111   56   57 1    
   112   56  133 1    
   113   56  134 1    
   114   57   58 1    
   115   58  135 1    
   116   58  136 1    
   117   59   60 am   BACKBONE|DICT|INTERRES
   118   59  137 1    
   119   60   61 2    
   120   60   62 1    
   121   62   63 1    
   122   62   64 1    
   123   62  138 1    
   124   63  139 1    
   125   63  140 1    
   126   63  141 1    
   127   64   65 am   BACKBONE|DICT|INTERRES
   128   64  142 1    
   129   65   66 2    
   130   65   67 1    
   131   67   68 1    
   132   67   69 1    
   133   67  143 1    
   134   68  144 1    
   135   68  145 1    
   136   68  146 1    
   137   69   70 am   BACKBONE|DICT|INTERRES
   138   69  147 1    
   139   70   71 2    
   140   70   72 1    
   141   72   73 1    
   142   72   74 1    
   143   72  148 1    
   144   73  149 1    
   145   73  150 1    
   146   73  151 1    
   147   74   75 am   BACKBONE|DICT|INTERRES
   148   74  152 1    
   149   75   76 2    
   150   75   77 1    
   151   77   78 1    
   152   77   79 1    
   153   77  153 1    
   154   78  154 1    
   155   78  155 1    
   156   78  156 1    
   157   79   80 am   BACKBONE|DICT|INTERRES
   158   79  157 1    
   159   80   81 2    
@<TRIPOS>SUBSTRUCTURE
     1 UNK         1 GROUP             0       ****    0 ROOT    
