@<TRIPOS>MOLECULE
3R207
157   159    1
SMALL
USER_CHARGES


@<TRIPOS>ATOM
      1 CA        -48.3448  -25.9283    3.3108 C.3       0 UNK        -0.1975 
      2 C         -49.5001  -26.8921    3.5368 C.2       0 UNK         0.4852 
      3 O         -50.5725  -26.7097    2.9603 O.2       0 UNK        -0.5216 
      4 N         -49.2918  -27.9133    4.3785 N.am      1 UNK        -0.4461 
      5 CA        -50.2888  -28.9292    4.7465 C.3       1 UNK         0.0864 
      6 C6        -49.6162  -30.2602    5.1712 C.3       14 UNK        -0.0898 
      7 S7        -48.3699  -30.0947    6.4998 S.3       14 UNK        -0.2598 
      8 C8        -48.5987  -31.6552    7.4141 C.3       14 UNK         0.0286 
      9 C9        -49.4713  -31.4650    8.6465 C.ar      14 UNK        -0.0844 
     10 C10       -48.8961  -31.4626    9.9211 C.ar      14 UNK        -0.0881 
     11 C11       -49.6823  -31.2659   11.0645 C.ar      14 UNK        -0.0643 
     12 C12       -51.0641  -31.1030   10.9142 C.ar      14 UNK        -0.0930 
     13 C13       -51.6508  -31.0947    9.6443 C.ar      14 UNK        -0.0827 
     14 C14       -50.8502  -31.2852    8.5163 C.ar      14 UNK        -0.1249 
     15 C15       -53.1406  -30.8329    9.4836 C.3       14 UNK         0.0141 
     16 S16       -53.5075  -29.0962    9.8612 S.3       14 UNK        -0.2313 
     17 C17       -55.1118  -28.8414    9.0403 C.3       14 UNK        -0.0915 
     18 CA        -55.5891  -27.3658    9.1599 C.3       13 UNK         0.0968 
     19 C         -56.8464  -27.0787    8.2907 C.2       13 UNK         0.5732 
     20 N         -57.8498  -26.3647    8.7883 N.am      13 UNK        -0.7310 
     21 O         -56.9103  -27.4914    7.1354 O.2       13 UNK        -0.5035 
     22 N         -55.7518  -26.9624   10.5657 N.am      13 UNK        -0.4233 
     23 C         -54.9346  -26.1517   11.2474 C.2       13 UNK         0.4989 
     24 O         -53.9707  -25.5547   10.7568 O.2       13 UNK        -0.4996 
     25 CA        -55.2490  -26.0420   12.7455 C.3       12 UNK         0.0216 
     26 CB        -54.9922  -27.3875   13.4521 C.3       12 UNK        -0.1964 
     27 N         -54.4210  -25.0313   13.3966 N.am      12 UNK        -0.4276 
     28 C         -54.8646  -24.0677   14.2108 C.2       12 UNK         0.5020 
     29 O         -56.0569  -23.8090   14.3923 O.2       12 UNK        -0.5489 
     30 CA        -53.7742  -23.3195   15.0024 C.3       11 UNK         0.0294 
     31 CB        -54.3323  -22.2343   15.9472 C.3       11 UNK        -0.2019 
     32 N         -52.9132  -24.2639   15.7277 N.am      11 UNK        -0.4493 
     33 C         -53.2732  -25.1526   16.6685 C.2       11 UNK         0.4932 
     34 O         -54.3942  -25.2110   17.1743 O.2       11 UNK        -0.5029 
     35 CA        -52.2148  -26.1833   17.1064 C.3       10 UNK         0.0280 
     36 CB        -52.4617  -27.5229   16.3937 C.3       10 UNK        -0.1976 
     37 N         -50.8360  -25.7567   16.8546 N.am      10 UNK        -0.4242 
     38 C         -50.1890  -24.8199   17.5628 C.2       10 UNK         0.5072 
     39 O         -50.6596  -24.2595   18.5535 O.2       10 UNK        -0.5224 
     40 CA        -48.7916  -24.4156   17.0596 C.3       9 UNK         0.0343 
     41 CB        -47.7290  -25.4335   17.5043 C.3       9 UNK        -0.2003 
     42 N         -48.7388  -24.2533   15.6044 N.am      9 UNK        -0.4272 
     43 C         -49.4412  -23.3447   14.9101 C.2       9 UNK         0.4988 
     44 O         -50.1765  -22.5011   15.4212 O.2       9 UNK        -0.5108 
     45 CA        -49.3361  -23.4165   13.3814 C.3       8 UNK         0.0248 
     46 CB        -48.0496  -22.7260   12.8997 C.3       8 UNK        -0.2001 
     47 N         -49.4019  -24.8035   12.9096 N.am      8 UNK        -0.4140 
     48 C         -50.5291  -25.5318   12.8998 C.2       8 UNK         0.5028 
     49 O         -51.6342  -25.0721   13.1781 O.2       8 UNK        -0.5428 
     50 CA        -50.4183  -27.0262   12.5643 C.3       7 UNK         0.0264 
     51 CB        -50.7176  -27.2867   11.0834 C.3       7 UNK        -0.1988 
     52 N         -49.1140  -27.5865   12.9094 N.am      7 UNK        -0.4454 
     53 C         -48.7235  -27.8515   14.1640 C.2       7 UNK         0.5027 
     54 O         -49.4273  -27.6392   15.1516 O.2       7 UNK        -0.5083 
     55 CA        -47.2933  -28.3990   14.3571 C.3       6 UNK         0.0844 
     56 C56       -47.2556  -29.9464   14.2474 C.3       14 UNK        -0.0967 
     57 S57       -47.3731  -30.5603   12.5272 S.3       14 UNK        -0.2604 
     58 C58       -49.0769  -31.2196   12.4691 C.3       14 UNK         0.0134 
     59 N         -46.3125  -27.7642   13.4713 N.am      6 UNK        -0.4116 
     60 C         -46.0619  -26.4521   13.3811 C.2       5 UNK         0.5034 
     61 O         -46.6028  -25.6049   14.0938 O.2       5 UNK        -0.5045 
     62 CA        -45.0880  -25.9931   12.2756 C.3       5 UNK         0.0224 
     63 CB        -44.3259  -27.1496   11.5874 C.3       5 UNK        -0.1978 
     64 N         -45.7517  -25.1591   11.2617 N.am      5 UNK        -0.4737 
     65 C         -46.8518  -25.4703   10.5614 C.2       4 UNK         0.5027 
     66 O         -47.4809  -26.5220   10.6930 O.2       4 UNK        -0.5211 
     67 CA        -47.3387  -24.4362    9.5426 C.3       4 UNK         0.0297 
     68 CB        -46.8440  -24.7883    8.1299 C.3       4 UNK        -0.1993 
     69 N         -48.7993  -24.4285    9.5570 N.am      4 UNK        -0.4486 
     70 C         -49.5760  -23.3438    9.4499 C.2       3 UNK         0.4961 
     71 O         -49.1278  -22.2046    9.3085 O.2       3 UNK        -0.5105 
     72 CA        -51.1066  -23.5619    9.5217 C.3       3 UNK         0.0299 
     73 CB        -51.8985  -22.3537    8.9813 C.3       3 UNK        -0.1972 
     74 N         -51.6006  -24.7942    8.8879 N.am      3 UNK        -0.4305 
     75 C         -51.3230  -25.2333    7.6501 C.2       2 UNK         0.5006 
     76 O         -50.5396  -24.6842    6.8705 O.2       2 UNK        -0.5106 
     77 CA        -52.0626  -26.4891    7.1820 C.3       2 UNK         0.0296 
     78 CB        -53.3626  -26.0951    6.4518 C.3       2 UNK        -0.2002 
     79 N         -51.1716  -27.2063    6.2773 N.am      2 UNK        -0.4032 
     80 C         -51.3407  -28.4325    5.7690 C.2       1 UNK         0.5000 
     81 O         -52.2948  -29.1602    6.0499 O.2       1 UNK        -0.5238 
     82 H82       -47.4515  -26.2260    3.8597 H         1 UNK         0.0889 
     83 H83       -48.6245  -24.9266    3.6365 H         1 UNK         0.0889 
     84 H84       -48.0932  -25.8854    2.2515 H         1 UNK         0.0889 
     85 H85       -48.3913  -28.0216    4.8254 H         1 UNK         0.3028 
     86 H86       -50.8643  -29.1534    3.8455 H         1 UNK         0.0864 
     87 H87       -49.1076  -30.6919    4.3078 H         1 UNK         0.0720 
     88 H88       -50.3726  -30.9947    5.4504 H         1 UNK         0.0720 
     89 H89       -47.6151  -32.0285    7.7033 H         1 UNK         0.0814 
     90 H90       -49.0276  -32.4215    6.7670 H         1 UNK         0.0814 
     91 H91       -47.8285  -31.6016   10.0173 H         1 UNK         0.1469 
     92 H92       -51.6855  -30.9434   11.7848 H         1 UNK         0.1381 
     93 H93       -51.3000  -31.2702    7.5339 H         1 UNK         0.1206 
     94 H94       -53.7120  -31.4825   10.1478 H         1 UNK         0.0813 
     95 H95       -53.4614  -31.0595    8.4655 H         1 UNK         0.0813 
     96 H96       -54.9937  -29.1248    7.9926 H         1 UNK         0.0638 
     97 H97       -55.8455  -29.5238    9.4723 H         1 UNK         0.0638 
     98 H98       -54.8160  -26.7429    8.7147 H         1 UNK         0.0568 
     99 H99       -57.8009  -25.9800    9.7176 H         1 UNK         0.3450 
    100 H100      -58.6546  -26.1818    8.2097 H         1 UNK         0.3450 
    101 H101      -56.5178  -27.4048   11.0521 H         1 UNK         0.2987 
    102 H102      -56.3056  -25.7841   12.8420 H         1 UNK         0.0766 
    103 H103      -53.9603  -27.7169   13.3216 H         1 UNK         0.0798 
    104 H104      -55.1861  -27.3148   14.5226 H         1 UNK         0.0798 
    105 H105      -55.6366  -28.1767   13.0636 H         1 UNK         0.0798 
    106 H106      -53.4139  -25.1095   13.2393 H         1 UNK         0.3198 
    107 H107      -53.1384  -22.8238   14.2667 H         1 UNK         0.0843 
    108 H108      -54.8906  -21.4832   15.3874 H         1 UNK         0.0831 
    109 H109      -53.5289  -21.7182   16.4727 H         1 UNK         0.0831 
    110 H110      -55.0091  -22.6508   16.6937 H         1 UNK         0.0831 
    111 H111      -51.9748  -24.3402   15.3582 H         1 UNK         0.3133 
    112 H112      -52.3329  -26.3429   18.1802 H         1 UNK         0.0566 
    113 H113      -51.7645  -28.2889   16.7337 H         1 UNK         0.0814 
    114 H114      -53.4695  -27.8916   16.5893 H         1 UNK         0.0814 
    115 H115      -52.3531  -27.4275   15.3131 H         1 UNK         0.0814 
    116 H116      -50.3382  -26.2382   16.1097 H         1 UNK         0.3091 
    117 H117      -48.5450  -23.4503   17.5067 H         1 UNK         0.0702 
    118 H118      -46.7298  -25.1220   17.1991 H         1 UNK         0.0785 
    119 H119      -47.9128  -26.4224   17.0839 H         1 UNK         0.0785 
    120 H120      -47.7196  -25.5373   18.5901 H         1 UNK         0.0785 
    121 H121      -48.1065  -24.8665   15.0978 H         1 UNK         0.2998 
    122 H122      -50.1843  -22.8703   12.9622 H         1 UNK         0.0697 
    123 H123      -47.1503  -23.2363   13.2418 H         1 UNK         0.0825 
    124 H124      -47.9988  -21.7025   13.2738 H         1 UNK         0.0825 
    125 H125      -48.0101  -22.6640   11.8153 H         1 UNK         0.0825 
    126 H126      -48.5257  -25.2693   12.7164 H         1 UNK         0.3029 
    127 H127      -51.1783  -27.5485   13.1492 H         1 UNK         0.0897 
    128 H128      -50.6805  -28.3503   10.8539 H         1 UNK         0.0792 
    129 H129      -50.0158  -26.7876   10.4211 H         1 UNK         0.0792 
    130 H130      -51.7169  -26.9371   10.8288 H         1 UNK         0.0792 
    131 H131      -48.4578  -27.7204   12.1463 H         1 UNK         0.3086 
    132 H132      -47.0010  -28.1375   15.3761 H         1 UNK         0.0583 
    133 H133      -46.3111  -30.3083   14.6567 H         1 UNK         0.1020 
    134 H134      -48.0277  -30.4045   14.8693 H         1 UNK         0.1020 
    135 H135      -49.0845  -32.2238   12.8944 H         1 UNK         0.0694 
    136 H136      -49.7097  -30.6033   13.1096 H         1 UNK         0.0694 
    137 H137      -45.8610  -28.3815   12.8120 H         1 UNK         0.2989 
    138 H138      -44.3514  -25.3600   12.7733 H         1 UNK         0.1055 
    139 H139      -43.7803  -27.7547   12.3130 H         1 UNK         0.0806 
    140 H140      -43.5889  -26.7629   10.8834 H         1 UNK         0.0806 
    141 H141      -44.9908  -27.8108   11.0295 H         1 UNK         0.0806 
    142 H142      -45.3225  -24.2584   11.0981 H         1 UNK         0.3061 
    143 H143      -46.9516  -23.4545    9.8226 H         1 UNK         0.0734 
    144 H144      -47.1923  -24.0604    7.3968 H         1 UNK         0.0832 
    145 H145      -45.7542  -24.7991    8.0873 H         1 UNK         0.0832 
    146 H146      -47.1947  -25.7721    7.8146 H         1 UNK         0.0832 
    147 H147      -49.2229  -25.3338    9.7025 H         1 UNK         0.3156 
    148 H148      -51.3440  -23.6567   10.5822 H         1 UNK         0.0589 
    149 H149      -51.6902  -22.1786    7.9252 H         1 UNK         0.0808 
    150 H150      -52.9727  -22.5035    9.0917 H         1 UNK         0.0808 
    151 H151      -51.6450  -21.4408    9.5217 H         1 UNK         0.0808 
    152 H152      -52.2946  -25.2957    9.4347 H         1 UNK         0.3098 
    153 H153      -52.2849  -27.1212    8.0430 H         1 UNK         0.0720 
    154 H154      -53.9809  -26.9676    6.2393 H         1 UNK         0.0791 
    155 H155      -53.1523  -25.5961    5.5050 H         1 UNK         0.0791 
    156 H156      -53.9627  -25.4073    7.0484 H         1 UNK         0.0791 
    157 H157      -50.3640  -26.6667    5.9915 H         1 UNK         0.3028 
@<TRIPOS>BOND
     1    1    2 1    
     2    1   82 1    
     3    1   83 1    
     4    1   84 1    
     5    2    3 2    
     6    2    4 am   BACKBONE|DICT|INTERRES
     7    4    5 1    
     8    4   85 1    
     9    5    6 1    
    10    5   80 1    
    11    5   86 1    
    12    6    7 1    
    13    6   87 1    
    14    6   88 1    
    15    7    8 1    
    16    8    9 1    
    17    8   89 1    
    18    8   90 1    
    19    9   10 ar   
    20    9   14 ar   
    21   10   11 ar   
    22   10   91 1    
    23   11   12 ar   
    24   11   58 1    
    25   12   13 ar   
    26   12   92 1    
    27   13   14 ar   
    28   13   15 1    
    29   14   93 1    
    30   15   16 1    
    31   15   94 1    
    32   15   95 1    
    33   16   17 1    
    34   17   18 1    
    35   17   96 1    
    36   17   97 1    
    37   18   19 1    
    38   18   22 1    
    39   18   98 1    
    40   19   20 am   BACKBONE|DICT|INTERRES
    41   19   21 2    
    42   20   99 1    
    43   20  100 1    
    44   22   23 am   BACKBONE|DICT|INTERRES
    45   22  101 1    
    46   23   24 2    
    47   23   25 1    
    48   25   26 1    
    49   25   27 1    
    50   25  102 1    
    51   26  103 1    
    52   26  104 1    
    53   26  105 1    
    54   27   28 am   BACKBONE|DICT|INTERRES
    55   27  106 1    
    56   28   29 2    
    57   28   30 1    
    58   30   31 1    
    59   30   32 1    
    60   30  107 1    
    61   31  108 1    
    62   31  109 1    
    63   31  110 1    
    64   32   33 am   BACKBONE|DICT|INTERRES
    65   32  111 1    
    66   33   34 2    
    67   33   35 1    
    68   35   36 1    
    69   35   37 1    
    70   35  112 1    
    71   36  113 1    
    72   36  114 1    
    73   36  115 1    
    74   37   38 am   BACKBONE|DICT|INTERRES
    75   37  116 1    
    76   38   39 2    
    77   38   40 1    
    78   40   41 1    
    79   40   42 1    
    80   40  117 1    
    81   41  118 1    
    82   41  119 1    
    83   41  120 1    
    84   42   43 am   BACKBONE|DICT|INTERRES
    85   42  121 1    
    86   43   44 2    
    87   43   45 1    
    88   45   46 1    
    89   45   47 1    
    90   45  122 1    
    91   46  123 1    
    92   46  124 1    
    93   46  125 1    
    94   47   48 am   BACKBONE|DICT|INTERRES
    95   47  126 1    
    96   48   49 2    
    97   48   50 1    
    98   50   51 1    
    99   50   52 1    
   100   50  127 1    
   101   51  128 1    
   102   51  129 1    
   103   51  130 1    
   104   52   53 am   BACKBONE|DICT|INTERRES
   105   52  131 1    
   106   53   54 2    
   107   53   55 1    
   108   55   56 1    
   109   55   59 1    
   110   55  132 1    
   111   56   57 1    
   112   56  133 1    
   113   56  134 1    
   114   57   58 1    
   115   58  135 1    
   116   58  136 1    
   117   59   60 am   BACKBONE|DICT|INTERRES
   118   59  137 1    
   119   60   61 2    
   120   60   62 1    
   121   62   63 1    
   122   62   64 1    
   123   62  138 1    
   124   63  139 1    
   125   63  140 1    
   126   63  141 1    
   127   64   65 am   BACKBONE|DICT|INTERRES
   128   64  142 1    
   129   65   66 2    
   130   65   67 1    
   131   67   68 1    
   132   67   69 1    
   133   67  143 1    
   134   68  144 1    
   135   68  145 1    
   136   68  146 1    
   137   69   70 am   BACKBONE|DICT|INTERRES
   138   69  147 1    
   139   70   71 2    
   140   70   72 1    
   141   72   73 1    
   142   72   74 1    
   143   72  148 1    
   144   73  149 1    
   145   73  150 1    
   146   73  151 1    
   147   74   75 am   BACKBONE|DICT|INTERRES
   148   74  152 1    
   149   75   76 2    
   150   75   77 1    
   151   77   78 1    
   152   77   79 1    
   153   77  153 1    
   154   78  154 1    
   155   78  155 1    
   156   78  156 1    
   157   79   80 am   BACKBONE|DICT|INTERRES
   158   79  157 1    
   159   80   81 2    
@<TRIPOS>SUBSTRUCTURE
     1 UNK         1 GROUP             0       ****    0 ROOT    
