@<TRIPOS>MOLECULE
3R207
157   159    1
SMALL
USER_CHARGES


@<TRIPOS>ATOM
      1 CA        -47.7612  -27.8725    8.1020 C.3       0 UNK        -0.1975 
      2 C         -48.7560  -27.7173    6.9622 C.2       0 UNK         0.4852 
      3 O         -48.6076  -26.8193    6.1313 O.2       0 UNK        -0.5216 
      4 N         -49.7762  -28.5834    6.9094 N.am      1 UNK        -0.4461 
      5 CA        -50.7954  -28.6068    5.8553 C.3       1 UNK         0.0864 
      6 C6        -51.4348  -30.0080    5.6781 C.3       14 UNK        -0.0898 
      7 S7        -50.1928  -31.3187    5.4043 S.3       14 UNK        -0.2598 
      8 C8        -50.5740  -32.4853    6.7501 C.3       14 UNK         0.0286 
      9 C9        -50.2778  -31.9098    8.1290 C.ar      14 UNK        -0.0844 
     10 C10       -48.9777  -31.9328    8.6404 C.ar      14 UNK        -0.0881 
     11 C11       -48.7113  -31.4692    9.9337 C.ar      14 UNK        -0.0643 
     12 C12       -49.7575  -30.9468   10.7044 C.ar      14 UNK        -0.0930 
     13 C13       -51.0613  -30.9062   10.1979 C.ar      14 UNK        -0.0827 
     14 C14       -51.3137  -31.4019    8.9164 C.ar      14 UNK        -0.1249 
     15 C15       -52.2161  -30.3890   11.0455 C.3       14 UNK         0.0141 
     16 S16       -53.0203  -28.9392   10.2911 S.3       14 UNK        -0.2313 
     17 C17       -54.5719  -28.8878   11.2435 C.3       14 UNK        -0.0915 
     18 CA        -55.3902  -27.5956   10.9964 C.3       13 UNK         0.0968 
     19 C         -56.7907  -27.7026   11.6605 C.2       13 UNK         0.5732 
     20 N         -56.9640  -27.2714   12.9034 N.am      13 UNK        -0.7310 
     21 O         -57.7336  -28.1825   11.0355 O.2       13 UNK        -0.5035 
     22 N         -54.6468  -26.3810   11.3672 N.am      13 UNK        -0.4233 
     23 C         -54.9950  -25.1430   10.9903 C.2       13 UNK         0.4989 
     24 O         -55.9749  -24.8862   10.2873 O.2       13 UNK        -0.4996 
     25 CA        -54.0822  -24.0114   11.4921 C.3       12 UNK         0.0216 
     26 CB        -54.5115  -22.6046   11.0219 C.3       12 UNK        -0.1964 
     27 N         -53.9081  -24.0710   12.9473 N.am      12 UNK        -0.4276 
     28 C         -54.8293  -23.8629   13.8986 C.2       12 UNK         0.5020 
     29 O         -55.9905  -23.5174   13.6727 O.2       12 UNK        -0.5489 
     30 CA        -54.3596  -24.0661   15.3540 C.3       11 UNK         0.0294 
     31 CB        -55.5262  -24.0911   16.3654 C.3       11 UNK        -0.2019 
     32 N         -53.4899  -25.2354   15.5406 N.am      11 UNK        -0.4493 
     33 C         -53.7983  -26.5235   15.3183 C.2       11 UNK         0.4932 
     34 O         -54.8774  -26.8884   14.8507 O.2       11 UNK        -0.5029 
     35 CA        -52.7374  -27.5901   15.6666 C.3       10 UNK         0.0280 
     36 CB        -52.6944  -28.7102   14.6147 C.3       10 UNK        -0.1976 
     37 N         -51.3937  -27.0272   15.7949 N.am      10 UNK        -0.4242 
     38 C         -50.8028  -26.6455   16.9348 C.2       10 UNK         0.5072 
     39 O         -51.3068  -26.7821   18.0497 O.2       10 UNK        -0.5224 
     40 CA        -49.4294  -25.9545   16.8073 C.3       9 UNK         0.0343 
     41 CB        -48.2938  -26.9746   16.9824 C.3       9 UNK        -0.2003 
     42 N         -49.2484  -25.2386   15.5388 N.am      9 UNK        -0.4272 
     43 C         -50.0106  -24.2140   15.1275 C.2       9 UNK         0.4988 
     44 O         -50.9102  -23.7139   15.8029 O.2       9 UNK        -0.5108 
     45 CA        -49.7854  -23.7158   13.6918 C.3       8 UNK         0.0248 
     46 CB        -48.6054  -22.7343   13.6413 C.3       8 UNK        -0.2001 
     47 N         -49.5997  -24.8186   12.7383 N.am      8 UNK        -0.4140 
     48 C         -50.5472  -25.7281   12.4629 C.2       8 UNK         0.5028 
     49 O         -51.6857  -25.6847   12.9224 O.2       8 UNK        -0.5428 
     50 CA        -50.1606  -26.9228   11.5892 C.3       7 UNK         0.0264 
     51 CB        -50.3217  -26.6069   10.0980 C.3       7 UNK        -0.1988 
     52 N         -48.8131  -27.4042   11.8911 N.am      7 UNK        -0.4454 
     53 C         -48.5356  -28.1381   12.9801 C.2       7 UNK         0.5027 
     54 O         -49.3947  -28.5095   13.7800 O.2       7 UNK        -0.5083 
     55 CA        -47.0650  -28.5144   13.2512 C.3       6 UNK         0.0844 
     56 C56       -46.7301  -29.9289   12.7186 C.3       14 UNK        -0.0967 
     57 S57       -46.5294  -30.0101   10.9005 S.3       14 UNK        -0.2604 
     58 C58       -47.3062  -31.6090   10.5087 C.3       14 UNK         0.0134 
     59 N         -46.1027  -27.5168   12.7851 N.am      6 UNK        -0.4116 
     60 C         -46.0114  -26.2497   13.2051 C.2       5 UNK         0.5034 
     61 O         -46.7453  -25.7588   14.0657 O.2       5 UNK        -0.5045 
     62 CA        -44.9447  -25.3659   12.5220 C.3       5 UNK         0.0224 
     63 CB        -44.0292  -26.1306   11.5373 C.3       5 UNK        -0.1978 
     64 N         -45.5187  -24.1968   11.8415 N.am      5 UNK        -0.4737 
     65 C         -46.5483  -24.1858   10.9832 C.2       4 UNK         0.5027 
     66 O         -47.2182  -25.1824   10.7038 O.2       4 UNK        -0.5211 
     67 CA        -46.8910  -22.8146   10.3743 C.3       4 UNK         0.0297 
     68 CB        -45.8822  -22.4160    9.2770 C.3       4 UNK        -0.1993 
     69 N         -48.2844  -22.7416    9.9084 N.am      4 UNK        -0.4486 
     70 C         -48.8325  -23.2993    8.8197 C.2       3 UNK         0.4961 
     71 O         -48.2072  -23.8795    7.9286 O.2       3 UNK        -0.5105 
     72 CA        -50.3584  -23.1765    8.7118 C.3       3 UNK         0.0299 
     73 CB        -50.7930  -21.7066    8.5310 C.3       3 UNK        -0.1972 
     74 N         -50.8062  -23.9806    7.5782 N.am      3 UNK        -0.4305 
     75 C         -52.0681  -24.3360    7.3138 C.2       2 UNK         0.5006 
     76 O         -53.0194  -24.0914    8.0550 O.2       2 UNK        -0.5106 
     77 CA        -52.3136  -25.0703    5.9898 C.3       2 UNK         0.0296 
     78 CB        -52.0802  -24.1328    4.7919 C.3       2 UNK        -0.2002 
     79 N         -51.4569  -26.2492    5.8618 N.am      2 UNK        -0.4032 
     80 C         -51.8524  -27.5068    6.0929 C.2       1 UNK         0.5000 
     81 O         -52.9865  -27.8089    6.4706 O.2       1 UNK        -0.5238 
     82 H82       -46.8216  -28.2790    7.7296 H         1 UNK         0.0889 
     83 H83       -48.1388  -28.5401    8.8759 H         1 UNK         0.0889 
     84 H84       -47.5560  -26.9041    8.5583 H         1 UNK         0.0889 
     85 H85       -49.8632  -29.3084    7.6093 H         1 UNK         0.3028 
     86 H86       -50.3056  -28.3714    4.9074 H         1 UNK         0.0864 
     87 H87       -52.0582  -30.2604    6.5353 H         1 UNK         0.0720 
     88 H88       -52.1057  -30.0053    4.8172 H         1 UNK         0.0720 
     89 H89       -49.9869  -33.3931    6.6027 H         1 UNK         0.0814 
     90 H90       -51.6193  -32.7900    6.6774 H         1 UNK         0.0814 
     91 H91       -48.1787  -32.3452    8.0391 H         1 UNK         0.1469 
     92 H92       -49.5610  -30.5970   11.7075 H         1 UNK         0.1381 
     93 H93       -52.3272  -31.3985    8.5387 H         1 UNK         0.1206 
     94 H94       -51.8755  -30.1282   12.0483 H         1 UNK         0.0813 
     95 H95       -52.9481  -31.1892   11.1636 H         1 UNK         0.0813 
     96 H96       -54.3480  -28.9975   12.3039 H         1 UNK         0.0638 
     97 H97       -55.1550  -29.7666   10.9612 H         1 UNK         0.0638 
     98 H98       -55.5695  -27.5354    9.9208 H         1 UNK         0.0568 
     99 H99       -56.1775  -26.9538   13.4630 H         1 UNK         0.3450 
    100 H100      -57.8768  -27.3383   13.3224 H         1 UNK         0.3450 
    101 H101      -53.8376  -26.5059   11.9587 H         1 UNK         0.2987 
    102 H102      -53.0996  -24.2038   11.0582 H         1 UNK         0.0766 
    103 H103      -53.8256  -21.8391   11.3842 H         1 UNK         0.0798 
    104 H104      -55.5152  -22.3468   11.3600 H         1 UNK         0.0798 
    105 H105      -54.5134  -22.5481    9.9326 H         1 UNK         0.0798 
    106 H106      -53.0173  -24.4736   13.2366 H         1 UNK         0.3198 
    107 H107      -53.7444  -23.1962   15.5896 H         1 UNK         0.0843 
    108 H108      -56.2200  -24.9075   16.1624 H         1 UNK         0.0831 
    109 H109      -56.0977  -23.1630   16.3263 H         1 UNK         0.0831 
    110 H110      -55.1639  -24.2036   17.3872 H         1 UNK         0.0831 
    111 H111      -52.5527  -25.0190   15.8623 H         1 UNK         0.3133 
    112 H112      -53.0373  -28.0370   16.6163 H         1 UNK         0.0566 
    113 H113      -52.4700  -28.3140   13.6245 H         1 UNK         0.0814 
    114 H114      -51.9337  -29.4531   14.8558 H         1 UNK         0.0814 
    115 H115      -53.6490  -29.2341   14.5588 H         1 UNK         0.0814 
    116 H116      -50.8961  -26.8816   14.9262 H         1 UNK         0.3091 
    117 H117      -49.3561  -25.2193   17.6114 H         1 UNK         0.0702 
    118 H118      -47.3158  -26.4956   16.9290 H         1 UNK         0.0785 
    119 H119      -48.3299  -27.7509   16.2182 H         1 UNK         0.0785 
    120 H120      -48.3611  -27.4695   17.9522 H         1 UNK         0.0785 
    121 H121      -48.4844  -25.5456   14.9423 H         1 UNK         0.2998 
    122 H122      -50.6846  -23.1707   13.3960 H         1 UNK         0.0697 
    123 H123      -47.6474  -23.2351   13.7803 H         1 UNK         0.0825 
    124 H124      -48.6917  -21.9807   14.4258 H         1 UNK         0.0825 
    125 H125      -48.5824  -22.1962   12.6970 H         1 UNK         0.0825 
    126 H126      -48.6807  -24.9465   12.3320 H         1 UNK         0.3029 
    127 H127      -50.8664  -27.7210   11.8237 H         1 UNK         0.0897 
    128 H128      -51.2815  -26.1281    9.8977 H         1 UNK         0.0792 
    129 H129      -50.3031  -27.5240    9.5124 H         1 UNK         0.0792 
    130 H130      -49.5382  -25.9489    9.7283 H         1 UNK         0.0792 
    131 H131      -48.0559  -27.0619   11.3095 H         1 UNK         0.3086 
    132 H132      -46.9610  -28.5509   14.3375 H         1 UNK         0.0583 
    133 H133      -45.7945  -30.2687   13.1657 H         1 UNK         0.1020 
    134 H134      -47.4822  -30.6459   13.0534 H         1 UNK         0.1020 
    135 H135      -46.6581  -32.1234    9.7976 H         1 UNK         0.0694 
    136 H136      -47.3369  -32.2486   11.3915 H         1 UNK         0.0694 
    137 H137      -45.4891  -27.8204   12.0430 H         1 UNK         0.2989 
    138 H138      -44.3182  -24.9836   13.3296 H         1 UNK         0.1055 
    139 H139      -43.5238  -26.9655   12.0251 H         1 UNK         0.0806 
    140 H140      -43.2480  -25.4777   11.1476 H         1 UNK         0.0806 
    141 H141      -44.5812  -26.5217   10.6811 H         1 UNK         0.0806 
    142 H142      -45.0633  -23.3173   12.0444 H         1 UNK         0.3061 
    143 H143      -46.8081  -22.0748   11.1714 H         1 UNK         0.0734 
    144 H144      -44.8846  -22.2791    9.6956 H         1 UNK         0.0832 
    145 H145      -46.1631  -21.4779    8.7986 H         1 UNK         0.0832 
    146 H146      -45.7978  -23.1778    8.5015 H         1 UNK         0.0832 
    147 H147      -48.9171  -22.2876   10.5508 H         1 UNK         0.3156 
    148 H148      -50.7985  -23.5798    9.6262 H         1 UNK         0.0589 
    149 H149      -50.3755  -21.2757    7.6202 H         1 UNK         0.0808 
    150 H150      -51.8777  -21.6130    8.4764 H         1 UNK         0.0808 
    151 H151      -50.4665  -21.0857    9.3656 H         1 UNK         0.0808 
    152 H152      -50.0493  -24.2656    6.9673 H         1 UNK         0.3098 
    153 H153      -53.3644  -25.3682    5.9704 H         1 UNK         0.0720 
    154 H154      -52.3450  -24.6206    3.8536 H         1 UNK         0.0791 
    155 H155      -51.0407  -23.8112    4.7179 H         1 UNK         0.0791 
    156 H156      -52.6950  -23.2352    4.8737 H         1 UNK         0.0791 
    157 H157      -50.4770  -26.1032    5.6410 H         1 UNK         0.3028 
@<TRIPOS>BOND
     1    1    2 1    
     2    1   82 1    
     3    1   83 1    
     4    1   84 1    
     5    2    3 2    
     6    2    4 am   BACKBONE|DICT|INTERRES
     7    4    5 1    
     8    4   85 1    
     9    5    6 1    
    10    5   80 1    
    11    5   86 1    
    12    6    7 1    
    13    6   87 1    
    14    6   88 1    
    15    7    8 1    
    16    8    9 1    
    17    8   89 1    
    18    8   90 1    
    19    9   10 ar   
    20    9   14 ar   
    21   10   11 ar   
    22   10   91 1    
    23   11   12 ar   
    24   11   58 1    
    25   12   13 ar   
    26   12   92 1    
    27   13   14 ar   
    28   13   15 1    
    29   14   93 1    
    30   15   16 1    
    31   15   94 1    
    32   15   95 1    
    33   16   17 1    
    34   17   18 1    
    35   17   96 1    
    36   17   97 1    
    37   18   19 1    
    38   18   22 1    
    39   18   98 1    
    40   19   20 am   BACKBONE|DICT|INTERRES
    41   19   21 2    
    42   20   99 1    
    43   20  100 1    
    44   22   23 am   BACKBONE|DICT|INTERRES
    45   22  101 1    
    46   23   24 2    
    47   23   25 1    
    48   25   26 1    
    49   25   27 1    
    50   25  102 1    
    51   26  103 1    
    52   26  104 1    
    53   26  105 1    
    54   27   28 am   BACKBONE|DICT|INTERRES
    55   27  106 1    
    56   28   29 2    
    57   28   30 1    
    58   30   31 1    
    59   30   32 1    
    60   30  107 1    
    61   31  108 1    
    62   31  109 1    
    63   31  110 1    
    64   32   33 am   BACKBONE|DICT|INTERRES
    65   32  111 1    
    66   33   34 2    
    67   33   35 1    
    68   35   36 1    
    69   35   37 1    
    70   35  112 1    
    71   36  113 1    
    72   36  114 1    
    73   36  115 1    
    74   37   38 am   BACKBONE|DICT|INTERRES
    75   37  116 1    
    76   38   39 2    
    77   38   40 1    
    78   40   41 1    
    79   40   42 1    
    80   40  117 1    
    81   41  118 1    
    82   41  119 1    
    83   41  120 1    
    84   42   43 am   BACKBONE|DICT|INTERRES
    85   42  121 1    
    86   43   44 2    
    87   43   45 1    
    88   45   46 1    
    89   45   47 1    
    90   45  122 1    
    91   46  123 1    
    92   46  124 1    
    93   46  125 1    
    94   47   48 am   BACKBONE|DICT|INTERRES
    95   47  126 1    
    96   48   49 2    
    97   48   50 1    
    98   50   51 1    
    99   50   52 1    
   100   50  127 1    
   101   51  128 1    
   102   51  129 1    
   103   51  130 1    
   104   52   53 am   BACKBONE|DICT|INTERRES
   105   52  131 1    
   106   53   54 2    
   107   53   55 1    
   108   55   56 1    
   109   55   59 1    
   110   55  132 1    
   111   56   57 1    
   112   56  133 1    
   113   56  134 1    
   114   57   58 1    
   115   58  135 1    
   116   58  136 1    
   117   59   60 am   BACKBONE|DICT|INTERRES
   118   59  137 1    
   119   60   61 2    
   120   60   62 1    
   121   62   63 1    
   122   62   64 1    
   123   62  138 1    
   124   63  139 1    
   125   63  140 1    
   126   63  141 1    
   127   64   65 am   BACKBONE|DICT|INTERRES
   128   64  142 1    
   129   65   66 2    
   130   65   67 1    
   131   67   68 1    
   132   67   69 1    
   133   67  143 1    
   134   68  144 1    
   135   68  145 1    
   136   68  146 1    
   137   69   70 am   BACKBONE|DICT|INTERRES
   138   69  147 1    
   139   70   71 2    
   140   70   72 1    
   141   72   73 1    
   142   72   74 1    
   143   72  148 1    
   144   73  149 1    
   145   73  150 1    
   146   73  151 1    
   147   74   75 am   BACKBONE|DICT|INTERRES
   148   74  152 1    
   149   75   76 2    
   150   75   77 1    
   151   77   78 1    
   152   77   79 1    
   153   77  153 1    
   154   78  154 1    
   155   78  155 1    
   156   78  156 1    
   157   79   80 am   BACKBONE|DICT|INTERRES
   158   79  157 1    
   159   80   81 2    
@<TRIPOS>SUBSTRUCTURE
     1 UNK         1 GROUP             0       ****    0 ROOT    
