@<TRIPOS>MOLECULE
3R207
157   159    1
SMALL
USER_CHARGES


@<TRIPOS>ATOM
      1 CA        -48.7744  -25.7443    1.6493 C.3       0 UNK        -0.1975 
      2 C         -47.7898  -26.6734    2.3551 C.2       0 UNK         0.4852 
      3 O         -46.6023  -26.6436    2.0375 O.2       0 UNK        -0.5216 
      4 N         -48.2190  -27.5159    3.3076 N.am      1 UNK        -0.4461 
      5 CA        -49.5851  -27.6465    3.8347 C.3       1 UNK         0.0864 
      6 C6        -49.7429  -28.9664    4.6367 C.3       14 UNK        -0.0898 
      7 S7        -51.4672  -29.5590    4.6799 S.3       14 UNK        -0.2598 
      8 C8        -51.2539  -31.2544    5.3065 C.3       14 UNK         0.0286 
      9 C9        -51.0168  -31.2803    6.8097 C.ar      14 UNK        -0.0844 
     10 C10       -49.7187  -31.3593    7.3228 C.ar      14 UNK        -0.0881 
     11 C11       -49.5016  -31.4000    8.7044 C.ar      14 UNK        -0.0643 
     12 C12       -50.5976  -31.3829    9.5725 C.ar      14 UNK        -0.0930 
     13 C13       -51.9010  -31.3117    9.0715 C.ar      14 UNK        -0.0827 
     14 C14       -52.1030  -31.2527    7.6893 C.ar      14 UNK        -0.1249 
     15 C15       -53.0914  -31.3285   10.0196 C.3       14 UNK         0.0141 
     16 S16       -53.1253  -29.8574   11.0838 S.3       14 UNK        -0.2313 
     17 C17       -54.8105  -29.9798   11.7691 C.3       14 UNK        -0.0915 
     18 CA        -55.2117  -28.7826   12.6749 C.3       13 UNK         0.0968 
     19 C         -54.6138  -28.8650   14.1124 C.2       13 UNK         0.5732 
     20 N         -54.0702  -27.7940   14.6818 N.am      13 UNK        -0.7310 
     21 O         -54.6675  -29.9197   14.7406 O.2       13 UNK        -0.5035 
     22 N         -54.9667  -27.5011   12.0011 N.am      13 UNK        -0.4233 
     23 C         -55.7223  -26.4082   12.1217 C.2       13 UNK         0.4989 
     24 O         -56.8090  -26.3701   12.7026 O.2       13 UNK        -0.4996 
     25 CA        -55.1534  -25.1324   11.4805 C.3       12 UNK         0.0216 
     26 CB        -55.8649  -24.8235   10.1535 C.3       12 UNK        -0.1964 
     27 N         -55.2558  -23.9762   12.3733 N.am      12 UNK        -0.4276 
     28 C         -54.6980  -23.8954   13.5885 C.2       12 UNK         0.5020 
     29 O         -54.0075  -24.7857   14.0952 O.2       12 UNK        -0.5489 
     30 CA        -54.9612  -22.6018   14.3651 C.3       11 UNK         0.0294 
     31 CB        -56.3874  -22.5794   14.9423 C.3       11 UNK        -0.2019 
     32 N         -53.9930  -22.5036   15.4514 N.am      11 UNK        -0.4493 
     33 C         -53.5128  -21.3689   15.9718 C.2       11 UNK         0.4932 
     34 O         -53.8578  -20.2492   15.5911 O.2       11 UNK        -0.5029 
     35 CA        -52.4930  -21.4817   17.1231 C.3       10 UNK         0.0280 
     36 CB        -53.1243  -21.0104   18.4450 C.3       10 UNK        -0.1976 
     37 N         -51.9533  -22.8322   17.3131 N.am      10 UNK        -0.4242 
     38 C         -51.0311  -23.4045   16.5291 C.2       10 UNK         0.5072 
     39 O         -50.5202  -22.8489   15.5539 O.2       10 UNK        -0.5224 
     40 CA        -50.6430  -24.8417   16.9034 C.3       9 UNK         0.0343 
     41 CB        -51.7638  -25.8251   16.5250 C.3       9 UNK        -0.2003 
     42 N         -49.4355  -25.2451   16.1916 N.am      9 UNK        -0.4272 
     43 C         -48.3087  -25.7051   16.7453 C.2       9 UNK         0.4988 
     44 O         -48.1144  -25.7809   17.9605 O.2       9 UNK        -0.5108 
     45 CA        -47.2412  -26.1990   15.7503 C.3       8 UNK         0.0248 
     46 CB        -46.0003  -26.8185   16.4276 C.3       8 UNK        -0.2001 
     47 N         -47.8282  -27.1135   14.7634 N.am      8 UNK        -0.4140 
     48 C         -48.4163  -28.2994   14.9863 C.2       8 UNK         0.5028 
     49 O         -48.4224  -28.8785   16.0734 O.2       8 UNK        -0.5428 
     50 CA        -49.1584  -28.9437   13.8009 C.3       7 UNK         0.0264 
     51 CB        -50.6686  -28.6921   13.9363 C.3       7 UNK        -0.1988 
     52 N         -48.7104  -28.4577   12.4925 N.am      7 UNK        -0.4454 
     53 C         -47.5400  -28.7807   11.9220 C.2       7 UNK         0.5027 
     54 O         -46.7442  -29.5854   12.4087 O.2       7 UNK        -0.5083 
     55 CA        -47.1769  -28.0466   10.6133 C.3       6 UNK         0.0844 
     56 C56       -47.8947  -28.6552    9.3834 C.3       14 UNK        -0.0967 
     57 S57       -47.0262  -30.1075    8.7058 S.3       14 UNK        -0.2604 
     58 C58       -48.0869  -31.4795    9.2651 C.3       14 UNK         0.0134 
     59 N         -47.4184  -26.6062   10.7115 N.am      6 UNK        -0.4116 
     60 C         -46.8047  -25.7611   11.5505 C.2       5 UNK         0.5034 
     61 O         -45.9129  -26.0871   12.3327 O.2       5 UNK        -0.5045 
     62 CA        -47.2966  -24.3056   11.5367 C.3       5 UNK         0.0224 
     63 CB        -46.5717  -23.4947   10.4504 C.3       5 UNK        -0.1978 
     64 N         -48.7447  -24.2135   11.3355 N.am      5 UNK        -0.4737 
     65 C         -49.6566  -24.5598   12.2538 C.2       4 UNK         0.5027 
     66 O         -49.3698  -24.9735   13.3757 O.2       4 UNK        -0.5211 
     67 CA        -51.1311  -24.4738   11.8263 C.3       4 UNK         0.0297 
     68 CB        -51.6148  -23.0148   11.8476 C.3       4 UNK        -0.1993 
     69 N         -51.3726  -25.0571   10.5022 N.am      4 UNK        -0.4486 
     70 C         -51.1864  -26.3512   10.2057 C.2       3 UNK         0.4961 
     71 O         -50.7925  -27.1883   11.0152 O.2       3 UNK        -0.5105 
     72 CA        -51.4431  -26.7812    8.7518 C.3       3 UNK         0.0299 
     73 CB        -52.9471  -26.9723    8.4984 C.3       3 UNK        -0.1972 
     74 N         -50.8972  -25.8919    7.7200 N.am      3 UNK        -0.4305 
     75 C         -49.6630  -25.3724    7.6656 C.2       2 UNK         0.5006 
     76 O         -48.8375  -25.4505    8.5745 O.2       2 UNK        -0.5106 
     77 CA        -49.2657  -24.7200    6.3307 C.3       2 UNK         0.0296 
     78 CB        -47.9953  -23.8575    6.4514 C.3       2 UNK        -0.2002 
     79 N         -49.0408  -25.7668    5.3328 N.am      2 UNK        -0.4032 
     80 C         -50.0114  -26.4325    4.6897 C.2       1 UNK         0.5000 
     81 O         -51.2023  -26.1233    4.7634 O.2       1 UNK        -0.5238 
     82 H82       -48.2976  -25.2681    0.7928 H         1 UNK         0.0889 
     83 H83       -49.1123  -24.9544    2.3190 H         1 UNK         0.0889 
     84 H84       -49.6410  -26.2885    1.2765 H         1 UNK         0.0889 
     85 H85       -47.5367  -28.1285    3.7316 H         1 UNK         0.3028 
     86 H86       -50.2601  -27.6939    2.9784 H         1 UNK         0.0864 
     87 H87       -49.1493  -29.7546    4.1706 H         1 UNK         0.0720 
     88 H88       -49.3643  -28.8694    5.6568 H         1 UNK         0.0720 
     89 H89       -50.4378  -31.7479    4.7768 H         1 UNK         0.0814 
     90 H90       -52.1522  -31.8276    5.0722 H         1 UNK         0.0814 
     91 H91       -48.8735  -31.3832    6.6486 H         1 UNK         0.1469 
     92 H92       -50.4415  -31.4231   10.6420 H         1 UNK         0.1381 
     93 H93       -53.1078  -31.1969    7.2931 H         1 UNK         0.1206 
     94 H94       -53.0485  -32.2223   10.6427 H         1 UNK         0.0813 
     95 H95       -54.0243  -31.3863    9.4576 H         1 UNK         0.0813 
     96 H96       -55.5043  -30.0316   10.9287 H         1 UNK         0.0638 
     97 H97       -54.9150  -30.9298   12.2960 H         1 UNK         0.0638 
     98 H98       -56.2878  -28.8749   12.8318 H         1 UNK         0.0568 
     99 H99       -54.0602  -26.8906   14.2239 H         1 UNK         0.3450 
    100 H100      -53.7071  -27.8803   15.6159 H         1 UNK         0.3450 
    101 H101      -54.0783  -27.4434   11.5263 H         1 UNK         0.2987 
    102 H102      -54.0934  -25.2878   11.2732 H         1 UNK         0.0766 
    103 H103      -55.4118  -23.9705    9.6478 H         1 UNK         0.0798 
    104 H104      -56.9224  -24.6032   10.3054 H         1 UNK         0.0798 
    105 H105      -55.8066  -25.6724    9.4709 H         1 UNK         0.0798 
    106 H106      -55.8361  -23.2137   12.0551 H         1 UNK         0.3198 
    107 H107      -54.8266  -21.7625   13.6799 H         1 UNK         0.0843 
    108 H108      -56.5787  -21.6574   15.4909 H         1 UNK         0.0831 
    109 H109      -56.5569  -23.4141   15.6228 H         1 UNK         0.0831 
    110 H110      -57.1361  -22.6457   14.1522 H         1 UNK         0.0831 
    111 H111      -53.6098  -23.3941   15.7433 H         1 UNK         0.3133 
    112 H112      -51.6638  -20.8109   16.8866 H         1 UNK         0.0566 
    113 H113      -52.3973  -21.0150   19.2574 H         1 UNK         0.0814 
    114 H114      -53.5003  -19.9899   18.3579 H         1 UNK         0.0814 
    115 H115      -53.9640  -21.6415   18.7395 H         1 UNK         0.0814 
    116 H116      -52.3240  -23.3595   18.0912 H         1 UNK         0.3091 
    117 H117      -50.4826  -24.8784   17.9829 H         1 UNK         0.0702 
    118 H118      -51.5042  -26.8449   16.8104 H         1 UNK         0.0785 
    119 H119      -51.9480  -25.8202   15.4498 H         1 UNK         0.0785 
    120 H120      -52.7030  -25.5789   17.0213 H         1 UNK         0.0785 
    121 H121      -49.4696  -25.1307   15.1778 H         1 UNK         0.2998 
    122 H122      -46.9091  -25.3221   15.1924 H         1 UNK         0.0697 
    123 H123      -46.2587  -27.6775   17.0473 H         1 UNK         0.0825 
    124 H124      -45.5070  -26.0909   17.0730 H         1 UNK         0.0825 
    125 H125      -45.2693  -27.1453   15.6879 H         1 UNK         0.0825 
    126 H126      -47.9418  -26.7190   13.8389 H         1 UNK         0.3029 
    127 H127      -48.9828  -30.0206   13.8479 H         1 UNK         0.0897 
    128 H128      -51.2251  -29.2182   13.1630 H         1 UNK         0.0792 
    129 H129      -51.0444  -29.0425   14.8985 H         1 UNK         0.0792 
    130 H130      -50.9102  -27.6310   13.8575 H         1 UNK         0.0792 
    131 H131      -49.3534  -27.8421   11.9954 H         1 UNK         0.3086 
    132 H132      -46.0995  -28.1554   10.4697 H         1 UNK         0.0583 
    133 H133      -48.9410  -28.8805    9.5972 H         1 UNK         0.1020 
    134 H134      -47.9203  -27.9289    8.5704 H         1 UNK         0.1020 
    135 H135      -47.6367  -32.4221    8.9515 H         1 UNK         0.0694 
    136 H136      -48.0982  -31.4919   10.3561 H         1 UNK         0.0694 
    137 H137      -48.0973  -26.2144   10.0622 H         1 UNK         0.2989 
    138 H138      -47.0583  -23.8671   12.5086 H         1 UNK         0.1055 
    139 H139      -45.4915  -23.5230   10.5999 H         1 UNK         0.0806 
    140 H140      -46.8732  -22.4473   10.4697 H         1 UNK         0.0806 
    141 H141      -46.7718  -23.8833    9.4513 H         1 UNK         0.0806 
    142 H142      -49.0610  -23.9735   10.4060 H         1 UNK         0.3061 
    143 H143      -51.7189  -25.0402   12.5522 H         1 UNK         0.0734 
    144 H144      -52.6610  -22.9349   11.5554 H         1 UNK         0.0832 
    145 H145      -51.5260  -22.5958   12.8513 H         1 UNK         0.0832 
    146 H146      -51.0327  -22.3819   11.1769 H         1 UNK         0.0832 
    147 H147      -51.6668  -24.4323    9.7659 H         1 UNK         0.3156 
    148 H148      -50.9591  -27.7507    8.6166 H         1 UNK         0.0589 
    149 H149      -53.4828  -26.0229    8.5121 H         1 UNK         0.0808 
    150 H150      -53.1256  -27.4446    7.5318 H         1 UNK         0.0808 
    151 H151      -53.3994  -27.6148    9.2528 H         1 UNK         0.0808 
    152 H152      -51.4511  -25.8114    6.8744 H         1 UNK         0.3098 
    153 H153      -50.0843  -24.0731    6.0076 H         1 UNK         0.0720 
    154 H154      -47.7558  -23.3715    5.5055 H         1 UNK         0.0791 
    155 H155      -47.1287  -24.4475    6.7532 H         1 UNK         0.0791 
    156 H156      -48.1283  -23.0707    7.1952 H         1 UNK         0.0791 
    157 H157      -48.0903  -26.0914    5.2273 H         1 UNK         0.3028 
@<TRIPOS>BOND
     1    1    2 1    
     2    1   82 1    
     3    1   83 1    
     4    1   84 1    
     5    2    3 2    
     6    2    4 am   BACKBONE|DICT|INTERRES
     7    4    5 1    
     8    4   85 1    
     9    5    6 1    
    10    5   80 1    
    11    5   86 1    
    12    6    7 1    
    13    6   87 1    
    14    6   88 1    
    15    7    8 1    
    16    8    9 1    
    17    8   89 1    
    18    8   90 1    
    19    9   10 ar   
    20    9   14 ar   
    21   10   11 ar   
    22   10   91 1    
    23   11   12 ar   
    24   11   58 1    
    25   12   13 ar   
    26   12   92 1    
    27   13   14 ar   
    28   13   15 1    
    29   14   93 1    
    30   15   16 1    
    31   15   94 1    
    32   15   95 1    
    33   16   17 1    
    34   17   18 1    
    35   17   96 1    
    36   17   97 1    
    37   18   19 1    
    38   18   22 1    
    39   18   98 1    
    40   19   20 am   BACKBONE|DICT|INTERRES
    41   19   21 2    
    42   20   99 1    
    43   20  100 1    
    44   22   23 am   BACKBONE|DICT|INTERRES
    45   22  101 1    
    46   23   24 2    
    47   23   25 1    
    48   25   26 1    
    49   25   27 1    
    50   25  102 1    
    51   26  103 1    
    52   26  104 1    
    53   26  105 1    
    54   27   28 am   BACKBONE|DICT|INTERRES
    55   27  106 1    
    56   28   29 2    
    57   28   30 1    
    58   30   31 1    
    59   30   32 1    
    60   30  107 1    
    61   31  108 1    
    62   31  109 1    
    63   31  110 1    
    64   32   33 am   BACKBONE|DICT|INTERRES
    65   32  111 1    
    66   33   34 2    
    67   33   35 1    
    68   35   36 1    
    69   35   37 1    
    70   35  112 1    
    71   36  113 1    
    72   36  114 1    
    73   36  115 1    
    74   37   38 am   BACKBONE|DICT|INTERRES
    75   37  116 1    
    76   38   39 2    
    77   38   40 1    
    78   40   41 1    
    79   40   42 1    
    80   40  117 1    
    81   41  118 1    
    82   41  119 1    
    83   41  120 1    
    84   42   43 am   BACKBONE|DICT|INTERRES
    85   42  121 1    
    86   43   44 2    
    87   43   45 1    
    88   45   46 1    
    89   45   47 1    
    90   45  122 1    
    91   46  123 1    
    92   46  124 1    
    93   46  125 1    
    94   47   48 am   BACKBONE|DICT|INTERRES
    95   47  126 1    
    96   48   49 2    
    97   48   50 1    
    98   50   51 1    
    99   50   52 1    
   100   50  127 1    
   101   51  128 1    
   102   51  129 1    
   103   51  130 1    
   104   52   53 am   BACKBONE|DICT|INTERRES
   105   52  131 1    
   106   53   54 2    
   107   53   55 1    
   108   55   56 1    
   109   55   59 1    
   110   55  132 1    
   111   56   57 1    
   112   56  133 1    
   113   56  134 1    
   114   57   58 1    
   115   58  135 1    
   116   58  136 1    
   117   59   60 am   BACKBONE|DICT|INTERRES
   118   59  137 1    
   119   60   61 2    
   120   60   62 1    
   121   62   63 1    
   122   62   64 1    
   123   62  138 1    
   124   63  139 1    
   125   63  140 1    
   126   63  141 1    
   127   64   65 am   BACKBONE|DICT|INTERRES
   128   64  142 1    
   129   65   66 2    
   130   65   67 1    
   131   67   68 1    
   132   67   69 1    
   133   67  143 1    
   134   68  144 1    
   135   68  145 1    
   136   68  146 1    
   137   69   70 am   BACKBONE|DICT|INTERRES
   138   69  147 1    
   139   70   71 2    
   140   70   72 1    
   141   72   73 1    
   142   72   74 1    
   143   72  148 1    
   144   73  149 1    
   145   73  150 1    
   146   73  151 1    
   147   74   75 am   BACKBONE|DICT|INTERRES
   148   74  152 1    
   149   75   76 2    
   150   75   77 1    
   151   77   78 1    
   152   77   79 1    
   153   77  153 1    
   154   78  154 1    
   155   78  155 1    
   156   78  156 1    
   157   79   80 am   BACKBONE|DICT|INTERRES
   158   79  157 1    
   159   80   81 2    
@<TRIPOS>SUBSTRUCTURE
     1 UNK         1 GROUP             0       ****    0 ROOT    
