@<TRIPOS>MOLECULE
3R207
157   159    1
SMALL
USER_CHARGES


@<TRIPOS>ATOM
      1 CA        -51.4485  -28.9087    1.2315 C.3       0 UNK        -0.1975 
      2 C         -50.5848  -28.8619    2.4829 C.2       0 UNK         0.4852 
      3 O         -49.3741  -29.0739    2.3950 O.2       0 UNK        -0.5216 
      4 N         -51.1967  -28.5714    3.6405 N.am      1 UNK        -0.4461 
      5 CA        -50.6098  -28.4911    4.9895 C.3       1 UNK         0.0864 
      6 C6        -49.9454  -29.8115    5.4722 C.3       14 UNK        -0.0898 
      7 S7        -51.1420  -31.1897    5.5732 S.3       14 UNK        -0.2598 
      8 C8        -51.4797  -31.2876    7.3634 C.3       14 UNK         0.0286 
      9 C9        -52.1854  -30.0390    7.8721 C.ar      14 UNK        -0.0844 
     10 C10       -51.4396  -28.9826    8.3994 C.ar      14 UNK        -0.0881 
     11 C11       -52.0618  -27.7979    8.8110 C.ar      14 UNK        -0.0643 
     12 C12       -53.4500  -27.6905    8.6947 C.ar      14 UNK        -0.0930 
     13 C13       -54.2165  -28.7603    8.2231 C.ar      14 UNK        -0.0827 
     14 C14       -53.5767  -29.9308    7.8041 C.ar      14 UNK        -0.1249 
     15 C15       -55.7330  -28.6501    8.1552 C.3       14 UNK         0.0141 
     16 S16       -56.5062  -28.9476    9.7803 S.3       14 UNK        -0.2313 
     17 C17       -56.3756  -27.3073   10.5736 C.3       14 UNK        -0.0915 
     18 CA        -55.2807  -27.2363   11.6788 C.3       13 UNK         0.0968 
     19 C         -55.0078  -25.7720   12.1367 C.2       13 UNK         0.5732 
     20 N         -54.9556  -25.4670   13.4277 N.am      13 UNK        -0.7310 
     21 O         -54.7965  -24.8981   11.3001 O.2       13 UNK        -0.5035 
     22 N         -55.4725  -28.2070   12.7676 N.am      13 UNK        -0.4233 
     23 C         -56.4973  -28.3022   13.6206 C.2       13 UNK         0.4989 
     24 O         -57.5052  -27.5972   13.5768 O.2       13 UNK        -0.4996 
     25 CA        -56.3462  -29.3255   14.7613 C.3       12 UNK         0.0216 
     26 CB        -56.6114  -30.7626   14.2703 C.3       12 UNK        -0.1964 
     27 N         -55.0669  -29.2120   15.4820 N.am      12 UNK        -0.4276 
     28 C         -53.8241  -29.4698   15.0489 C.2       12 UNK         0.5020 
     29 O         -53.5639  -29.9106   13.9274 O.2       12 UNK        -0.5489 
     30 CA        -52.6848  -29.0866   16.0082 C.3       11 UNK         0.0294 
     31 CB        -51.3185  -29.6311   15.5515 C.3       11 UNK        -0.2019 
     32 N         -52.5915  -27.6317   16.1307 N.am      11 UNK        -0.4493 
     33 C         -53.3777  -26.8599   16.8921 C.2       11 UNK         0.4932 
     34 O         -54.3007  -27.3037   17.5789 O.2       11 UNK        -0.5029 
     35 CA        -53.0787  -25.3482   16.8642 C.3       10 UNK         0.0280 
     36 CB        -53.8528  -24.5537   17.9366 C.3       10 UNK        -0.1976 
     37 N         -51.6405  -25.0666   16.9302 N.am      10 UNK        -0.4242 
     38 C         -50.7852  -25.3943   17.9118 C.2       10 UNK         0.5072 
     39 O         -51.1224  -25.9177   18.9747 O.2       10 UNK        -0.5224 
     40 CA        -49.2886  -25.1265   17.6640 C.3       9 UNK         0.0343 
     41 CB        -48.5516  -26.4558   17.4283 C.3       9 UNK        -0.2003 
     42 N         -49.0318  -24.2364   16.5284 N.am      9 UNK        -0.4272 
     43 C         -49.1873  -22.9051   16.5476 C.2       9 UNK         0.4988 
     44 O         -49.5066  -22.2665   17.5508 O.2       9 UNK        -0.5108 
     45 CA        -48.9827  -22.1648   15.2129 C.3       8 UNK         0.0248 
     46 CB        -47.4877  -21.9383   14.9391 C.3       8 UNK        -0.2001 
     47 N         -49.5994  -22.8544   14.0739 N.am      8 UNK        -0.4140 
     48 C         -50.9166  -23.0757   13.9429 C.2       8 UNK         0.5028 
     49 O         -51.7616  -22.7027   14.7559 O.2       8 UNK        -0.5428 
     50 CA        -51.3689  -23.8892   12.7241 C.3       7 UNK         0.0264 
     51 CB        -51.5301  -22.9935   11.4860 C.3       7 UNK        -0.1988 
     52 N         -50.4453  -24.9810   12.4282 N.am      7 UNK        -0.4454 
     53 C         -50.3676  -26.1191   13.1308 C.2       7 UNK         0.5027 
     54 O         -51.0670  -26.3673   14.1137 O.2       7 UNK        -0.5083 
     55 CA        -49.3103  -27.1428   12.6684 C.3       6 UNK         0.0844 
     56 C56       -49.7846  -27.9050   11.4016 C.3       14 UNK        -0.0967 
     57 S57       -49.5583  -26.9510    9.8504 S.3       14 UNK        -0.2604 
     58 C58       -51.2798  -26.6014    9.3534 C.3       14 UNK         0.0134 
     59 N         -47.9929  -26.5420   12.4541 N.am      6 UNK        -0.4116 
     60 C         -47.2890  -25.7861   13.3042 C.2       5 UNK         0.5034 
     61 O         -47.6024  -25.5804   14.4745 O.2       5 UNK        -0.5045 
     62 CA        -46.0566  -25.0815   12.7111 C.3       5 UNK         0.0224 
     63 CB        -44.8048  -25.9566   12.8753 C.3       5 UNK        -0.1978 
     64 N         -46.2192  -24.7247   11.2959 N.am      5 UNK        -0.4737 
     65 C         -47.1763  -23.9370   10.7886 C.2       4 UNK         0.5027 
     66 O         -48.0330  -23.3876   11.4829 O.2       4 UNK        -0.5211 
     67 CA        -47.2272  -23.7666    9.2577 C.3       4 UNK         0.0297 
     68 CB        -46.3349  -22.5947    8.8084 C.3       4 UNK        -0.1993 
     69 N         -46.9493  -24.9847    8.4746 N.am      4 UNK        -0.4486 
     70 C         -45.8096  -25.6873    8.3724 C.2       3 UNK         0.4961 
     71 O         -44.7806  -25.4232    8.9950 O.2       3 UNK        -0.5105 
     72 CA        -45.8137  -26.9098    7.4353 C.3       3 UNK         0.0299 
     73 CB        -46.1024  -28.1937    8.2304 C.3       3 UNK        -0.1972 
     74 N         -46.7580  -26.8115    6.3180 N.am      3 UNK        -0.4305 
     75 C         -46.6800  -25.9298    5.3105 C.2       2 UNK         0.5006 
     76 O         -45.7844  -25.0884    5.2224 O.2       2 UNK        -0.5106 
     77 CA        -47.7564  -25.9873    4.2031 C.3       2 UNK         0.0296 
     78 CB        -47.1134  -25.9922    2.8042 C.3       2 UNK        -0.2002 
     79 N         -48.6898  -27.1171    4.2832 N.am      2 UNK        -0.4032 
     80 C         -49.6721  -27.2780    5.1775 C.2       1 UNK         0.5000 
     81 O         -49.8531  -26.5085    6.1209 O.2       1 UNK        -0.5238 
     82 H82       -51.0990  -28.1737    0.5070 H         1 UNK         0.0889 
     83 H83       -52.4957  -28.6997    1.4494 H         1 UNK         0.0889 
     84 H84       -51.3883  -29.8952    0.7727 H         1 UNK         0.0889 
     85 H85       -52.1905  -28.3889    3.6162 H         1 UNK         0.3028 
     86 H86       -51.4592  -28.2985    5.6467 H         1 UNK         0.0864 
     87 H87       -49.4697  -29.6814    6.4445 H         1 UNK         0.0720 
     88 H88       -49.1416  -30.1112    4.7986 H         1 UNK         0.0720 
     89 H89       -50.5460  -31.4503    7.9041 H         1 UNK         0.0814 
     90 H90       -52.0987  -32.1647    7.5582 H         1 UNK         0.0814 
     91 H91       -50.3667  -29.0832    8.4588 H         1 UNK         0.1469 
     92 H92       -53.9380  -26.7723    8.9907 H         1 UNK         0.1381 
     93 H93       -54.1591  -30.7542    7.4135 H         1 UNK         0.1206 
     94 H94       -56.1270  -29.3826    7.4491 H         1 UNK         0.0813 
     95 H95       -56.0267  -27.6746    7.7650 H         1 UNK         0.0813 
     96 H96       -57.3519  -27.0552   10.9891 H         1 UNK         0.0638 
     97 H97       -56.1929  -26.5611    9.7993 H         1 UNK         0.0638 
     98 H98       -54.3388  -27.5451   11.2294 H         1 UNK         0.0568 
     99 H99       -54.7832  -24.5124   13.6974 H         1 UNK         0.3450 
    100 H100      -55.1539  -26.1669   14.1217 H         1 UNK         0.3450 
    101 H101      -54.6889  -28.8347   12.9366 H         1 UNK         0.2987 
    102 H102      -57.1165  -29.0884   15.4971 H         1 UNK         0.0766 
    103 H103      -56.5569  -31.4779   15.0908 H         1 UNK         0.0798 
    104 H104      -55.9001  -31.0753   13.5053 H         1 UNK         0.0798 
    105 H105      -57.6078  -30.8443   13.8341 H         1 UNK         0.0798 
    106 H106      -55.1274  -28.7627   16.3919 H         1 UNK         0.3198 
    107 H107      -52.9088  -29.5172   16.9868 H         1 UNK         0.0843 
    108 H108      -51.0311  -29.2350   14.5769 H         1 UNK         0.0831 
    109 H109      -51.3409  -30.7184   15.4675 H         1 UNK         0.0831 
    110 H110      -50.5320  -29.3757   16.2617 H         1 UNK         0.0831 
    111 H111      -51.9243  -27.1702   15.5129 H         1 UNK         0.3133 
    112 H112      -53.4080  -24.9897   15.8884 H         1 UNK         0.0566 
    113 H113      -53.6291  -23.4885   17.8770 H         1 UNK         0.0814 
    114 H114      -54.9294  -24.6664   17.8037 H         1 UNK         0.0814 
    115 H115      -53.6138  -24.8917   18.9453 H         1 UNK         0.0814 
    116 H116      -51.2504  -24.6382   16.1014 H         1 UNK         0.3091 
    117 H117      -48.8828  -24.6646   18.5665 H         1 UNK         0.0702 
    118 H118      -47.4810  -26.2982   17.2963 H         1 UNK         0.0785 
    119 H119      -48.9259  -26.9701   16.5417 H         1 UNK         0.0785 
    120 H120      -48.6780  -27.1312   18.2756 H         1 UNK         0.0785 
    121 H121      -48.6881  -24.6799   15.6786 H         1 UNK         0.2998 
    122 H122      -49.4626  -21.1876   15.2982 H         1 UNK         0.0697 
    123 H123      -46.9355  -22.8771   14.9161 H         1 UNK         0.0825 
    124 H124      -47.0410  -21.3211   15.7196 H         1 UNK         0.0825 
    125 H125      -47.3269  -21.4280   13.9891 H         1 UNK         0.0825 
    126 H126      -48.9841  -23.1663   13.3293 H         1 UNK         0.3029 
    127 H127      -52.3445  -24.3202   12.9570 H         1 UNK         0.0897 
    128 H128      -51.9161  -23.5588   10.6375 H         1 UNK         0.0792 
    129 H129      -50.5865  -22.5367   11.1857 H         1 UNK         0.0792 
    130 H130      -52.2364  -22.1857   11.6819 H         1 UNK         0.0792 
    131 H131      -49.7872  -24.8294   11.6747 H         1 UNK         0.3086 
    132 H132      -49.1977  -27.8666   13.4777 H         1 UNK         0.0583 
    133 H133      -49.2041  -28.8233   11.3015 H         1 UNK         0.1020 
    134 H134      -50.8216  -28.2346   11.5001 H         1 UNK         0.1020 
    135 H135      -51.8122  -26.1697   10.2022 H         1 UNK         0.0694 
    136 H136      -51.2566  -25.8333    8.5793 H         1 UNK         0.0694 
    137 H137      -47.6445  -26.6139   11.5094 H         1 UNK         0.2989 
    138 H138      -45.9052  -24.1556   13.2674 H         1 UNK         0.1055 
    139 H139      -44.6485  -26.2225   13.9219 H         1 UNK         0.0806 
    140 H140      -43.9094  -25.4342   12.5379 H         1 UNK         0.0806 
    141 H141      -44.8834  -26.8859   12.3094 H         1 UNK         0.0806 
    142 H142      -45.5421  -25.1013   10.6349 H         1 UNK         0.3061 
    143 H143      -48.2578  -23.5001    9.0172 H         1 UNK         0.0734 
    144 H144      -46.4265  -22.4153    7.7371 H         1 UNK         0.0832 
    145 H145      -46.6192  -21.6728    9.3177 H         1 UNK         0.0832 
    146 H146      -45.2823  -22.7741    9.0292 H         1 UNK         0.0832 
    147 H147      -47.7403  -25.3386    7.9523 H         1 UNK         0.3156 
    148 H148      -44.8106  -26.9933    7.0117 H         1 UNK         0.0589 
    149 H149      -47.1116  -28.1985    8.6425 H         1 UNK         0.0808 
    150 H150      -45.9916  -29.0803    7.6058 H         1 UNK         0.0808 
    151 H151      -45.4090  -28.3010    9.0659 H         1 UNK         0.0808 
    152 H152      -47.5414  -27.4470    6.3254 H         1 UNK         0.3098 
    153 H153      -48.3422  -25.0708    4.2984 H         1 UNK         0.0720 
    154 H154      -47.8700  -25.9631    2.0196 H         1 UNK         0.0791 
    155 H155      -46.5023  -26.8819    2.6472 H         1 UNK         0.0791 
    156 H156      -46.4700  -25.1233    2.6591 H         1 UNK         0.0791 
    157 H157      -48.6427  -27.8072    3.5357 H         1 UNK         0.3028 
@<TRIPOS>BOND
     1    1    2 1    
     2    1   82 1    
     3    1   83 1    
     4    1   84 1    
     5    2    3 2    
     6    2    4 am   BACKBONE|DICT|INTERRES
     7    4    5 1    
     8    4   85 1    
     9    5    6 1    
    10    5   80 1    
    11    5   86 1    
    12    6    7 1    
    13    6   87 1    
    14    6   88 1    
    15    7    8 1    
    16    8    9 1    
    17    8   89 1    
    18    8   90 1    
    19    9   10 ar   
    20    9   14 ar   
    21   10   11 ar   
    22   10   91 1    
    23   11   12 ar   
    24   11   58 1    
    25   12   13 ar   
    26   12   92 1    
    27   13   14 ar   
    28   13   15 1    
    29   14   93 1    
    30   15   16 1    
    31   15   94 1    
    32   15   95 1    
    33   16   17 1    
    34   17   18 1    
    35   17   96 1    
    36   17   97 1    
    37   18   19 1    
    38   18   22 1    
    39   18   98 1    
    40   19   20 am   BACKBONE|DICT|INTERRES
    41   19   21 2    
    42   20   99 1    
    43   20  100 1    
    44   22   23 am   BACKBONE|DICT|INTERRES
    45   22  101 1    
    46   23   24 2    
    47   23   25 1    
    48   25   26 1    
    49   25   27 1    
    50   25  102 1    
    51   26  103 1    
    52   26  104 1    
    53   26  105 1    
    54   27   28 am   BACKBONE|DICT|INTERRES
    55   27  106 1    
    56   28   29 2    
    57   28   30 1    
    58   30   31 1    
    59   30   32 1    
    60   30  107 1    
    61   31  108 1    
    62   31  109 1    
    63   31  110 1    
    64   32   33 am   BACKBONE|DICT|INTERRES
    65   32  111 1    
    66   33   34 2    
    67   33   35 1    
    68   35   36 1    
    69   35   37 1    
    70   35  112 1    
    71   36  113 1    
    72   36  114 1    
    73   36  115 1    
    74   37   38 am   BACKBONE|DICT|INTERRES
    75   37  116 1    
    76   38   39 2    
    77   38   40 1    
    78   40   41 1    
    79   40   42 1    
    80   40  117 1    
    81   41  118 1    
    82   41  119 1    
    83   41  120 1    
    84   42   43 am   BACKBONE|DICT|INTERRES
    85   42  121 1    
    86   43   44 2    
    87   43   45 1    
    88   45   46 1    
    89   45   47 1    
    90   45  122 1    
    91   46  123 1    
    92   46  124 1    
    93   46  125 1    
    94   47   48 am   BACKBONE|DICT|INTERRES
    95   47  126 1    
    96   48   49 2    
    97   48   50 1    
    98   50   51 1    
    99   50   52 1    
   100   50  127 1    
   101   51  128 1    
   102   51  129 1    
   103   51  130 1    
   104   52   53 am   BACKBONE|DICT|INTERRES
   105   52  131 1    
   106   53   54 2    
   107   53   55 1    
   108   55   56 1    
   109   55   59 1    
   110   55  132 1    
   111   56   57 1    
   112   56  133 1    
   113   56  134 1    
   114   57   58 1    
   115   58  135 1    
   116   58  136 1    
   117   59   60 am   BACKBONE|DICT|INTERRES
   118   59  137 1    
   119   60   61 2    
   120   60   62 1    
   121   62   63 1    
   122   62   64 1    
   123   62  138 1    
   124   63  139 1    
   125   63  140 1    
   126   63  141 1    
   127   64   65 am   BACKBONE|DICT|INTERRES
   128   64  142 1    
   129   65   66 2    
   130   65   67 1    
   131   67   68 1    
   132   67   69 1    
   133   67  143 1    
   134   68  144 1    
   135   68  145 1    
   136   68  146 1    
   137   69   70 am   BACKBONE|DICT|INTERRES
   138   69  147 1    
   139   70   71 2    
   140   70   72 1    
   141   72   73 1    
   142   72   74 1    
   143   72  148 1    
   144   73  149 1    
   145   73  150 1    
   146   73  151 1    
   147   74   75 am   BACKBONE|DICT|INTERRES
   148   74  152 1    
   149   75   76 2    
   150   75   77 1    
   151   77   78 1    
   152   77   79 1    
   153   77  153 1    
   154   78  154 1    
   155   78  155 1    
   156   78  156 1    
   157   79   80 am   BACKBONE|DICT|INTERRES
   158   79  157 1    
   159   80   81 2    
@<TRIPOS>SUBSTRUCTURE
     1 UNK         1 GROUP             0       ****    0 ROOT    
