@<TRIPOS>MOLECULE
3R207
157   159    1
SMALL
USER_CHARGES


@<TRIPOS>ATOM
      1 CA        -45.6150  -28.6412    6.4544 C.3       0 UNK        -0.1975 
      2 C         -46.7524  -27.6363    6.3594 C.2       0 UNK         0.4852 
      3 O         -46.5912  -26.4989    6.7993 O.2       0 UNK        -0.5216 
      4 N         -47.8847  -28.0426    5.7626 N.am      1 UNK        -0.4461 
      5 CA        -49.1527  -27.2992    5.6612 C.3       1 UNK         0.0864 
      6 C6        -49.9471  -27.3326    6.9977 C.3       14 UNK        -0.0898 
      7 S7        -51.7518  -27.4791    6.7565 S.3       14 UNK        -0.2598 
      8 C8        -52.0439  -29.2667    6.9774 C.3       14 UNK         0.0286 
      9 C9        -51.8167  -29.7317    8.4109 C.ar      14 UNK        -0.0844 
     10 C10       -50.6206  -30.3645    8.7600 C.ar      14 UNK        -0.0881 
     11 C11       -50.3935  -30.7884   10.0714 C.ar      14 UNK        -0.0643 
     12 C12       -51.3853  -30.5990   11.0370 C.ar      14 UNK        -0.0930 
     13 C13       -52.5954  -29.9824   10.6995 C.ar      14 UNK        -0.0827 
     14 C14       -52.8032  -29.5463    9.3856 C.ar      14 UNK        -0.1249 
     15 C15       -53.6533  -29.7498   11.7690 C.3       14 UNK         0.0141 
     16 S16       -55.2027  -30.6388   11.4318 S.3       14 UNK        -0.2313 
     17 C17       -56.1134  -30.3681   12.9915 C.3       14 UNK        -0.0915 
     18 CA        -57.0754  -29.1527   12.9303 C.3       13 UNK         0.0968 
     19 C         -58.0693  -29.1696   14.1218 C.2       13 UNK         0.5732 
     20 N         -59.2692  -29.6985   13.9237 N.am      13 UNK        -0.7310 
     21 O         -57.7469  -28.7536   15.2320 O.2       13 UNK        -0.5035 
     22 N         -56.3382  -27.8835   12.8549 N.am      13 UNK        -0.4233 
     23 C         -56.8608  -26.7288   12.4277 C.2       13 UNK         0.4989 
     24 O         -58.0270  -26.6042   12.0474 O.2       13 UNK        -0.4996 
     25 CA        -55.8969  -25.5278   12.3794 C.3       12 UNK         0.0216 
     26 CB        -56.5730  -24.2272   11.8939 C.3       12 UNK        -0.1964 
     27 N         -55.1751  -25.2981   13.6366 N.am      12 UNK        -0.4276 
     28 C         -55.6844  -24.9775   14.8352 C.2       12 UNK         0.5020 
     29 O         -56.8897  -24.9040   15.0821 O.2       12 UNK        -0.5489 
     30 CA        -54.6451  -24.6518   15.9263 C.3       11 UNK         0.0294 
     31 CB        -55.2715  -24.2526   17.2804 C.3       11 UNK        -0.2019 
     32 N         -53.6528  -25.7212   16.0798 N.am      11 UNK        -0.4493 
     33 C         -53.8492  -26.9630   16.5458 C.2       11 UNK         0.4932 
     34 O         -54.9179  -27.3709   16.9985 O.2       11 UNK        -0.5029 
     35 CA        -52.6588  -27.9382   16.4814 C.3       10 UNK         0.0280 
     36 CB        -52.8688  -28.9348   15.3331 C.3       10 UNK        -0.1976 
     37 N         -51.3574  -27.2855   16.3090 N.am      10 UNK        -0.4242 
     38 C         -50.6981  -26.6278   17.2738 C.2       10 UNK         0.5072 
     39 O         -51.1044  -26.5193   18.4314 O.2       10 UNK        -0.5224 
     40 CA        -49.3685  -25.9603   16.8753 C.3       9 UNK         0.0343 
     41 CB        -48.2309  -26.9926   16.8242 C.3       9 UNK        -0.2003 
     42 N         -49.4482  -25.2501   15.5959 N.am      9 UNK        -0.4272 
     43 C         -50.2227  -24.1780   15.3684 C.2       9 UNK         0.4988 
     44 O         -50.9202  -23.6361   16.2254 O.2       9 UNK        -0.5108 
     45 CA        -50.2630  -23.6490   13.9272 C.3       8 UNK         0.0248 
     46 CB        -49.0730  -22.7163   13.6467 C.3       8 UNK        -0.2001 
     47 N         -50.3015  -24.7434   12.9544 N.am      8 UNK        -0.4140 
     48 C         -51.3697  -25.5342   12.7726 C.2       8 UNK         0.5028 
     49 O         -52.4436  -25.3756   13.3519 O.2       8 UNK        -0.5428 
     50 CA        -51.2166  -26.7246   11.8187 C.3       7 UNK         0.0264 
     51 CB        -51.5726  -26.3104   10.3853 C.3       7 UNK        -0.1988 
     52 N         -49.8788  -27.3163   11.8635 N.am      7 UNK        -0.4454 
     53 C         -49.4116  -28.0122   12.9111 C.2       7 UNK         0.5027 
     54 O         -50.0851  -28.2478   13.9142 O.2       7 UNK        -0.5083 
     55 CA        -47.9369  -28.4670   12.8920 C.3       6 UNK         0.0844 
     56 C56       -47.7815  -29.9515   12.4722 C.3       14 UNK        -0.0967 
     57 S57       -47.7458  -30.2392   10.6650 S.3       14 UNK        -0.2604 
     58 C58       -49.0765  -31.4594   10.4262 C.3       14 UNK         0.0134 
     59 N         -47.0586  -27.5725   12.1360 N.am      6 UNK        -0.4116 
     60 C         -46.8603  -26.2734   12.3917 C.2       5 UNK         0.5034 
     61 O         -47.3563  -25.6852   13.3545 O.2       5 UNK        -0.5045 
     62 CA        -46.0199  -25.4808   11.3708 C.3       5 UNK         0.0224 
     63 CB        -45.1083  -26.3673   10.4910 C.3       5 UNK        -0.1978 
     64 N         -46.8486  -24.6245   10.5118 N.am      5 UNK        -0.4737 
     65 C         -47.9165  -24.9886    9.7869 C.2       4 UNK         0.5027 
     66 O         -48.3929  -26.1218    9.7901 O.2       4 UNK        -0.5211 
     67 CA        -48.5542  -23.9146    8.8905 C.3       4 UNK         0.0297 
     68 CB        -48.9590  -22.6441    9.6645 C.3       4 UNK        -0.1993 
     69 N         -47.7178  -23.6256    7.7234 N.am      4 UNK        -0.4486 
     70 C         -46.5005  -23.0612    7.6911 C.2       3 UNK         0.4961 
     71 O         -45.9672  -22.5312    8.6677 O.2       3 UNK        -0.5105 
     72 CA        -45.7264  -23.1174    6.3600 C.3       3 UNK         0.0299 
     73 CB        -44.3156  -23.6946    6.5758 C.3       3 UNK        -0.1972 
     74 N         -46.4135  -23.9424    5.3627 N.am      3 UNK        -0.4305 
     75 C         -47.0489  -23.4783    4.2776 C.2       2 UNK         0.5006 
     76 O         -47.0884  -22.2872    3.9667 O.2       2 UNK        -0.5106 
     77 CA        -47.7709  -24.5021    3.3768 C.3       2 UNK         0.0296 
     78 CB        -46.9165  -24.8178    2.1379 C.3       2 UNK        -0.2002 
     79 N         -48.1298  -25.7597    4.0417 N.am      2 UNK        -0.4032 
     80 C         -48.9867  -25.8769    5.0675 C.2       1 UNK         0.5000 
     81 O         -49.5754  -24.9132    5.5627 O.2       1 UNK        -0.5238 
     82 H82       -45.3661  -28.8213    7.4999 H         1 UNK         0.0889 
     83 H83       -44.7282  -28.2522    5.9548 H         1 UNK         0.0889 
     84 H84       -45.8728  -29.5963    5.9973 H         1 UNK         0.0889 
     85 H85       -47.9174  -28.9819    5.3903 H         1 UNK         0.3028 
     86 H86       -49.7298  -27.8500    4.9167 H         1 UNK         0.0864 
     87 H87       -49.6095  -28.1587    7.6206 H         1 UNK         0.0720 
     88 H88       -49.7509  -26.4487    7.6013 H         1 UNK         0.0720 
     89 H89       -51.4081  -29.8228    6.2867 H         1 UNK         0.0814 
     90 H90       -53.0713  -29.4906    6.6867 H         1 UNK         0.0814 
     91 H91       -49.8535  -30.5166    8.0131 H         1 UNK         0.1469 
     92 H92       -51.2093  -30.9238   12.0533 H         1 UNK         0.1381 
     93 H93       -53.7310  -29.0562    9.1236 H         1 UNK         0.1206 
     94 H94       -53.2753  -30.0652   12.7413 H         1 UNK         0.0813 
     95 H95       -53.8630  -28.6831   11.8356 H         1 UNK         0.0813 
     96 H96       -56.6769  -31.2840   13.1798 H         1 UNK         0.0638 
     97 H97       -55.4153  -30.2739   13.8243 H         1 UNK         0.0638 
     98 H98       -57.6616  -29.2448   12.0132 H         1 UNK         0.0568 
     99 H99       -59.5402  -30.0551   13.0205 H         1 UNK         0.3450 
    100 H100      -59.9209  -29.7334   14.6918 H         1 UNK         0.3450 
    101 H101      -55.4003  -27.8864   13.2212 H         1 UNK         0.2987 
    102 H102      -55.1350  -25.7866   11.6422 H         1 UNK         0.0766 
    103 H103      -57.3726  -23.9107   12.5646 H         1 UNK         0.0798 
    104 H104      -55.8546  -23.4109   11.8197 H         1 UNK         0.0798 
    105 H105      -57.0129  -24.3608   10.9048 H         1 UNK         0.0798 
    106 H106      -54.1548  -25.3309   13.5605 H         1 UNK         0.3198 
    107 H107      -54.0904  -23.7846   15.5636 H         1 UNK         0.0843 
    108 H108      -55.8983  -23.3670   17.1696 H         1 UNK         0.0831 
    109 H109      -54.5044  -24.0174   18.0180 H         1 UNK         0.0831 
    110 H110      -55.9021  -25.0422   17.6896 H         1 UNK         0.0831 
    111 H111      -52.7420  -25.5153   15.6897 H         1 UNK         0.3133 
    112 H112      -52.6403  -28.4977   17.4189 H         1 UNK         0.0566 
    113 H113      -52.0731  -29.6794   15.3000 H         1 UNK         0.0814 
    114 H114      -53.8109  -29.4719   15.4479 H         1 UNK         0.0814 
    115 H115      -52.8913  -28.4225   14.3713 H         1 UNK         0.0814 
    116 H116      -50.9110  -27.4026   15.4022 H         1 UNK         0.3091 
    117 H117      -49.1228  -25.2246   17.6441 H         1 UNK         0.0702 
    118 H118      -47.2808  -26.5260   16.5629 H         1 UNK         0.0785 
    119 H119      -48.4301  -27.7795   16.0972 H         1 UNK         0.0785 
    120 H120      -48.1005  -27.4737   17.7945 H         1 UNK         0.0785 
    121 H121      -48.8684  -25.5941   14.8384 H         1 UNK         0.2998 
    122 H122      -51.1786  -23.0638   13.8152 H         1 UNK         0.0697 
    123 H123      -48.1169  -23.2352   13.7103 H         1 UNK         0.0825 
    124 H124      -49.0442  -21.8997   14.3694 H         1 UNK         0.0825 
    125 H125      -49.1447  -22.2637   12.6591 H         1 UNK         0.0825 
    126 H126      -49.4338  -24.9815   12.4943 H         1 UNK         0.3029 
    127 H127      -51.9221  -27.4913   12.1362 H         1 UNK         0.0897 
    128 H128      -51.3719  -27.1182    9.6838 H         1 UNK         0.0792 
    129 H129      -51.0067  -25.4391   10.0581 H         1 UNK         0.0792 
    130 H130      -52.6309  -26.0609   10.3031 H         1 UNK         0.0792 
    131 H131      -49.2640  -27.1188   11.0743 H         1 UNK         0.3086 
    132 H132      -47.6015  -28.4022   13.9287 H         1 UNK         0.0583 
    133 H133      -46.8370  -30.3289   12.8673 H         1 UNK         0.1020 
    134 H134      -48.5487  -30.5683   12.9443 H         1 UNK         0.1020 
    135 H135      -48.7875  -32.1292    9.6149 H         1 UNK         0.0694 
    136 H136      -49.1825  -32.0915   11.3089 H         1 UNK         0.0694 
    137 H137      -46.6730  -27.9589   11.2864 H         1 UNK         0.2989 
    138 H138      -45.3788  -24.8191   11.9554 H         1 UNK         0.1055 
    139 H139      -44.4794  -27.0191   11.0992 H         1 UNK         0.0806 
    140 H140      -44.4401  -25.7536    9.8864 H         1 UNK         0.0806 
    141 H141      -45.6773  -26.9946    9.8029 H         1 UNK         0.0806 
    142 H142      -46.5119  -23.6780   10.3714 H         1 UNK         0.3061 
    143 H143      -49.4730  -24.3405    8.4866 H         1 UNK         0.0734 
    144 H144      -49.4250  -21.9139    9.0031 H         1 UNK         0.0832 
    145 H145      -49.6882  -22.8866   10.4377 H         1 UNK         0.0832 
    146 H146      -48.1141  -22.1578   10.1519 H         1 UNK         0.0832 
    147 H147      -48.0597  -24.0352    6.8616 H         1 UNK         0.3156 
    148 H148      -45.6234  -22.0901    6.0053 H         1 UNK         0.0589 
    149 H149      -44.3541  -24.7048    6.9861 H         1 UNK         0.0808 
    150 H150      -43.7554  -23.7326    5.6415 H         1 UNK         0.0808 
    151 H151      -43.7407  -23.0816    7.2712 H         1 UNK         0.0808 
    152 H152      -46.4619  -24.9337    5.5839 H         1 UNK         0.3098 
    153 H153      -48.6985  -24.0339    3.0406 H         1 UNK         0.0720 
    154 H154      -47.4503  -25.4630    1.4399 H         1 UNK         0.0791 
    155 H155      -45.9819  -25.3117    2.4074 H         1 UNK         0.0791 
    156 H156      -46.6584  -23.9053    1.5982 H         1 UNK         0.0791 
    157 H157      -47.6684  -26.5949    3.7107 H         1 UNK         0.3028 
@<TRIPOS>BOND
     1    1    2 1    
     2    1   82 1    
     3    1   83 1    
     4    1   84 1    
     5    2    3 2    
     6    2    4 am   BACKBONE|DICT|INTERRES
     7    4    5 1    
     8    4   85 1    
     9    5    6 1    
    10    5   80 1    
    11    5   86 1    
    12    6    7 1    
    13    6   87 1    
    14    6   88 1    
    15    7    8 1    
    16    8    9 1    
    17    8   89 1    
    18    8   90 1    
    19    9   10 ar   
    20    9   14 ar   
    21   10   11 ar   
    22   10   91 1    
    23   11   12 ar   
    24   11   58 1    
    25   12   13 ar   
    26   12   92 1    
    27   13   14 ar   
    28   13   15 1    
    29   14   93 1    
    30   15   16 1    
    31   15   94 1    
    32   15   95 1    
    33   16   17 1    
    34   17   18 1    
    35   17   96 1    
    36   17   97 1    
    37   18   19 1    
    38   18   22 1    
    39   18   98 1    
    40   19   20 am   BACKBONE|DICT|INTERRES
    41   19   21 2    
    42   20   99 1    
    43   20  100 1    
    44   22   23 am   BACKBONE|DICT|INTERRES
    45   22  101 1    
    46   23   24 2    
    47   23   25 1    
    48   25   26 1    
    49   25   27 1    
    50   25  102 1    
    51   26  103 1    
    52   26  104 1    
    53   26  105 1    
    54   27   28 am   BACKBONE|DICT|INTERRES
    55   27  106 1    
    56   28   29 2    
    57   28   30 1    
    58   30   31 1    
    59   30   32 1    
    60   30  107 1    
    61   31  108 1    
    62   31  109 1    
    63   31  110 1    
    64   32   33 am   BACKBONE|DICT|INTERRES
    65   32  111 1    
    66   33   34 2    
    67   33   35 1    
    68   35   36 1    
    69   35   37 1    
    70   35  112 1    
    71   36  113 1    
    72   36  114 1    
    73   36  115 1    
    74   37   38 am   BACKBONE|DICT|INTERRES
    75   37  116 1    
    76   38   39 2    
    77   38   40 1    
    78   40   41 1    
    79   40   42 1    
    80   40  117 1    
    81   41  118 1    
    82   41  119 1    
    83   41  120 1    
    84   42   43 am   BACKBONE|DICT|INTERRES
    85   42  121 1    
    86   43   44 2    
    87   43   45 1    
    88   45   46 1    
    89   45   47 1    
    90   45  122 1    
    91   46  123 1    
    92   46  124 1    
    93   46  125 1    
    94   47   48 am   BACKBONE|DICT|INTERRES
    95   47  126 1    
    96   48   49 2    
    97   48   50 1    
    98   50   51 1    
    99   50   52 1    
   100   50  127 1    
   101   51  128 1    
   102   51  129 1    
   103   51  130 1    
   104   52   53 am   BACKBONE|DICT|INTERRES
   105   52  131 1    
   106   53   54 2    
   107   53   55 1    
   108   55   56 1    
   109   55   59 1    
   110   55  132 1    
   111   56   57 1    
   112   56  133 1    
   113   56  134 1    
   114   57   58 1    
   115   58  135 1    
   116   58  136 1    
   117   59   60 am   BACKBONE|DICT|INTERRES
   118   59  137 1    
   119   60   61 2    
   120   60   62 1    
   121   62   63 1    
   122   62   64 1    
   123   62  138 1    
   124   63  139 1    
   125   63  140 1    
   126   63  141 1    
   127   64   65 am   BACKBONE|DICT|INTERRES
   128   64  142 1    
   129   65   66 2    
   130   65   67 1    
   131   67   68 1    
   132   67   69 1    
   133   67  143 1    
   134   68  144 1    
   135   68  145 1    
   136   68  146 1    
   137   69   70 am   BACKBONE|DICT|INTERRES
   138   69  147 1    
   139   70   71 2    
   140   70   72 1    
   141   72   73 1    
   142   72   74 1    
   143   72  148 1    
   144   73  149 1    
   145   73  150 1    
   146   73  151 1    
   147   74   75 am   BACKBONE|DICT|INTERRES
   148   74  152 1    
   149   75   76 2    
   150   75   77 1    
   151   77   78 1    
   152   77   79 1    
   153   77  153 1    
   154   78  154 1    
   155   78  155 1    
   156   78  156 1    
   157   79   80 am   BACKBONE|DICT|INTERRES
   158   79  157 1    
   159   80   81 2    
@<TRIPOS>SUBSTRUCTURE
     1 UNK         1 GROUP             0       ****    0 ROOT    
