@<TRIPOS>MOLECULE
3R207
157   159    1
SMALL
USER_CHARGES


@<TRIPOS>ATOM
      1 CA        -46.8316  -29.4244    9.0795 C.3       0 UNK        -0.1975 
      2 C         -47.4530  -28.5767    7.9806 C.2       0 UNK         0.4852 
      3 O         -47.3371  -27.3520    8.0181 O.2       0 UNK        -0.5216 
      4 N         -48.1039  -29.2211    7.0015 N.am      1 UNK        -0.4461 
      5 CA        -48.8145  -28.6039    5.8695 C.3       1 UNK         0.0864 
      6 C6        -50.0662  -27.7875    6.2959 C.3       14 UNK        -0.0898 
      7 S7        -51.2530  -28.8077    7.2345 S.3       14 UNK        -0.2598 
      8 C8        -51.1651  -28.0521    8.8876 C.3       14 UNK         0.0286 
      9 C9        -52.2558  -27.0093    9.0764 C.ar      14 UNK        -0.0844 
     10 C10       -52.0883  -25.7103    8.5933 C.ar      14 UNK        -0.0881 
     11 C11       -53.1057  -24.7610    8.7370 C.ar      14 UNK        -0.0643 
     12 C12       -54.2935  -25.1261    9.3813 C.ar      14 UNK        -0.0930 
     13 C13       -54.4859  -26.4271    9.8632 C.ar      14 UNK        -0.0827 
     14 C14       -53.4494  -27.3577    9.7133 C.ar      14 UNK        -0.1249 
     15 C15       -55.8279  -26.7797   10.5184 C.3       14 UNK         0.0141 
     16 S16       -56.3234  -28.5401   10.4290 S.3       14 UNK        -0.2313 
     17 C17       -55.3590  -29.3110   11.7765 C.3       14 UNK        -0.0915 
     18 CA        -56.2365  -29.8557   12.9359 C.3       13 UNK         0.0968 
     19 C         -56.9234  -31.1921   12.5303 C.2       13 UNK         0.5732 
     20 N         -58.1904  -31.1519   12.1405 N.am      13 UNK        -0.7310 
     21 O         -56.3039  -32.2548   12.5347 O.2       13 UNK        -0.5035 
     22 N         -55.4408  -29.9620   14.1702 N.am      13 UNK        -0.4233 
     23 C         -55.8648  -30.4377   15.3509 C.2       13 UNK         0.4989 
     24 O         -57.0232  -30.7836   15.5858 O.2       13 UNK        -0.4996 
     25 CA        -54.8194  -30.5183   16.4732 C.3       12 UNK         0.0216 
     26 CB        -53.7117  -31.5334   16.1394 C.3       12 UNK        -0.1964 
     27 N         -54.2329  -29.2000   16.7077 N.am      12 UNK        -0.4276 
     28 C         -54.6412  -28.3421   17.6540 C.2       12 UNK         0.5020 
     29 O         -55.4716  -28.6214   18.5202 O.2       12 UNK        -0.5489 
     30 CA        -54.0386  -26.9222   17.6340 C.3       11 UNK         0.0294 
     31 CB        -52.8474  -26.8321   18.6012 C.3       11 UNK        -0.2019 
     32 N         -53.6103  -26.4795   16.3048 N.am      11 UNK        -0.4493 
     33 C         -54.4126  -26.3549   15.2380 C.2       11 UNK         0.4932 
     34 O         -55.6364  -26.4785   15.2811 O.2       11 UNK        -0.5029 
     35 CA        -53.7376  -26.1052   13.8800 C.3       10 UNK         0.0280 
     36 CB        -53.7780  -24.6167   13.5144 C.3       10 UNK        -0.1976 
     37 N         -52.3690  -26.6273   13.7750 N.am      10 UNK        -0.4242 
     38 C         -52.0310  -27.9225   13.8843 C.2       10 UNK         0.5072 
     39 O         -52.8396  -28.8237   14.1097 O.2       10 UNK        -0.5224 
     40 CA        -50.5414  -28.2720   13.7617 C.3       9 UNK         0.0343 
     41 CB        -50.1537  -28.4989   12.2943 C.3       9 UNK        -0.2003 
     42 N         -49.6957  -27.2318   14.3487 N.am      9 UNK        -0.4272 
     43 C         -49.4325  -27.1512   15.6613 C.2       9 UNK         0.4988 
     44 O         -49.8127  -27.9793   16.4895 O.2       9 UNK        -0.5108 
     45 CA        -48.6312  -25.9296   16.1402 C.3       8 UNK         0.0248 
     46 CB        -47.1331  -26.1117   15.8459 C.3       8 UNK        -0.2001 
     47 N         -49.0952  -24.6626   15.5688 N.am      8 UNK        -0.4140 
     48 C         -50.3197  -24.1419   15.7412 C.2       8 UNK         0.5028 
     49 O         -51.2255  -24.6942   16.3643 O.2       8 UNK        -0.5428 
     50 CA        -50.5953  -22.8156   15.0301 C.3       7 UNK         0.0264 
     51 CB        -49.6254  -21.6969   15.4562 C.3       7 UNK        -0.1988 
     52 N         -50.5126  -23.0658   13.5980 N.am      7 UNK        -0.4454 
     53 C         -51.1186  -22.3872   12.6226 C.2       7 UNK         0.5027 
     54 O         -51.7803  -21.3667   12.8207 O.2       7 UNK        -0.5083 
     55 CA        -50.9723  -22.9628   11.1906 C.3       6 UNK         0.0844 
     56 C56       -51.5038  -21.9778   10.1164 C.3       14 UNK        -0.0967 
     57 S57       -51.3406  -22.5947    8.4062 S.3       14 UNK        -0.2604 
     58 C58       -52.9675  -23.3695    8.1239 C.3       14 UNK         0.0134 
     59 N         -49.6144  -23.4320   10.8839 N.am      6 UNK        -0.4116 
     60 C         -48.9926  -24.5182   11.3582 C.2       5 UNK         0.5034 
     61 O         -49.4637  -25.2300   12.2511 O.2       5 UNK        -0.5045 
     62 CA        -47.6090  -24.8477   10.7588 C.3       5 UNK         0.0224 
     63 CB        -47.0984  -26.2300   11.2053 C.3       5 UNK        -0.1978 
     64 N         -47.5748  -24.7889    9.2923 N.am      5 UNK        -0.4737 
     65 C         -47.5852  -23.6756    8.5453 C.2       4 UNK         0.5027 
     66 O         -47.6695  -22.5420    9.0221 O.2       4 UNK        -0.5211 
     67 CA        -47.4768  -23.8756    7.0224 C.3       4 UNK         0.0297 
     68 CB        -47.3564  -22.5517    6.2393 C.3       4 UNK        -0.1993 
     69 N         -46.3938  -24.7999    6.6733 N.am      4 UNK        -0.4486 
     70 C         -45.0857  -24.6727    6.9508 C.2       3 UNK         0.4961 
     71 O         -44.5796  -23.6669    7.4496 O.2       3 UNK        -0.5105 
     72 CA        -44.1781  -25.8812    6.6518 C.3       3 UNK         0.0299 
     73 CB        -43.7662  -26.5714    7.9634 C.3       3 UNK        -0.1972 
     74 N         -44.8089  -26.8701    5.7755 N.am      3 UNK        -0.4305 
     75 C         -44.8975  -26.7644    4.4423 C.2       2 UNK         0.5006 
     76 O         -44.3853  -25.8539    3.7904 O.2       2 UNK        -0.5106 
     77 CA        -45.7073  -27.8514    3.7105 C.3       2 UNK         0.0296 
     78 CB        -44.7753  -28.9608    3.1962 C.3       2 UNK        -0.2002 
     79 N         -46.7688  -28.4493    4.5297 N.am      2 UNK        -0.4032 
     80 C         -47.8507  -27.7933    4.9767 C.2       1 UNK         0.5000 
     81 O         -48.0634  -26.6005    4.7492 O.2       1 UNK        -0.5238 
     82 H82       -45.8060  -29.1076    9.2658 H         1 UNK         0.0889 
     83 H83       -46.8162  -30.4821    8.8175 H         1 UNK         0.0889 
     84 H84       -47.3969  -29.3109   10.0037 H         1 UNK         0.0889 
     85 H85       -48.1621  -30.2294    7.0398 H         1 UNK         0.3028 
     86 H86       -49.1665  -29.4277    5.2462 H         1 UNK         0.0864 
     87 H87       -50.5883  -27.4057    5.4167 H         1 UNK         0.0720 
     88 H88       -49.7766  -26.9109    6.8767 H         1 UNK         0.0720 
     89 H89       -50.1816  -27.6150    9.0669 H         1 UNK         0.0814 
     90 H90       -51.2810  -28.8479    9.6230 H         1 UNK         0.0814 
     91 H91       -51.1742  -25.4437    8.0823 H         1 UNK         0.1469 
     92 H92       -55.0887  -24.3997    9.4804 H         1 UNK         0.1381 
     93 H93       -53.5661  -28.3707   10.0649 H         1 UNK         0.1206 
     94 H94       -55.8397  -26.4450   11.5541 H         1 UNK         0.0813 
     95 H95       -56.6153  -26.2121   10.0201 H         1 UNK         0.0813 
     96 H96       -54.7348  -30.1014   11.3552 H         1 UNK         0.0638 
     97 H97       -54.6602  -28.5685   12.1540 H         1 UNK         0.0638 
     98 H98       -57.0139  -29.1209   13.1531 H         1 UNK         0.0568 
     99 H99       -58.6454  -32.0070   11.8625 H         1 UNK         0.3450 
    100 H100      -58.6969  -30.2810   12.1104 H         1 UNK         0.3450 
    101 H101      -54.4673  -29.6798   14.0885 H         1 UNK         0.2987 
    102 H102      -55.3245  -30.8693   17.3758 H         1 UNK         0.0766 
    103 H103      -54.1345  -32.5203   15.9465 H         1 UNK         0.0798 
    104 H104      -53.0122  -31.6377   16.9690 H         1 UNK         0.0798 
    105 H105      -53.1385  -31.2471   15.2572 H         1 UNK         0.0798 
    106 H106      -53.5792  -28.8705   16.0050 H         1 UNK         0.3198 
    107 H107      -54.8139  -26.2337   17.9764 H         1 UNK         0.0843 
    108 H108      -52.0237  -27.4746   18.2865 H         1 UNK         0.0831 
    109 H109      -53.1358  -27.1382   19.6077 H         1 UNK         0.0831 
    110 H110      -52.4679  -25.8123   18.6694 H         1 UNK         0.0831 
    111 H111      -52.6295  -26.2399   16.1996 H         1 UNK         0.3133 
    112 H112      -54.3296  -26.6370   13.1409 H         1 UNK         0.0566 
    113 H113      -53.4214  -24.4502   12.4993 H         1 UNK         0.0814 
    114 H114      -53.1809  -24.0178   14.2003 H         1 UNK         0.0814 
    115 H115      -54.7986  -24.2339   13.5580 H         1 UNK         0.0814 
    116 H116      -51.6350  -25.9619   13.5867 H         1 UNK         0.3091 
    117 H117      -50.3747  -29.2105   14.2953 H         1 UNK         0.0702 
    118 H118      -49.0962  -28.7433   12.1961 H         1 UNK         0.0785 
    119 H119      -50.3569  -27.6216   11.6804 H         1 UNK         0.0785 
    120 H120      -50.7190  -29.3323   11.8759 H         1 UNK         0.0785 
    121 H121      -49.3657  -26.5060   13.7197 H         1 UNK         0.2998 
    122 H122      -48.7569  -25.8621   17.2230 H         1 UNK         0.0697 
    123 H123      -46.9290  -26.1397   14.7753 H         1 UNK         0.0825 
    124 H124      -46.7630  -27.0453   16.2722 H         1 UNK         0.0825 
    125 H125      -46.5423  -25.3047   16.2796 H         1 UNK         0.0825 
    126 H126      -48.4179  -24.1354   15.0377 H         1 UNK         0.3029 
    127 H127      -51.6122  -22.5078   15.2834 H         1 UNK         0.0897 
    128 H128      -48.5985  -21.9019   15.1527 H         1 UNK         0.0792 
    129 H129      -49.6302  -21.5682   16.5394 H         1 UNK         0.0792 
    130 H130      -49.9136  -20.7414   15.0174 H         1 UNK         0.0792 
    131 H131      -50.0272  -23.9152   13.3153 H         1 UNK         0.3086 
    132 H132      -51.6139  -23.8446   11.1563 H         1 UNK         0.0583 
    133 H133      -52.5506  -21.7322   10.3055 H         1 UNK         0.1020 
    134 H134      -50.9614  -21.0321   10.1752 H         1 UNK         0.1020 
    135 H135      -53.7523  -22.7022    8.4831 H         1 UNK         0.0694 
    136 H136      -53.1172  -23.4615    7.0475 H         1 UNK         0.0694 
    137 H137      -49.1157  -22.9008   10.1747 H         1 UNK         0.2989 
    138 H138      -46.9155  -24.0965   11.1429 H         1 UNK         0.1055 
    139 H139      -47.7719  -27.0236   10.8822 H         1 UNK         0.0806 
    140 H140      -46.1109  -26.4415   10.7948 H         1 UNK         0.0806 
    141 H141      -47.0165  -26.2914   12.2907 H         1 UNK         0.0806 
    142 H142      -47.5056  -25.6850    8.8107 H         1 UNK         0.3061 
    143 H143      -48.4040  -24.3598    6.7111 H         1 UNK         0.0734 
    144 H144      -46.4726  -21.9842    6.5318 H         1 UNK         0.0832 
    145 H145      -47.3020  -22.7305    5.1656 H         1 UNK         0.0832 
    146 H146      -48.2242  -21.9157    6.4192 H         1 UNK         0.0832 
    147 H147      -46.7049  -25.6780    6.2752 H         1 UNK         0.3156 
    148 H148      -43.2748  -25.5054    6.1666 H         1 UNK         0.0589 
    149 H149      -43.1008  -27.4150    7.7792 H         1 UNK         0.0808 
    150 H150      -43.2351  -25.8785    8.6174 H         1 UNK         0.0808 
    151 H151      -44.6318  -26.9373    8.5166 H         1 UNK         0.0808 
    152 H152      -45.2671  -27.6472    6.2279 H         1 UNK         0.3098 
    153 H153      -46.1809  -27.3770    2.8481 H         1 UNK         0.0720 
    154 H154      -43.9906  -28.5474    2.5607 H         1 UNK         0.0791 
    155 H155      -45.3199  -29.6924    2.5988 H         1 UNK         0.0791 
    156 H156      -44.2859  -29.4906    4.0145 H         1 UNK         0.0791 
    157 H157      -46.6616  -29.4240    4.7726 H         1 UNK         0.3028 
@<TRIPOS>BOND
     1    1    2 1    
     2    1   82 1    
     3    1   83 1    
     4    1   84 1    
     5    2    3 2    
     6    2    4 am   BACKBONE|DICT|INTERRES
     7    4    5 1    
     8    4   85 1    
     9    5    6 1    
    10    5   80 1    
    11    5   86 1    
    12    6    7 1    
    13    6   87 1    
    14    6   88 1    
    15    7    8 1    
    16    8    9 1    
    17    8   89 1    
    18    8   90 1    
    19    9   10 ar   
    20    9   14 ar   
    21   10   11 ar   
    22   10   91 1    
    23   11   12 ar   
    24   11   58 1    
    25   12   13 ar   
    26   12   92 1    
    27   13   14 ar   
    28   13   15 1    
    29   14   93 1    
    30   15   16 1    
    31   15   94 1    
    32   15   95 1    
    33   16   17 1    
    34   17   18 1    
    35   17   96 1    
    36   17   97 1    
    37   18   19 1    
    38   18   22 1    
    39   18   98 1    
    40   19   20 am   BACKBONE|DICT|INTERRES
    41   19   21 2    
    42   20   99 1    
    43   20  100 1    
    44   22   23 am   BACKBONE|DICT|INTERRES
    45   22  101 1    
    46   23   24 2    
    47   23   25 1    
    48   25   26 1    
    49   25   27 1    
    50   25  102 1    
    51   26  103 1    
    52   26  104 1    
    53   26  105 1    
    54   27   28 am   BACKBONE|DICT|INTERRES
    55   27  106 1    
    56   28   29 2    
    57   28   30 1    
    58   30   31 1    
    59   30   32 1    
    60   30  107 1    
    61   31  108 1    
    62   31  109 1    
    63   31  110 1    
    64   32   33 am   BACKBONE|DICT|INTERRES
    65   32  111 1    
    66   33   34 2    
    67   33   35 1    
    68   35   36 1    
    69   35   37 1    
    70   35  112 1    
    71   36  113 1    
    72   36  114 1    
    73   36  115 1    
    74   37   38 am   BACKBONE|DICT|INTERRES
    75   37  116 1    
    76   38   39 2    
    77   38   40 1    
    78   40   41 1    
    79   40   42 1    
    80   40  117 1    
    81   41  118 1    
    82   41  119 1    
    83   41  120 1    
    84   42   43 am   BACKBONE|DICT|INTERRES
    85   42  121 1    
    86   43   44 2    
    87   43   45 1    
    88   45   46 1    
    89   45   47 1    
    90   45  122 1    
    91   46  123 1    
    92   46  124 1    
    93   46  125 1    
    94   47   48 am   BACKBONE|DICT|INTERRES
    95   47  126 1    
    96   48   49 2    
    97   48   50 1    
    98   50   51 1    
    99   50   52 1    
   100   50  127 1    
   101   51  128 1    
   102   51  129 1    
   103   51  130 1    
   104   52   53 am   BACKBONE|DICT|INTERRES
   105   52  131 1    
   106   53   54 2    
   107   53   55 1    
   108   55   56 1    
   109   55   59 1    
   110   55  132 1    
   111   56   57 1    
   112   56  133 1    
   113   56  134 1    
   114   57   58 1    
   115   58  135 1    
   116   58  136 1    
   117   59   60 am   BACKBONE|DICT|INTERRES
   118   59  137 1    
   119   60   61 2    
   120   60   62 1    
   121   62   63 1    
   122   62   64 1    
   123   62  138 1    
   124   63  139 1    
   125   63  140 1    
   126   63  141 1    
   127   64   65 am   BACKBONE|DICT|INTERRES
   128   64  142 1    
   129   65   66 2    
   130   65   67 1    
   131   67   68 1    
   132   67   69 1    
   133   67  143 1    
   134   68  144 1    
   135   68  145 1    
   136   68  146 1    
   137   69   70 am   BACKBONE|DICT|INTERRES
   138   69  147 1    
   139   70   71 2    
   140   70   72 1    
   141   72   73 1    
   142   72   74 1    
   143   72  148 1    
   144   73  149 1    
   145   73  150 1    
   146   73  151 1    
   147   74   75 am   BACKBONE|DICT|INTERRES
   148   74  152 1    
   149   75   76 2    
   150   75   77 1    
   151   77   78 1    
   152   77   79 1    
   153   77  153 1    
   154   78  154 1    
   155   78  155 1    
   156   78  156 1    
   157   79   80 am   BACKBONE|DICT|INTERRES
   158   79  157 1    
   159   80   81 2    
@<TRIPOS>SUBSTRUCTURE
     1 UNK         1 GROUP             0       ****    0 ROOT    
