@<TRIPOS>MOLECULE
3R207
157   159    1
SMALL
USER_CHARGES


@<TRIPOS>ATOM
      1 CA        -49.6807  -28.2473    1.5299 C.3       0 UNK        -0.1975 
      2 C         -49.5004  -27.2172    2.6350 C.2       0 UNK         0.4852 
      3 O         -49.0683  -26.0967    2.3621 O.2       0 UNK        -0.5216 
      4 N         -49.8291  -27.5884    3.8797 N.am      1 UNK        -0.4461 
      5 CA        -49.7007  -26.7462    5.0766 C.3       1 UNK         0.0864 
      6 C6        -50.5306  -27.3011    6.2600 C.3       14 UNK        -0.0898 
      7 S7        -50.1796  -29.0504    6.6723 S.3       14 UNK        -0.2598 
      8 C8        -51.8228  -29.6572    7.1798 C.3       14 UNK         0.0286 
      9 C9        -52.2724  -29.0278    8.4905 C.ar      14 UNK        -0.0844 
     10 C10       -53.0385  -27.8603    8.4826 C.ar      14 UNK        -0.0881 
     11 C11       -53.4013  -27.2358    9.6783 C.ar      14 UNK        -0.0643 
     12 C12       -53.0292  -27.8157   10.8958 C.ar      14 UNK        -0.0930 
     13 C13       -52.2801  -28.9967   10.9189 C.ar      14 UNK        -0.0827 
     14 C14       -51.9040  -29.5968    9.7126 C.ar      14 UNK        -0.1249 
     15 C15       -51.8264  -29.5985   12.2411 C.3       14 UNK         0.0141 
     16 S16       -52.6677  -31.1767   12.5892 S.3       14 UNK        -0.2313 
     17 C17       -53.5338  -30.8493   14.1621 C.3       14 UNK        -0.0915 
     18 CA        -55.0675  -30.7125   13.9720 C.3       13 UNK         0.0968 
     19 C         -55.8237  -30.7655   15.3328 C.2       13 UNK         0.5732 
     20 N         -56.6274  -29.7757   15.7063 N.am      13 UNK        -0.7310 
     21 O         -55.6887  -31.7415   16.0669 O.2       13 UNK        -0.5035 
     22 N         -55.4099  -29.5465   13.1456 N.am      13 UNK        -0.4233 
     23 C         -56.5079  -29.4581   12.3824 C.2       13 UNK         0.4989 
     24 O         -57.2916  -30.3939   12.2102 O.2       13 UNK        -0.4996 
     25 CA        -56.7882  -28.0983   11.7036 C.3       12 UNK         0.0216 
     26 CB        -58.2840  -27.8938   11.3821 C.3       12 UNK        -0.1964 
     27 N         -56.2649  -26.9416   12.4441 N.am      12 UNK        -0.4276 
     28 C         -56.5265  -26.6042   13.7140 C.2       12 UNK         0.5020 
     29 O         -57.2980  -27.2176   14.4548 O.2       12 UNK        -0.5489 
     30 CA        -55.7338  -25.4100   14.2699 C.3       11 UNK         0.0294 
     31 CB        -56.6764  -24.2645   14.6722 C.3       11 UNK        -0.2019 
     32 N         -54.9175  -25.8020   15.4215 N.am      11 UNK        -0.4493 
     33 C         -53.9582  -26.7372   15.3999 C.2       11 UNK         0.4932 
     34 O         -53.6529  -27.3861   14.3965 O.2       11 UNK        -0.5029 
     35 CA        -53.2573  -27.0219   16.7398 C.3       10 UNK         0.0280 
     36 CB        -53.9670  -28.1613   17.4878 C.3       10 UNK        -0.1976 
     37 N         -51.8457  -27.3716   16.5663 N.am      10 UNK        -0.4242 
     38 C         -50.9038  -26.5311   16.1189 C.2       10 UNK         0.5072 
     39 O         -51.1198  -25.3432   15.8657 O.2       10 UNK        -0.5224 
     40 CA        -49.4811  -27.1025   15.9766 C.3       9 UNK         0.0343 
     41 CB        -49.4538  -28.4697   15.2645 C.3       9 UNK        -0.2003 
     42 N         -48.6656  -26.1562   15.2195 N.am      9 UNK        -0.4272 
     43 C         -47.4876  -25.6500   15.6000 C.2       9 UNK         0.4988 
     44 O         -46.8792  -26.0094   16.6092 O.2       9 UNK        -0.5108 
     45 CA        -46.8776  -24.5483   14.7135 C.3       8 UNK         0.0248 
     46 CB        -45.9085  -25.1515   13.6842 C.3       8 UNK        -0.2001 
     47 N         -47.8794  -23.7324   14.0207 N.am      8 UNK        -0.4140 
     48 C         -48.6858  -22.8439   14.6218 C.2       8 UNK         0.5028 
     49 O         -48.6536  -22.5989   15.8286 O.2       8 UNK        -0.5428 
     50 CA        -49.6865  -22.0879   13.7346 C.3       7 UNK         0.0264 
     51 CB        -49.0124  -20.8658   13.0882 C.3       7 UNK        -0.1988 
     52 N         -50.2251  -22.9513   12.6832 N.am      7 UNK        -0.4454 
     53 C         -51.4698  -23.4504   12.6580 C.2       7 UNK         0.5027 
     54 O         -52.3367  -23.1700   13.4868 O.2       7 UNK        -0.5083 
     55 CA        -51.8387  -24.3959   11.4917 C.3       6 UNK         0.0844 
     56 C56       -52.7043  -23.6325   10.4565 C.3       14 UNK        -0.0967 
     57 S57       -53.1466  -24.5804    8.9607 S.3       14 UNK        -0.2604 
     58 C58       -54.1759  -25.9269    9.6279 C.3       14 UNK         0.0134 
     59 N         -50.6768  -25.0508   10.8807 N.am      6 UNK        -0.4116 
     60 C         -49.8884  -25.9420   11.4971 C.2       5 UNK         0.5034 
     61 O         -50.0679  -26.3302   12.6488 O.2       5 UNK        -0.5045 
     62 CA        -48.6505  -26.4415   10.7310 C.3       5 UNK         0.0224 
     63 CB        -48.9734  -27.7392    9.9821 C.3       5 UNK        -0.1978 
     64 N         -48.0534  -25.4769    9.7978 N.am      5 UNK        -0.4737 
     65 C         -47.6776  -24.2248   10.0969 C.2       4 UNK         0.5027 
     66 O         -47.8953  -23.6890   11.1855 O.2       4 UNK        -0.5211 
     67 CA        -46.9270  -23.4587    8.9926 C.3       4 UNK         0.0297 
     68 CB        -46.3974  -22.0891    9.4686 C.3       4 UNK        -0.1993 
     69 N         -45.8516  -24.2617    8.3970 N.am      4 UNK        -0.4486 
     70 C         -44.7966  -24.8065    9.0272 C.2       3 UNK         0.4961 
     71 O         -44.5502  -24.6391   10.2224 O.2       3 UNK        -0.5105 
     72 CA        -43.8395  -25.6725    8.1786 C.3       3 UNK         0.0299 
     73 CB        -43.2088  -26.8217    8.9949 C.3       3 UNK        -0.1972 
     74 N         -44.4271  -26.1796    6.9295 N.am      3 UNK        -0.4305 
     75 C         -45.4697  -27.0137    6.8020 C.2       2 UNK         0.5006 
     76 O         -46.0862  -27.5107    7.7462 O.2       2 UNK        -0.5106 
     77 CA        -45.8860  -27.3417    5.3581 C.3       2 UNK         0.0296 
     78 CB        -45.2497  -28.6661    4.9059 C.3       2 UNK        -0.2002 
     79 N         -47.3368  -27.4209    5.1713 N.am      2 UNK        -0.4032 
     80 C         -48.2329  -26.4679    5.4734 C.2       1 UNK         0.5000 
     81 O         -47.9444  -25.3924    6.0060 O.2       1 UNK        -0.5238 
     82 H82       -50.3718  -27.8713    0.7759 H         1 UNK         0.0889 
     83 H83       -50.0745  -29.1897    1.9105 H         1 UNK         0.0889 
     84 H84       -48.7254  -28.4496    1.0463 H         1 UNK         0.0889 
     85 H85       -50.1832  -28.5202    4.0474 H         1 UNK         0.3028 
     86 H86       -50.1254  -25.7721    4.8230 H         1 UNK         0.0864 
     87 H87       -51.5861  -27.2125    6.0021 H         1 UNK         0.0720 
     88 H88       -50.3962  -26.6878    7.1530 H         1 UNK         0.0720 
     89 H89       -51.7788  -30.7418    7.2897 H         1 UNK         0.0814 
     90 H90       -52.5494  -29.4623    6.3895 H         1 UNK         0.0814 
     91 H91       -53.3274  -27.4112    7.5428 H         1 UNK         0.1469 
     92 H92       -53.2965  -27.3397   11.8275 H         1 UNK         0.1381 
     93 H93       -51.3053  -30.4973    9.7268 H         1 UNK         0.1206 
     94 H94       -51.9760  -28.8875   13.0531 H         1 UNK         0.0813 
     95 H95       -50.7520  -29.7803   12.2012 H         1 UNK         0.0813 
     96 H96       -53.1197  -29.9703   14.6562 H         1 UNK         0.0638 
     97 H97       -53.3057  -31.6907   14.8187 H         1 UNK         0.0638 
     98 H98       -55.3964  -31.6060   13.4380 H         1 UNK         0.0568 
     99 H99       -57.1102  -29.8505   16.5866 H         1 UNK         0.3450 
    100 H100      -56.7787  -28.9579   15.1232 H         1 UNK         0.3450 
    101 H101      -54.8277  -28.7292   13.2857 H         1 UNK         0.2987 
    102 H102      -56.2483  -28.1258   10.7559 H         1 UNK         0.0766 
    103 H103      -58.6554  -28.6762   10.7192 H         1 UNK         0.0798 
    104 H104      -58.4559  -26.9410   10.8815 H         1 UNK         0.0798 
    105 H105      -58.8960  -27.9137   12.2846 H         1 UNK         0.0798 
    106 H106      -55.6018  -26.3737   11.9400 H         1 UNK         0.3198 
    107 H107      -55.0538  -25.0367   13.5007 H         1 UNK         0.0843 
    108 H108      -57.3592  -24.5639   15.4686 H         1 UNK         0.0831 
    109 H109      -57.2853  -23.9456   13.8251 H         1 UNK         0.0831 
    110 H110      -56.1192  -23.3925   15.0154 H         1 UNK         0.0831 
    111 H111      -55.1291  -25.3470   16.2975 H         1 UNK         0.3133 
    112 H112      -53.3060  -26.1212   17.3556 H         1 UNK         0.0566 
    113 H113      -53.5443  -28.3079   18.4818 H         1 UNK         0.0814 
    114 H114      -53.8912  -29.1059   16.9491 H         1 UNK         0.0814 
    115 H115      -55.0286  -27.9457   17.6174 H         1 UNK         0.0814 
    116 H116      -51.5935  -28.3330   16.7381 H         1 UNK         0.3091 
    117 H117      -49.0833  -27.2218   16.9862 H         1 UNK         0.0702 
    118 H118      -48.4301  -28.8121   15.1125 H         1 UNK         0.0785 
    119 H119      -49.9336  -28.4218   14.2874 H         1 UNK         0.0785 
    120 H120      -49.9623  -29.2394   15.8452 H         1 UNK         0.0785 
    121 H121      -49.1176  -25.7936   14.3860 H         1 UNK         0.2998 
    122 H122      -46.3039  -23.8857   15.3651 H         1 UNK         0.0697 
    123 H123      -46.4117  -25.8450   13.0124 H         1 UNK         0.0825 
    124 H124      -45.1076  -25.7023   14.1791 H         1 UNK         0.0825 
    125 H125      -45.4413  -24.3781   13.0736 H         1 UNK         0.0825 
    126 H126      -47.9152  -23.8162   13.0069 H         1 UNK         0.3029 
    127 H127      -50.4909  -21.7289   14.3805 H         1 UNK         0.0897 
    128 H128      -48.1916  -21.1552   12.4305 H         1 UNK         0.0792 
    129 H129      -48.6028  -20.1990   13.8482 H         1 UNK         0.0792 
    130 H130      -49.7246  -20.2875   12.4995 H         1 UNK         0.0792 
    131 H131      -49.5643  -23.2435   11.9678 H         1 UNK         0.3086 
    132 H132      -52.4534  -25.1828   11.9298 H         1 UNK         0.0583 
    133 H133      -53.6282  -23.2812   10.9209 H         1 UNK         0.1020 
    134 H134      -52.1833  -22.7334   10.1205 H         1 UNK         0.1020 
    135 H135      -54.5542  -25.6497   10.6109 H         1 UNK         0.0694 
    136 H136      -55.0492  -26.0539    8.9864 H         1 UNK         0.0694 
    137 H137      -50.4667  -24.7975    9.9270 H         1 UNK         0.2989 
    138 H138      -47.8878  -26.6718   11.4753 H         1 UNK         0.1055 
    139 H139      -49.7742  -27.5911    9.2590 H         1 UNK         0.0806 
    140 H140      -49.3006  -28.5147   10.6744 H         1 UNK         0.0806 
    141 H141      -48.1054  -28.1293    9.4509 H         1 UNK         0.0806 
    142 H142      -47.7976  -25.8385    8.8879 H         1 UNK         0.3061 
    143 H143      -47.6527  -23.2759    8.1985 H         1 UNK         0.0734 
    144 H144      -45.7009  -22.1903   10.3016 H         1 UNK         0.0832 
    145 H145      -45.8862  -21.5591    8.6653 H         1 UNK         0.0832 
    146 H146      -47.2153  -21.4523    9.8080 H         1 UNK         0.0832 
    147 H147      -45.9775  -24.4899    7.4195 H         1 UNK         0.3156 
    148 H148      -43.0301  -25.0062    7.8770 H         1 UNK         0.0589 
    149 H149      -42.5299  -27.4173    8.3847 H         1 UNK         0.0808 
    150 H150      -42.6306  -26.4352    9.8351 H         1 UNK         0.0808 
    151 H151      -43.9665  -27.4902    9.4050 H         1 UNK         0.0808 
    152 H152      -43.9955  -25.8321    6.0833 H         1 UNK         0.3098 
    153 H153      -45.5275  -26.5449    4.7032 H         1 UNK         0.0720 
    154 H154      -45.6063  -29.5067    5.5030 H         1 UNK         0.0791 
    155 H155      -44.1637  -28.6339    5.0054 H         1 UNK         0.0791 
    156 H156      -45.4709  -28.8783    3.8596 H         1 UNK         0.0791 
    157 H157      -47.6908  -28.2756    4.7687 H         1 UNK         0.3028 
@<TRIPOS>BOND
     1    1    2 1    
     2    1   82 1    
     3    1   83 1    
     4    1   84 1    
     5    2    3 2    
     6    2    4 am   BACKBONE|DICT|INTERRES
     7    4    5 1    
     8    4   85 1    
     9    5    6 1    
    10    5   80 1    
    11    5   86 1    
    12    6    7 1    
    13    6   87 1    
    14    6   88 1    
    15    7    8 1    
    16    8    9 1    
    17    8   89 1    
    18    8   90 1    
    19    9   10 ar   
    20    9   14 ar   
    21   10   11 ar   
    22   10   91 1    
    23   11   12 ar   
    24   11   58 1    
    25   12   13 ar   
    26   12   92 1    
    27   13   14 ar   
    28   13   15 1    
    29   14   93 1    
    30   15   16 1    
    31   15   94 1    
    32   15   95 1    
    33   16   17 1    
    34   17   18 1    
    35   17   96 1    
    36   17   97 1    
    37   18   19 1    
    38   18   22 1    
    39   18   98 1    
    40   19   20 am   BACKBONE|DICT|INTERRES
    41   19   21 2    
    42   20   99 1    
    43   20  100 1    
    44   22   23 am   BACKBONE|DICT|INTERRES
    45   22  101 1    
    46   23   24 2    
    47   23   25 1    
    48   25   26 1    
    49   25   27 1    
    50   25  102 1    
    51   26  103 1    
    52   26  104 1    
    53   26  105 1    
    54   27   28 am   BACKBONE|DICT|INTERRES
    55   27  106 1    
    56   28   29 2    
    57   28   30 1    
    58   30   31 1    
    59   30   32 1    
    60   30  107 1    
    61   31  108 1    
    62   31  109 1    
    63   31  110 1    
    64   32   33 am   BACKBONE|DICT|INTERRES
    65   32  111 1    
    66   33   34 2    
    67   33   35 1    
    68   35   36 1    
    69   35   37 1    
    70   35  112 1    
    71   36  113 1    
    72   36  114 1    
    73   36  115 1    
    74   37   38 am   BACKBONE|DICT|INTERRES
    75   37  116 1    
    76   38   39 2    
    77   38   40 1    
    78   40   41 1    
    79   40   42 1    
    80   40  117 1    
    81   41  118 1    
    82   41  119 1    
    83   41  120 1    
    84   42   43 am   BACKBONE|DICT|INTERRES
    85   42  121 1    
    86   43   44 2    
    87   43   45 1    
    88   45   46 1    
    89   45   47 1    
    90   45  122 1    
    91   46  123 1    
    92   46  124 1    
    93   46  125 1    
    94   47   48 am   BACKBONE|DICT|INTERRES
    95   47  126 1    
    96   48   49 2    
    97   48   50 1    
    98   50   51 1    
    99   50   52 1    
   100   50  127 1    
   101   51  128 1    
   102   51  129 1    
   103   51  130 1    
   104   52   53 am   BACKBONE|DICT|INTERRES
   105   52  131 1    
   106   53   54 2    
   107   53   55 1    
   108   55   56 1    
   109   55   59 1    
   110   55  132 1    
   111   56   57 1    
   112   56  133 1    
   113   56  134 1    
   114   57   58 1    
   115   58  135 1    
   116   58  136 1    
   117   59   60 am   BACKBONE|DICT|INTERRES
   118   59  137 1    
   119   60   61 2    
   120   60   62 1    
   121   62   63 1    
   122   62   64 1    
   123   62  138 1    
   124   63  139 1    
   125   63  140 1    
   126   63  141 1    
   127   64   65 am   BACKBONE|DICT|INTERRES
   128   64  142 1    
   129   65   66 2    
   130   65   67 1    
   131   67   68 1    
   132   67   69 1    
   133   67  143 1    
   134   68  144 1    
   135   68  145 1    
   136   68  146 1    
   137   69   70 am   BACKBONE|DICT|INTERRES
   138   69  147 1    
   139   70   71 2    
   140   70   72 1    
   141   72   73 1    
   142   72   74 1    
   143   72  148 1    
   144   73  149 1    
   145   73  150 1    
   146   73  151 1    
   147   74   75 am   BACKBONE|DICT|INTERRES
   148   74  152 1    
   149   75   76 2    
   150   75   77 1    
   151   77   78 1    
   152   77   79 1    
   153   77  153 1    
   154   78  154 1    
   155   78  155 1    
   156   78  156 1    
   157   79   80 am   BACKBONE|DICT|INTERRES
   158   79  157 1    
   159   80   81 2    
@<TRIPOS>SUBSTRUCTURE
     1 UNK         1 GROUP             0       ****    0 ROOT    
