@<TRIPOS>MOLECULE
3R207
157   159    1
SMALL
USER_CHARGES


@<TRIPOS>ATOM
      1 CA        -49.4156  -32.1440    4.8282 C.3       0 UNK        -0.1975 
      2 C         -49.5591  -30.7082    4.3455 C.2       0 UNK         0.4852 
      3 O         -48.9695  -30.3436    3.3275 O.2       0 UNK        -0.5216 
      4 N         -50.3395  -29.8932    5.0682 N.am      1 UNK        -0.4461 
      5 CA        -50.5981  -28.4809    4.7569 C.3       1 UNK         0.0864 
      6 C6        -51.7518  -27.9073    5.6109 C.3       14 UNK        -0.0898 
      7 S7        -53.3713  -28.6877    5.2865 S.3       14 UNK        -0.2598 
      8 C8        -53.8517  -29.3201    6.9331 C.3       14 UNK         0.0286 
      9 C9        -54.4797  -28.2799    7.8646 C.ar      14 UNK        -0.0844 
     10 C10       -53.9078  -27.0154    8.0437 C.ar      14 UNK        -0.0881 
     11 C11       -54.4029  -26.1175    8.9946 C.ar      14 UNK        -0.0643 
     12 C12       -55.5359  -26.4742    9.7298 C.ar      14 UNK        -0.0930 
     13 C13       -56.1441  -27.7193    9.5450 C.ar      14 UNK        -0.0827 
     14 C14       -55.6066  -28.6200    8.6203 C.ar      14 UNK        -0.1249 
     15 C15       -57.3842  -28.0810   10.3472 C.3       14 UNK         0.0141 
     16 S16       -56.9834  -28.4661   12.0791 S.3       14 UNK        -0.2313 
     17 C17       -56.4424  -30.2044   11.9654 C.3       14 UNK        -0.0915 
     18 CA        -55.2719  -30.5054   12.9448 C.3       13 UNK         0.0968 
     19 C         -55.0819  -32.0240   13.2556 C.2       13 UNK         0.5732 
     20 N         -53.8893  -32.4796   13.6263 N.am      13 UNK        -0.7310 
     21 O         -56.0318  -32.8019   13.1984 O.2       13 UNK        -0.5035 
     22 N         -54.0294  -29.8006   12.5908 N.am      13 UNK        -0.4233 
     23 C         -53.2235  -30.0850   11.5550 C.2       13 UNK         0.4989 
     24 O         -53.5057  -30.8854   10.6625 O.2       13 UNK        -0.4996 
     25 CA        -51.8364  -29.4068   11.5237 C.3       12 UNK         0.0216 
     26 CB        -51.8463  -28.2421   10.5241 C.3       12 UNK        -0.1964 
     27 N         -51.3607  -28.9225   12.8249 N.am      12 UNK        -0.4276 
     28 C         -51.2270  -29.6515   13.9435 C.2       12 UNK         0.5020 
     29 O         -51.3723  -30.8742   13.9877 O.2       12 UNK        -0.5489 
     30 CA        -50.9719  -28.8727   15.2484 C.3       11 UNK         0.0294 
     31 CB        -49.4710  -28.8610   15.5780 C.3       11 UNK        -0.2019 
     32 N         -51.4847  -27.4945   15.2199 N.am      11 UNK        -0.4493 
     33 C         -52.7630  -27.1466   14.9997 C.2       11 UNK         0.4932 
     34 O         -53.6750  -27.9682   14.8884 O.2       11 UNK        -0.5029 
     35 CA        -53.0587  -25.6462   14.7970 C.3       10 UNK         0.0280 
     36 CB        -54.5585  -25.3051   14.9252 C.3       10 UNK        -0.1976 
     37 N         -52.2418  -24.7581   15.6315 N.am      10 UNK        -0.4242 
     38 C         -52.2010  -24.7306   16.9727 C.2       10 UNK         0.5072 
     39 O         -52.8896  -25.4549   17.6947 O.2       10 UNK        -0.5224 
     40 CA        -51.2248  -23.7207   17.6133 C.3       9 UNK         0.0343 
     41 CB        -50.9822  -23.9989   19.1121 C.3       9 UNK        -0.2003 
     42 N         -49.9381  -23.5989   16.9156 N.am      9 UNK        -0.4272 
     43 C         -49.0722  -24.5749   16.6072 C.2       9 UNK         0.4988 
     44 O         -49.2927  -25.7699   16.8041 O.2       9 UNK        -0.5108 
     45 CA        -47.7365  -24.1336   15.9710 C.3       8 UNK         0.0248 
     46 CB        -46.8044  -25.3265   15.6872 C.3       8 UNK        -0.2001 
     47 N         -47.9243  -23.3715   14.7330 N.am      8 UNK        -0.4140 
     48 C         -48.3819  -22.1144   14.6474 C.2       8 UNK         0.5028 
     49 O         -48.6369  -21.4138   15.6287 O.2       8 UNK        -0.5428 
     50 CA        -48.6594  -21.5623   13.2391 C.3       7 UNK         0.0264 
     51 CB        -47.3806  -20.9714   12.6254 C.3       7 UNK        -0.1988 
     52 N         -49.2322  -22.5544   12.3240 N.am      7 UNK        -0.4454 
     53 C         -50.3921  -23.2051   12.5120 C.2       7 UNK         0.5027 
     54 O         -51.1236  -23.0446   13.4911 O.2       7 UNK        -0.5083 
     55 CA        -50.7766  -24.2430   11.4414 C.3       6 UNK         0.0844 
     56 C56       -51.3336  -23.5544   10.1719 C.3       14 UNK        -0.0967 
     57 S57       -51.9212  -24.7733    8.9549 S.3       14 UNK        -0.2604 
     58 C58       -53.7264  -24.7712    9.2586 C.3       14 UNK         0.0134 
     59 N         -49.6430  -25.1344   11.1757 N.am      6 UNK        -0.4116 
     60 C         -49.2064  -26.0628   12.0383 C.2       5 UNK         0.5034 
     61 O         -49.8104  -26.3694   13.0649 O.2       5 UNK        -0.5045 
     62 CA        -47.8691  -26.7557   11.7282 C.3       5 UNK         0.0224 
     63 CB        -48.0807  -28.1125   11.0388 C.3       5 UNK        -0.1978 
     64 N         -46.9807  -25.9215   10.9168 N.am      5 UNK        -0.4737 
     65 C         -46.3077  -24.8656   11.3958 C.2       4 UNK         0.5027 
     66 O         -46.3483  -24.5114   12.5722 O.2       4 UNK        -0.5211 
     67 CA        -45.4908  -24.0379   10.3892 C.3       4 UNK         0.0297 
     68 CB        -44.0849  -24.6338   10.2192 C.3       4 UNK        -0.1993 
     69 N         -46.1395  -23.9285    9.0809 N.am      4 UNK        -0.4486 
     70 C         -47.3277  -23.3464    8.8649 C.2       3 UNK         0.4961 
     71 O         -47.9812  -22.7821    9.7424 O.2       3 UNK        -0.5105 
     72 CA        -47.9105  -23.4616    7.4456 C.3       3 UNK         0.0299 
     73 CB        -47.5121  -22.2416    6.6010 C.3       3 UNK        -0.1972 
     74 N         -47.5230  -24.6940    6.7464 N.am      3 UNK        -0.4305 
     75 C         -47.8408  -25.9303    7.1550 C.2       2 UNK         0.5006 
     76 O         -48.4685  -26.1709    8.1880 O.2       2 UNK        -0.5106 
     77 CA        -47.3420  -27.1005    6.2935 C.3       2 UNK         0.0296 
     78 CB        -46.3351  -27.9596    7.0773 C.3       2 UNK        -0.2002 
     79 N         -48.4703  -27.9320    5.8773 N.am      2 UNK        -0.4032 
     80 C         -49.3535  -27.5831    4.9302 C.2       1 UNK         0.5000 
     81 O         -49.2304  -26.5824    4.2204 O.2       1 UNK        -0.5238 
     82 H82       -48.3696  -32.3664    5.0377 H         1 UNK         0.0889 
     83 H83       -49.7636  -32.8341    4.0600 H         1 UNK         0.0889 
     84 H84       -49.9901  -32.3296    5.7356 H         1 UNK         0.0889 
     85 H85       -50.8214  -30.2587    5.8767 H         1 UNK         0.3028 
     86 H86       -50.8882  -28.4208    3.7054 H         1 UNK         0.0864 
     87 H87       -51.8744  -26.8386    5.4200 H         1 UNK         0.0720 
     88 H88       -51.4957  -28.0044    6.6676 H         1 UNK         0.0720 
     89 H89       -52.9863  -29.7644    7.4261 H         1 UNK         0.0814 
     90 H90       -54.5545  -30.1390    6.7722 H         1 UNK         0.0814 
     91 H91       -53.0449  -26.7287    7.4714 H         1 UNK         0.1469 
     92 H92       -55.9414  -25.7878   10.4608 H         1 UNK         0.1381 
     93 H93       -56.0593  -29.5949    8.5011 H         1 UNK         0.1206 
     94 H94       -57.9149  -28.9205    9.8954 H         1 UNK         0.0813 
     95 H95       -58.0782  -27.2395   10.3284 H         1 UNK         0.0813 
     96 H96       -57.3167  -30.8152   12.1952 H         1 UNK         0.0638 
     97 H97       -56.1610  -30.4494   10.9408 H         1 UNK         0.0638 
     98 H98       -55.5576  -30.0916   13.9125 H         1 UNK         0.0568 
     99 H99       -53.7837  -33.4591   13.8360 H         1 UNK         0.3450 
    100 H100      -53.0881  -31.8605   13.6985 H         1 UNK         0.3450 
    101 H101      -53.7199  -29.1267   13.2832 H         1 UNK         0.2987 
    102 H102      -51.1199  -30.1536   11.1765 H         1 UNK         0.0766 
    103 H103      -52.5423  -27.4582   10.8249 H         1 UNK         0.0798 
    104 H104      -52.1482  -28.5893    9.5369 H         1 UNK         0.0798 
    105 H105      -50.8645  -27.7907   10.4069 H         1 UNK         0.0798 
    106 H106      -51.1519  -27.9324   12.9009 H         1 UNK         0.3198 
    107 H107      -51.4963  -29.4004   16.0474 H         1 UNK         0.0843 
    108 H108      -49.2871  -28.4418   16.5671 H         1 UNK         0.0831 
    109 H109      -48.9023  -28.2755   14.8547 H         1 UNK         0.0831 
    110 H110      -49.0608  -29.8719   15.5767 H         1 UNK         0.0831 
    111 H111      -50.7905  -26.7594   15.2939 H         1 UNK         0.3133 
    112 H112      -52.7701  -25.4308   13.7688 H         1 UNK         0.0566 
    113 H113      -55.1507  -25.8649   14.1996 H         1 UNK         0.0814 
    114 H114      -54.9457  -25.5478   15.9152 H         1 UNK         0.0814 
    115 H115      -54.7417  -24.2465   14.7418 H         1 UNK         0.0814 
    116 H116      -51.6499  -24.1117   15.1165 H         1 UNK         0.3091 
    117 H117      -51.7072  -22.7456   17.5323 H         1 UNK         0.0702 
    118 H118      -50.3212  -23.2525   19.5527 H         1 UNK         0.0785 
    119 H119      -50.5331  -24.9802   19.2704 H         1 UNK         0.0785 
    120 H120      -51.9167  -23.9726   19.6741 H         1 UNK         0.0785 
    121 H121      -49.6610  -22.6555   16.6527 H         1 UNK         0.2998 
    122 H122      -47.2358  -23.4886   16.6958 H         1 UNK         0.0697 
    123 H123      -45.8446  -24.9958   15.2898 H         1 UNK         0.0825 
    124 H124      -46.6001  -25.8911   16.5977 H         1 UNK         0.0825 
    125 H125      -47.2459  -26.0161   14.9671 H         1 UNK         0.0825 
    126 H126      -47.6679  -23.8473   13.8726 H         1 UNK         0.3029 
    127 H127      -49.3909  -20.7582   13.3428 H         1 UNK         0.0897 
    128 H128      -47.5772  -20.5238   11.6508 H         1 UNK         0.0792 
    129 H129      -46.9663  -20.1902   13.2642 H         1 UNK         0.0792 
    130 H130      -46.6085  -21.7298   12.4954 H         1 UNK         0.0792 
    131 H131      -48.7139  -22.7274   11.4645 H         1 UNK         0.3086 
    132 H132      -51.5828  -24.8512   11.8552 H         1 UNK         0.0583 
    133 H133      -52.1500  -22.8748   10.4245 H         1 UNK         0.1020 
    134 H134      -50.5727  -22.9372    9.6932 H         1 UNK         0.1020 
    135 H135      -53.9058  -24.4837   10.2958 H         1 UNK         0.0694 
    136 H136      -54.1919  -24.0069    8.6353 H         1 UNK         0.0694 
    137 H137      -49.1228  -24.9743   10.3239 H         1 UNK         0.2989 
    138 H138      -47.3801  -26.9450   12.6864 H         1 UNK         0.1055 
    139 H139      -48.5497  -28.0067   10.0610 H         1 UNK         0.0806 
    140 H140      -48.7177  -28.7614   11.6408 H         1 UNK         0.0806 
    141 H141      -47.1342  -28.6345   10.8981 H         1 UNK         0.0806 
    142 H142      -46.9615  -26.1097    9.9230 H         1 UNK         0.3061 
    143 H143      -45.3882  -23.0295   10.7948 H         1 UNK         0.0734 
    144 H144      -43.4649  -24.0126    9.5726 H         1 UNK         0.0832 
    145 H145      -43.5749  -24.7059   11.1810 H         1 UNK         0.0832 
    146 H146      -44.1177  -25.6373    9.7927 H         1 UNK         0.0832 
    147 H147      -45.6708  -24.3601    8.2980 H         1 UNK         0.3156 
    148 H148      -48.9985  -23.4684    7.5420 H         1 UNK         0.0589 
    149 H149      -46.4341  -22.1927    6.4420 H         1 UNK         0.0808 
    150 H150      -47.9966  -22.2590    5.6246 H         1 UNK         0.0808 
    151 H151      -47.8113  -21.3141    7.0917 H         1 UNK         0.0808 
    152 H152      -47.0129  -24.5836    5.8812 H         1 UNK         0.3098 
    153 H153      -46.8422  -26.7123    5.4032 H         1 UNK         0.0720 
    154 H154      -45.4748  -27.3663    7.3898 H         1 UNK         0.0791 
    155 H155      -46.7793  -28.3883    7.9769 H         1 UNK         0.0791 
    156 H156      -45.9569  -28.7805    6.4677 H         1 UNK         0.0791 
    157 H157      -48.6617  -28.7515    6.4340 H         1 UNK         0.3028 
@<TRIPOS>BOND
     1    1    2 1    
     2    1   82 1    
     3    1   83 1    
     4    1   84 1    
     5    2    3 2    
     6    2    4 am   BACKBONE|DICT|INTERRES
     7    4    5 1    
     8    4   85 1    
     9    5    6 1    
    10    5   80 1    
    11    5   86 1    
    12    6    7 1    
    13    6   87 1    
    14    6   88 1    
    15    7    8 1    
    16    8    9 1    
    17    8   89 1    
    18    8   90 1    
    19    9   10 ar   
    20    9   14 ar   
    21   10   11 ar   
    22   10   91 1    
    23   11   12 ar   
    24   11   58 1    
    25   12   13 ar   
    26   12   92 1    
    27   13   14 ar   
    28   13   15 1    
    29   14   93 1    
    30   15   16 1    
    31   15   94 1    
    32   15   95 1    
    33   16   17 1    
    34   17   18 1    
    35   17   96 1    
    36   17   97 1    
    37   18   19 1    
    38   18   22 1    
    39   18   98 1    
    40   19   20 am   BACKBONE|DICT|INTERRES
    41   19   21 2    
    42   20   99 1    
    43   20  100 1    
    44   22   23 am   BACKBONE|DICT|INTERRES
    45   22  101 1    
    46   23   24 2    
    47   23   25 1    
    48   25   26 1    
    49   25   27 1    
    50   25  102 1    
    51   26  103 1    
    52   26  104 1    
    53   26  105 1    
    54   27   28 am   BACKBONE|DICT|INTERRES
    55   27  106 1    
    56   28   29 2    
    57   28   30 1    
    58   30   31 1    
    59   30   32 1    
    60   30  107 1    
    61   31  108 1    
    62   31  109 1    
    63   31  110 1    
    64   32   33 am   BACKBONE|DICT|INTERRES
    65   32  111 1    
    66   33   34 2    
    67   33   35 1    
    68   35   36 1    
    69   35   37 1    
    70   35  112 1    
    71   36  113 1    
    72   36  114 1    
    73   36  115 1    
    74   37   38 am   BACKBONE|DICT|INTERRES
    75   37  116 1    
    76   38   39 2    
    77   38   40 1    
    78   40   41 1    
    79   40   42 1    
    80   40  117 1    
    81   41  118 1    
    82   41  119 1    
    83   41  120 1    
    84   42   43 am   BACKBONE|DICT|INTERRES
    85   42  121 1    
    86   43   44 2    
    87   43   45 1    
    88   45   46 1    
    89   45   47 1    
    90   45  122 1    
    91   46  123 1    
    92   46  124 1    
    93   46  125 1    
    94   47   48 am   BACKBONE|DICT|INTERRES
    95   47  126 1    
    96   48   49 2    
    97   48   50 1    
    98   50   51 1    
    99   50   52 1    
   100   50  127 1    
   101   51  128 1    
   102   51  129 1    
   103   51  130 1    
   104   52   53 am   BACKBONE|DICT|INTERRES
   105   52  131 1    
   106   53   54 2    
   107   53   55 1    
   108   55   56 1    
   109   55   59 1    
   110   55  132 1    
   111   56   57 1    
   112   56  133 1    
   113   56  134 1    
   114   57   58 1    
   115   58  135 1    
   116   58  136 1    
   117   59   60 am   BACKBONE|DICT|INTERRES
   118   59  137 1    
   119   60   61 2    
   120   60   62 1    
   121   62   63 1    
   122   62   64 1    
   123   62  138 1    
   124   63  139 1    
   125   63  140 1    
   126   63  141 1    
   127   64   65 am   BACKBONE|DICT|INTERRES
   128   64  142 1    
   129   65   66 2    
   130   65   67 1    
   131   67   68 1    
   132   67   69 1    
   133   67  143 1    
   134   68  144 1    
   135   68  145 1    
   136   68  146 1    
   137   69   70 am   BACKBONE|DICT|INTERRES
   138   69  147 1    
   139   70   71 2    
   140   70   72 1    
   141   72   73 1    
   142   72   74 1    
   143   72  148 1    
   144   73  149 1    
   145   73  150 1    
   146   73  151 1    
   147   74   75 am   BACKBONE|DICT|INTERRES
   148   74  152 1    
   149   75   76 2    
   150   75   77 1    
   151   77   78 1    
   152   77   79 1    
   153   77  153 1    
   154   78  154 1    
   155   78  155 1    
   156   78  156 1    
   157   79   80 am   BACKBONE|DICT|INTERRES
   158   79  157 1    
   159   80   81 2    
@<TRIPOS>SUBSTRUCTURE
     1 UNK         1 GROUP             0       ****    0 ROOT    
