@<TRIPOS>MOLECULE
3R207
157   159    1
SMALL
USER_CHARGES


@<TRIPOS>ATOM
      1 CA        -50.3607  -23.6421    3.2319 C.3       0 UNK        -0.1975 
      2 C         -49.8170  -24.9590    3.7645 C.2       0 UNK         0.4852 
      3 O         -49.1575  -25.6932    3.0276 O.2       0 UNK        -0.5216 
      4 N         -50.0717  -25.2564    5.0461 N.am      1 UNK        -0.4461 
      5 CA        -49.6875  -26.4679    5.7872 C.3       1 UNK         0.0864 
      6 C6        -50.2182  -27.7810    5.1494 C.3       14 UNK        -0.0898 
      7 S7        -50.6805  -29.0280    6.3994 S.3       14 UNK        -0.2598 
      8 C8        -52.4960  -28.8557    6.4497 C.3       14 UNK         0.0286 
      9 C9        -52.9367  -27.6577    7.2814 C.ar      14 UNK        -0.0844 
     10 C10       -52.9710  -26.3791    6.7185 C.ar      14 UNK        -0.0881 
     11 C11       -53.3503  -25.2745    7.4842 C.ar      14 UNK        -0.0643 
     12 C12       -53.7563  -25.4662    8.8076 C.ar      14 UNK        -0.0930 
     13 C13       -53.7537  -26.7412    9.3838 C.ar      14 UNK        -0.0827 
     14 C14       -53.3242  -27.8313    8.6139 C.ar      14 UNK        -0.1249 
     15 C15       -54.2152  -26.8712   10.8366 C.3       14 UNK         0.0141 
     16 S16       -54.6161  -28.5587   11.4118 S.3       14 UNK        -0.2313 
     17 C17       -53.0020  -29.1446   12.0329 C.3       14 UNK        -0.0915 
     18 CA        -53.1453  -30.1388   13.2195 C.3       13 UNK         0.0968 
     19 C         -51.7740  -30.7274   13.6635 C.2       13 UNK         0.5732 
     20 N         -51.4793  -30.8500   14.9537 N.am      13 UNK        -0.7310 
     21 O         -50.9619  -31.1022   12.8213 O.2       13 UNK        -0.5035 
     22 N         -53.8981  -29.5545   14.3410 N.am      13 UNK        -0.4233 
     23 C         -54.9383  -30.1332   14.9530 C.2       13 UNK         0.4989 
     24 O         -55.4315  -31.2054   14.5964 O.2       13 UNK        -0.4996 
     25 CA        -55.5304  -29.3911   16.1703 C.3       12 UNK         0.0216 
     26 CB        -56.3843  -30.3087   17.0717 C.3       12 UNK        -0.1964 
     27 N         -54.5362  -28.6698   16.9759 N.am      12 UNK        -0.4276 
     28 C         -53.4447  -29.1762   17.5748 C.2       12 UNK         0.5020 
     29 O         -53.1137  -30.3601   17.4921 O.2       12 UNK        -0.5489 
     30 CA        -52.5512  -28.2000   18.3666 C.3       11 UNK         0.0294 
     31 CB        -51.0571  -28.5235   18.1785 C.3       11 UNK        -0.2019 
     32 N         -52.7828  -26.8181   17.9472 N.am      11 UNK        -0.4493 
     33 C         -53.3958  -25.8663   18.6635 C.2       11 UNK         0.4932 
     34 O         -53.7755  -26.0206   19.8241 O.2       11 UNK        -0.5029 
     35 CA        -53.6544  -24.5160   17.9630 C.3       10 UNK         0.0280 
     36 CB        -52.6077  -23.4791   18.3997 C.3       10 UNK        -0.1976 
     37 N         -53.6631  -24.6023   16.4981 N.am      10 UNK        -0.4242 
     38 C         -54.5649  -25.2884   15.7759 C.2       10 UNK         0.5072 
     39 O         -55.5322  -25.8689   16.2689 O.2       10 UNK        -0.5224 
     40 CA        -54.3002  -25.4271   14.2640 C.3       9 UNK         0.0343 
     41 CB        -54.9916  -24.2864   13.5016 C.3       9 UNK        -0.2003 
     42 N         -52.8723  -25.4461   13.9274 N.am      9 UNK        -0.4272 
     43 C         -51.9756  -26.3118   14.4287 C.2       9 UNK         0.4988 
     44 O         -52.2999  -27.2891   15.1018 O.2       9 UNK        -0.5108 
     45 CA        -50.4754  -26.0346   14.2122 C.3       8 UNK         0.0248 
     46 CB        -49.8461  -27.1236   13.3295 C.3       8 UNK        -0.2001 
     47 N         -50.1755  -24.7123   13.6540 N.am      8 UNK        -0.4140 
     48 C         -50.4704  -23.5361   14.2349 C.2       8 UNK         0.5028 
     49 O         -50.9623  -23.4415   15.3608 O.2       8 UNK        -0.5428 
     50 CA        -50.2636  -22.2545   13.4014 C.3       7 UNK         0.0264 
     51 CB        -48.9461  -21.5682   13.7952 C.3       7 UNK        -0.1988 
     52 N         -50.2751  -22.4756   11.9507 N.am      7 UNK        -0.4454 
     53 C         -51.2759  -23.0324   11.2488 C.2       7 UNK         0.5027 
     54 O         -52.3710  -23.3117   11.7384 O.2       7 UNK        -0.5083 
     55 CA        -50.9878  -23.4218    9.7803 C.3       6 UNK         0.0844 
     56 C56       -51.7497  -22.4977    8.8005 C.3       14 UNK        -0.0967 
     57 S57       -51.6828  -23.0951    7.0753 S.3       14 UNK        -0.2604 
     58 C58       -53.3185  -23.8791    6.8770 C.3       14 UNK         0.0134 
     59 N         -49.5541  -23.5329    9.4622 N.am      6 UNK        -0.4116 
     60 C         -48.7228  -24.4198   10.0289 C.2       5 UNK         0.5034 
     61 O         -49.0693  -25.1761   10.9373 O.2       5 UNK        -0.5045 
     62 CA        -47.2712  -24.4325    9.5227 C.3       5 UNK         0.0224 
     63 CB        -46.3865  -23.4341   10.2958 C.3       5 UNK        -0.1978 
     64 N         -46.7318  -25.7984    9.5219 N.am      5 UNK        -0.4737 
     65 C         -46.3159  -26.5586   10.5468 C.2       4 UNK         0.5027 
     66 O         -46.0921  -26.1366   11.6816 O.2       4 UNK        -0.5211 
     67 CA        -46.1249  -28.0619   10.2752 C.3       4 UNK         0.0297 
     68 CB        -47.3190  -28.8562   10.8337 C.3       4 UNK        -0.1993 
     69 N         -45.9659  -28.3842    8.8512 N.am      4 UNK        -0.4486 
     70 C         -45.0196  -29.1933    8.3527 C.2       3 UNK         0.4961 
     71 O         -44.1629  -29.7510    9.0400 O.2       3 UNK        -0.5105 
     72 CA        -45.0219  -29.4446    6.8303 C.3       3 UNK         0.0299 
     73 CB        -45.7918  -30.7351    6.5050 C.3       3 UNK        -0.1972 
     74 N         -45.5867  -28.3427    6.0488 N.am      3 UNK        -0.4305 
     75 C         -45.0505  -27.1190    5.9473 C.2       2 UNK         0.5006 
     76 O         -43.9522  -26.8169    6.4155 O.2       2 UNK        -0.5106 
     77 CA        -45.8722  -26.0335    5.2229 C.3       2 UNK         0.0296 
     78 CB        -45.3106  -25.7941    3.8118 C.3       2 UNK        -0.2002 
     79 N         -47.3228  -26.2519    5.1210 N.am      2 UNK        -0.4032 
     80 C         -48.1816  -26.5405    6.1089 C.2       1 UNK         0.5000 
     81 O         -47.8287  -26.8339    7.2505 O.2       1 UNK        -0.5238 
     82 H82       -49.5421  -23.0090    2.8910 H         1 UNK         0.0889 
     83 H83       -50.9205  -23.0944    3.9898 H         1 UNK         0.0889 
     84 H84       -51.0245  -23.8258    2.3877 H         1 UNK         0.0889 
     85 H85       -50.5784  -24.5766    5.6010 H         1 UNK         0.3028 
     86 H86       -50.1782  -26.3409    6.7539 H         1 UNK         0.0864 
     87 H87       -49.4867  -28.2189    4.4673 H         1 UNK         0.0720 
     88 H88       -51.0917  -27.5788    4.5289 H         1 UNK         0.0720 
     89 H89       -52.9163  -29.7709    6.8695 H         1 UNK         0.0814 
     90 H90       -52.8968  -28.7835    5.4376 H         1 UNK         0.0814 
     91 H91       -52.6814  -26.2386    5.6870 H         1 UNK         0.1469 
     92 H92       -54.0649  -24.6141    9.3983 H         1 UNK         0.1381 
     93 H93       -53.2955  -28.8241    9.0382 H         1 UNK         0.1206 
     94 H94       -53.4598  -26.4259   11.4819 H         1 UNK         0.0813 
     95 H95       -55.1183  -26.2732   10.9641 H         1 UNK         0.0813 
     96 H96       -52.4777  -29.6132   11.1987 H         1 UNK         0.0638 
     97 H97       -52.3963  -28.2908   12.3317 H         1 UNK         0.0638 
     98 H98       -53.6930  -30.9992   12.8325 H         1 UNK         0.0568 
     99 H99       -52.1460  -30.5976   15.6737 H         1 UNK         0.3450 
    100 H100      -50.5892  -31.2420   15.2139 H         1 UNK         0.3450 
    101 H101      -53.5009  -28.7017   14.7253 H         1 UNK         0.2987 
    102 H102      -56.1925  -28.6286   15.7573 H         1 UNK         0.0766 
    103 H103      -55.7958  -31.1293   17.4836 H         1 UNK         0.0798 
    104 H104      -56.8169  -29.7549   17.9048 H         1 UNK         0.0798 
    105 H105      -57.2121  -30.7487   16.5143 H         1 UNK         0.0798 
    106 H106      -54.7076  -27.6745   17.0668 H         1 UNK         0.3198 
    107 H107      -52.7998  -28.3259   19.4223 H         1 UNK         0.0843 
    108 H108      -50.8216  -29.5238   18.5441 H         1 UNK         0.0831 
    109 H109      -50.4276  -27.8241   18.7285 H         1 UNK         0.0831 
    110 H110      -50.7657  -28.4831   17.1279 H         1 UNK         0.0831 
    111 H111      -52.5394  -26.6243   16.9814 H         1 UNK         0.3133 
    112 H112      -54.6380  -24.1648   18.2815 H         1 UNK         0.0566 
    113 H113      -52.8125  -22.5001   17.9660 H         1 UNK         0.0814 
    114 H114      -52.6043  -23.3586   19.4839 H         1 UNK         0.0814 
    115 H115      -51.6005  -23.7730   18.1006 H         1 UNK         0.0814 
    116 H116      -52.8788  -24.1722   16.0176 H         1 UNK         0.3091 
    117 H117      -54.7296  -26.3762   13.9366 H         1 UNK         0.0702 
    118 H118      -54.8648  -24.3868   12.4245 H         1 UNK         0.0785 
    119 H119      -54.5947  -23.3119   13.7896 H         1 UNK         0.0785 
    120 H120      -56.0639  -24.2759   13.7018 H         1 UNK         0.0785 
    121 H121      -52.5401  -24.6826   13.3482 H         1 UNK         0.2998 
    122 H122      -50.0037  -26.0844   15.1955 H         1 UNK         0.0697 
    123 H123      -50.2765  -27.1310   12.3276 H         1 UNK         0.0825 
    124 H124      -49.9967  -28.1151   13.7587 H         1 UNK         0.0825 
    125 H125      -48.7708  -26.9755   13.2268 H         1 UNK         0.0825 
    126 H126      -49.7750  -24.7116   12.7194 H         1 UNK         0.3029 
    127 H127      -51.0899  -21.5806   13.6375 H         1 UNK         0.0897 
    128 H128      -48.8276  -20.6115   13.2861 H         1 UNK         0.0792 
    129 H129      -48.9165  -21.3676   14.8673 H         1 UNK         0.0792 
    130 H130      -48.0806  -22.1877   13.5557 H         1 UNK         0.0792 
    131 H131      -49.4143  -22.2789   11.4621 H         1 UNK         0.3086 
    132 H132      -51.3941  -24.4279    9.6667 H         1 UNK         0.0583 
    133 H133      -52.7952  -22.3950    9.0982 H         1 UNK         0.1020 
    134 H134      -51.3350  -21.4884    8.8307 H         1 UNK         0.1020 
    135 H135      -54.0948  -23.2494    7.3141 H         1 UNK         0.0694 
    136 H136      -53.5475  -23.9391    5.8118 H         1 UNK         0.0694 
    137 H137      -49.2150  -22.9296    8.7269 H         1 UNK         0.2989 
    138 H138      -47.2827  -24.1285    8.4746 H         1 UNK         0.1055 
    139 H139      -45.3428  -23.5089    9.9903 H         1 UNK         0.0806 
    140 H140      -46.4340  -23.5931   11.3736 H         1 UNK         0.0806 
    141 H141      -46.7056  -22.4079   10.1105 H         1 UNK         0.0806 
    142 H142      -46.9504  -26.2887    8.6575 H         1 UNK         0.3061 
    143 H143      -45.2301  -28.3585   10.8265 H         1 UNK         0.0734 
    144 H144      -47.4467  -28.6712   11.9009 H         1 UNK         0.0832 
    145 H145      -48.2518  -28.5778   10.3409 H         1 UNK         0.0832 
    146 H146      -47.1778  -29.9295   10.7066 H         1 UNK         0.0832 
    147 H147      -46.6378  -27.9731    8.2088 H         1 UNK         0.3156 
    148 H148      -43.9841  -29.5783    6.5177 H         1 UNK         0.0589 
    149 H149      -46.8459  -30.6558    6.7751 H         1 UNK         0.0808 
    150 H150      -45.7329  -30.9770    5.4436 H         1 UNK         0.0808 
    151 H151      -45.3787  -31.5840    7.0519 H         1 UNK         0.0808 
    152 H152      -46.4931  -28.4976    5.6326 H         1 UNK         0.3098 
    153 H153      -45.7397  -25.1151    5.7980 H         1 UNK         0.0720 
    154 H154      -45.7882  -24.9386    3.3335 H         1 UNK         0.0791 
    155 H155      -45.4575  -26.6630    3.1690 H         1 UNK         0.0791 
    156 H156      -44.2396  -25.5880    3.8434 H         1 UNK         0.0791 
    157 H157      -47.7458  -26.0525    4.2169 H         1 UNK         0.3028 
@<TRIPOS>BOND
     1    1    2 1    
     2    1   82 1    
     3    1   83 1    
     4    1   84 1    
     5    2    3 2    
     6    2    4 am   BACKBONE|DICT|INTERRES
     7    4    5 1    
     8    4   85 1    
     9    5    6 1    
    10    5   80 1    
    11    5   86 1    
    12    6    7 1    
    13    6   87 1    
    14    6   88 1    
    15    7    8 1    
    16    8    9 1    
    17    8   89 1    
    18    8   90 1    
    19    9   10 ar   
    20    9   14 ar   
    21   10   11 ar   
    22   10   91 1    
    23   11   12 ar   
    24   11   58 1    
    25   12   13 ar   
    26   12   92 1    
    27   13   14 ar   
    28   13   15 1    
    29   14   93 1    
    30   15   16 1    
    31   15   94 1    
    32   15   95 1    
    33   16   17 1    
    34   17   18 1    
    35   17   96 1    
    36   17   97 1    
    37   18   19 1    
    38   18   22 1    
    39   18   98 1    
    40   19   20 am   BACKBONE|DICT|INTERRES
    41   19   21 2    
    42   20   99 1    
    43   20  100 1    
    44   22   23 am   BACKBONE|DICT|INTERRES
    45   22  101 1    
    46   23   24 2    
    47   23   25 1    
    48   25   26 1    
    49   25   27 1    
    50   25  102 1    
    51   26  103 1    
    52   26  104 1    
    53   26  105 1    
    54   27   28 am   BACKBONE|DICT|INTERRES
    55   27  106 1    
    56   28   29 2    
    57   28   30 1    
    58   30   31 1    
    59   30   32 1    
    60   30  107 1    
    61   31  108 1    
    62   31  109 1    
    63   31  110 1    
    64   32   33 am   BACKBONE|DICT|INTERRES
    65   32  111 1    
    66   33   34 2    
    67   33   35 1    
    68   35   36 1    
    69   35   37 1    
    70   35  112 1    
    71   36  113 1    
    72   36  114 1    
    73   36  115 1    
    74   37   38 am   BACKBONE|DICT|INTERRES
    75   37  116 1    
    76   38   39 2    
    77   38   40 1    
    78   40   41 1    
    79   40   42 1    
    80   40  117 1    
    81   41  118 1    
    82   41  119 1    
    83   41  120 1    
    84   42   43 am   BACKBONE|DICT|INTERRES
    85   42  121 1    
    86   43   44 2    
    87   43   45 1    
    88   45   46 1    
    89   45   47 1    
    90   45  122 1    
    91   46  123 1    
    92   46  124 1    
    93   46  125 1    
    94   47   48 am   BACKBONE|DICT|INTERRES
    95   47  126 1    
    96   48   49 2    
    97   48   50 1    
    98   50   51 1    
    99   50   52 1    
   100   50  127 1    
   101   51  128 1    
   102   51  129 1    
   103   51  130 1    
   104   52   53 am   BACKBONE|DICT|INTERRES
   105   52  131 1    
   106   53   54 2    
   107   53   55 1    
   108   55   56 1    
   109   55   59 1    
   110   55  132 1    
   111   56   57 1    
   112   56  133 1    
   113   56  134 1    
   114   57   58 1    
   115   58  135 1    
   116   58  136 1    
   117   59   60 am   BACKBONE|DICT|INTERRES
   118   59  137 1    
   119   60   61 2    
   120   60   62 1    
   121   62   63 1    
   122   62   64 1    
   123   62  138 1    
   124   63  139 1    
   125   63  140 1    
   126   63  141 1    
   127   64   65 am   BACKBONE|DICT|INTERRES
   128   64  142 1    
   129   65   66 2    
   130   65   67 1    
   131   67   68 1    
   132   67   69 1    
   133   67  143 1    
   134   68  144 1    
   135   68  145 1    
   136   68  146 1    
   137   69   70 am   BACKBONE|DICT|INTERRES
   138   69  147 1    
   139   70   71 2    
   140   70   72 1    
   141   72   73 1    
   142   72   74 1    
   143   72  148 1    
   144   73  149 1    
   145   73  150 1    
   146   73  151 1    
   147   74   75 am   BACKBONE|DICT|INTERRES
   148   74  152 1    
   149   75   76 2    
   150   75   77 1    
   151   77   78 1    
   152   77   79 1    
   153   77  153 1    
   154   78  154 1    
   155   78  155 1    
   156   78  156 1    
   157   79   80 am   BACKBONE|DICT|INTERRES
   158   79  157 1    
   159   80   81 2    
@<TRIPOS>SUBSTRUCTURE
     1 UNK         1 GROUP             0       ****    0 ROOT    
