@<TRIPOS>MOLECULE
3R207
157   159    1
SMALL
USER_CHARGES


@<TRIPOS>ATOM
      1 CA        -44.4569  -26.9234   10.5477 C.3       0 UNK        -0.1975 
      2 C         -45.9453  -27.2269   10.6167 C.2       0 UNK         0.4852 
      3 O         -46.7592  -26.3520   10.3241 O.2       0 UNK        -0.5216 
      4 N         -46.2844  -28.4693   10.9854 N.am      1 UNK        -0.4461 
      5 CA        -47.6114  -29.0991   11.1133 C.3       1 UNK         0.0864 
      6 C6        -48.4535  -28.6327   12.3319 C.3       14 UNK        -0.0898 
      7 S7        -49.2396  -26.9873   12.2213 S.3       14 UNK        -0.2598 
      8 C8        -51.0178  -27.3706   12.1294 C.3       14 UNK         0.0286 
      9 C9        -51.6019  -26.9698   10.7861 C.ar      14 UNK        -0.0844 
     10 C10       -51.8173  -25.6201   10.4968 C.ar      14 UNK        -0.0881 
     11 C11       -52.3430  -25.2313    9.2627 C.ar      14 UNK        -0.0643 
     12 C12       -52.7087  -26.2112    8.3346 C.ar      14 UNK        -0.0930 
     13 C13       -52.5339  -27.5677    8.6280 C.ar      14 UNK        -0.0827 
     14 C14       -51.9547  -27.9400    9.8450 C.ar      14 UNK        -0.1249 
     15 C15       -53.0049  -28.6336    7.6496 C.3       14 UNK         0.0141 
     16 S16       -54.4042  -29.5917    8.3186 S.3       14 UNK        -0.2313 
     17 C17       -55.7080  -28.3205    8.4781 C.3       14 UNK        -0.0915 
     18 CA        -55.7565  -27.6379    9.8751 C.3       13 UNK         0.0968 
     19 C         -56.8821  -26.5642    9.9402 C.2       13 UNK         0.5732 
     20 N         -57.8301  -26.6421   10.8672 N.am      13 UNK        -0.7310 
     21 O         -56.8937  -25.6364    9.1349 O.2       13 UNK        -0.5035 
     22 N         -55.7731  -28.6187   10.9735 N.am      13 UNK        -0.4233 
     23 C         -55.3451  -28.3673   12.2152 C.2       13 UNK         0.4989 
     24 O         -54.8890  -27.2826   12.5854 O.2       13 UNK        -0.4996 
     25 CA        -55.4065  -29.5454   13.2014 C.3       12 UNK         0.0216 
     26 CB        -54.1485  -30.4201   13.0702 C.3       12 UNK        -0.1964 
     27 N         -55.5298  -29.0683   14.5809 N.am      12 UNK        -0.4276 
     28 C         -56.6530  -28.5599   15.1057 C.2       12 UNK         0.5020 
     29 O         -57.7292  -28.5394   14.5035 O.2       12 UNK        -0.5489 
     30 CA        -56.5604  -27.9487   16.5206 C.3       11 UNK         0.0294 
     31 CB        -57.8937  -28.0422   17.2941 C.3       11 UNK        -0.2019 
     32 N         -55.4464  -28.4559   17.3354 N.am      11 UNK        -0.4493 
     33 C         -55.2551  -29.7037   17.7859 C.2       11 UNK         0.4932 
     34 O         -55.9989  -30.6512   17.5285 O.2       11 UNK        -0.5029 
     35 CA        -53.9981  -29.9195   18.6543 C.3       10 UNK         0.0280 
     36 CB        -53.9676  -31.3116   19.3133 C.3       10 UNK        -0.1976 
     37 N         -52.7628  -29.7304   17.8881 N.am      10 UNK        -0.4242 
     38 C         -52.2593  -28.5517   17.5011 C.2       10 UNK         0.5072 
     39 O         -52.7782  -27.4624   17.7671 O.2       10 UNK        -0.5224 
     40 CA        -50.9943  -28.6030   16.6371 C.3       9 UNK         0.0343 
     41 CB        -51.3171  -29.1593   15.2379 C.3       9 UNK        -0.2003 
     42 N         -50.4479  -27.2527   16.5312 N.am      9 UNK        -0.4272 
     43 C         -49.2279  -26.9310   16.0925 C.2       9 UNK         0.4988 
     44 O         -48.3871  -27.7507   15.7158 O.2       9 UNK        -0.5108 
     45 CA        -48.8685  -25.4429   16.1107 C.3       8 UNK         0.0248 
     46 CB        -48.1734  -25.0841   17.4405 C.3       8 UNK        -0.2001 
     47 N         -47.9998  -25.1651   14.9682 N.am      8 UNK        -0.4140 
     48 C         -47.6197  -23.9553   14.5420 C.2       8 UNK         0.5028 
     49 O         -47.9554  -22.9025   15.0870 O.2       8 UNK        -0.5428 
     50 CA        -46.6910  -23.9092   13.3124 C.3       7 UNK         0.0264 
     51 CB        -45.5501  -24.9379   13.4095 C.3       7 UNK        -0.1988 
     52 N         -47.4080  -24.0682   12.0409 N.am      7 UNK        -0.4454 
     53 C         -48.3103  -23.2000   11.5596 C.2       7 UNK         0.5027 
     54 O         -48.6150  -22.1497   12.1291 O.2       7 UNK        -0.5083 
     55 CA        -48.9508  -23.5405   10.1935 C.3       6 UNK         0.0844 
     56 C56       -50.1111  -22.5650    9.8431 C.3       14 UNK        -0.0967 
     57 S57       -51.0064  -22.9905    8.3120 S.3       14 UNK        -0.2604 
     58 C58       -52.5367  -23.7566    8.9410 C.3       14 UNK         0.0134 
     59 N         -47.9438  -23.6638    9.1335 N.am      6 UNK        -0.4116 
     60 C         -47.0627  -22.7330    8.7424 C.2       5 UNK         0.5034 
     61 O         -47.0101  -21.5919    9.2029 O.2       5 UNK        -0.5045 
     62 CA        -46.0582  -23.1318    7.6535 C.3       5 UNK         0.0224 
     63 CB        -44.9418  -24.0209    8.2256 C.3       5 UNK        -0.1978 
     64 N         -46.6911  -23.8100    6.5188 N.am      5 UNK        -0.4737 
     65 C         -46.4000  -23.5522    5.2349 C.2       4 UNK         0.5027 
     66 O         -45.6010  -22.6841    4.8807 O.2       4 UNK        -0.5211 
     67 CA        -47.0760  -24.4086    4.1458 C.3       4 UNK         0.0297 
     68 CB        -46.0742  -25.4214    3.5663 C.3       4 UNK        -0.1993 
     69 N         -48.2578  -25.1321    4.6117 N.am      4 UNK        -0.4486 
     70 C         -49.4419  -24.5739    4.8913 C.2       3 UNK         0.4961 
     71 O         -49.6978  -23.3856    4.6955 O.2       3 UNK        -0.5105 
     72 CA        -50.5262  -25.4915    5.4894 C.3       3 UNK         0.0299 
     73 CB        -51.5921  -25.8220    4.4320 C.3       3 UNK        -0.1972 
     74 N         -50.0428  -26.7448    6.0838 N.am      3 UNK        -0.4305 
     75 C         -49.1561  -26.8667    7.0823 C.2       2 UNK         0.5006 
     76 O         -48.5199  -25.9298    7.5716 O.2       2 UNK        -0.5106 
     77 CA        -48.8883  -28.2971    7.5518 C.3       2 UNK         0.0296 
     78 CB        -47.9411  -29.0239    6.5794 C.3       2 UNK        -0.2002 
     79 N         -48.2941  -28.2749    8.8826 N.am      2 UNK        -0.4032 
     80 C         -48.4253  -29.2308    9.8065 C.2       1 UNK         0.5000 
     81 O         -49.1171  -30.2384    9.6423 O.2       1 UNK        -0.5238 
     82 H82       -44.0512  -27.2526    9.5915 H         1 UNK         0.0889 
     83 H83       -43.9124  -27.4243   11.3479 H         1 UNK         0.0889 
     84 H84       -44.2776  -25.8531   10.6376 H         1 UNK         0.0889 
     85 H85       -45.5249  -29.1077   11.1778 H         1 UNK         0.3028 
     86 H86       -47.3451  -30.1322   11.3445 H         1 UNK         0.0864 
     87 H87       -49.2148  -29.3834   12.5444 H         1 UNK         0.0720 
     88 H88       -47.8168  -28.6249   13.2172 H         1 UNK         0.0720 
     89 H89       -51.5344  -26.8254   12.9206 H         1 UNK         0.0814 
     90 H90       -51.2044  -28.4268   12.3215 H         1 UNK         0.0814 
     91 H91       -51.5568  -24.8707   11.2305 H         1 UNK         0.1469 
     92 H92       -53.1446  -25.9163    7.3903 H         1 UNK         0.1381 
     93 H93       -51.8098  -28.9880   10.0696 H         1 UNK         0.1206 
     94 H94       -52.1835  -29.3189    7.4391 H         1 UNK         0.0813 
     95 H95       -53.2927  -28.1928    6.6941 H         1 UNK         0.0813 
     96 H96       -55.5654  -27.5763    7.6924 H         1 UNK         0.0638 
     97 H97       -56.6633  -28.8034    8.2656 H         1 UNK         0.0638 
     98 H98       -54.8356  -27.0659    9.9843 H         1 UNK         0.0568 
     99 H99       -58.5491  -25.9369   10.8965 H         1 UNK         0.3450 
    100 H100      -57.8241  -27.3863   11.5465 H         1 UNK         0.3450 
    101 H101      -56.1202  -29.5369   10.7400 H         1 UNK         0.2987 
    102 H102      -56.2813  -30.1573   12.9699 H         1 UNK         0.0766 
    103 H103      -53.2357  -29.8366   13.1820 H         1 UNK         0.0798 
    104 H104      -54.1353  -31.2189   13.8121 H         1 UNK         0.0798 
    105 H105      -54.1054  -30.8915   12.0873 H         1 UNK         0.0798 
    106 H106      -54.6834  -29.0101   15.1254 H         1 UNK         0.3198 
    107 H107      -56.3516  -26.8892   16.3637 H         1 UNK         0.0843 
    108 H108      -58.6933  -27.5255   16.7619 H         1 UNK         0.0831 
    109 H109      -57.8152  -27.5828   18.2793 H         1 UNK         0.0831 
    110 H110      -58.2114  -29.0765   17.4292 H         1 UNK         0.0831 
    111 H111      -54.7202  -27.7804   17.5629 H         1 UNK         0.3133 
    112 H112      -54.0269  -29.1781   19.4559 H         1 UNK         0.0566 
    113 H113      -53.1111  -31.4170   19.9796 H         1 UNK         0.0814 
    114 H114      -54.8635  -31.4791   19.9128 H         1 UNK         0.0814 
    115 H115      -53.9174  -32.1107   18.5725 H         1 UNK         0.0814 
    116 H116      -52.2859  -30.5734   17.6008 H         1 UNK         0.3091 
    117 H117      -50.2628  -29.2440   17.1335 H         1 UNK         0.0702 
    118 H118      -50.4212  -29.2307   14.6228 H         1 UNK         0.0785 
    119 H119      -52.0325  -28.5212   14.7192 H         1 UNK         0.0785 
    120 H120      -51.7437  -30.1614   15.2919 H         1 UNK         0.0785 
    121 H121      -51.0745  -26.5352   16.8777 H         1 UNK         0.2998 
    122 H122      -49.7819  -24.8545   16.0016 H         1 UNK         0.0697 
    123 H123      -47.2264  -25.6136   17.5525 H         1 UNK         0.0825 
    124 H124      -47.9703  -24.0163   17.5172 H         1 UNK         0.0825 
    125 H125      -48.7989  -25.3503   18.2936 H         1 UNK         0.0825 
    126 H126      -47.7087  -25.9912   14.4592 H         1 UNK         0.3029 
    127 H127      -46.2319  -22.9182   13.3044 H         1 UNK         0.0897 
    128 H128      -44.7945  -24.7527   12.6474 H         1 UNK         0.0792 
    129 H129      -45.9063  -25.9616   13.2925 H         1 UNK         0.0792 
    130 H130      -45.0474  -24.8747   14.3757 H         1 UNK         0.0792 
    131 H131      -47.2207  -24.9108   11.4998 H         1 UNK         0.3086 
    132 H132      -49.3673  -24.5409   10.2985 H         1 UNK         0.0583 
    133 H133      -50.8259  -22.5121   10.6658 H         1 UNK         0.1020 
    134 H134      -49.7257  -21.5505    9.7266 H         1 UNK         0.1020 
    135 H135      -52.8985  -23.2191    9.8185 H         1 UNK         0.0694 
    136 H136      -53.3128  -23.6447    8.1823 H         1 UNK         0.0694 
    137 H137      -47.9284  -24.5750    8.6821 H         1 UNK         0.2989 
    138 H138      -45.5994  -22.1986    7.3182 H         1 UNK         0.1055 
    139 H139      -44.1282  -24.1399    7.5101 H         1 UNK         0.0806 
    140 H140      -45.3139  -25.0145    8.4727 H         1 UNK         0.0806 
    141 H141      -44.5170  -23.5900    9.1334 H         1 UNK         0.0806 
    142 H142      -47.3851  -24.5201    6.7350 H         1 UNK         0.3061 
    143 H143      -47.3825  -23.7335    3.3438 H         1 UNK         0.0734 
    144 H144      -45.1917  -24.9154    3.1720 H         1 UNK         0.0832 
    145 H145      -45.7318  -26.1290    4.3226 H         1 UNK         0.0832 
    146 H146      -46.5117  -25.9897    2.7452 H         1 UNK         0.0832 
    147 H147      -48.1433  -26.1154    4.8067 H         1 UNK         0.3156 
    148 H148      -51.0121  -24.9305    6.2856 H         1 UNK         0.0589 
    149 H149      -52.4258  -26.3753    4.8643 H         1 UNK         0.0808 
    150 H150      -52.0052  -24.9113    3.9958 H         1 UNK         0.0808 
    151 H151      -51.1794  -26.4157    3.6153 H         1 UNK         0.0808 
    152 H152      -50.4681  -27.5876    5.7265 H         1 UNK         0.3098 
    153 H153      -49.8436  -28.8226    7.5942 H         1 UNK         0.0720 
    154 H154      -47.7635  -30.0522    6.8949 H         1 UNK         0.0791 
    155 H155      -46.9736  -28.5241    6.5137 H         1 UNK         0.0791 
    156 H156      -48.3587  -29.0655    5.5728 H         1 UNK         0.0791 
    157 H157      -47.7916  -27.4250    9.1338 H         1 UNK         0.3028 
@<TRIPOS>BOND
     1    1    2 1    
     2    1   82 1    
     3    1   83 1    
     4    1   84 1    
     5    2    3 2    
     6    2    4 am   BACKBONE|DICT|INTERRES
     7    4    5 1    
     8    4   85 1    
     9    5    6 1    
    10    5   80 1    
    11    5   86 1    
    12    6    7 1    
    13    6   87 1    
    14    6   88 1    
    15    7    8 1    
    16    8    9 1    
    17    8   89 1    
    18    8   90 1    
    19    9   10 ar   
    20    9   14 ar   
    21   10   11 ar   
    22   10   91 1    
    23   11   12 ar   
    24   11   58 1    
    25   12   13 ar   
    26   12   92 1    
    27   13   14 ar   
    28   13   15 1    
    29   14   93 1    
    30   15   16 1    
    31   15   94 1    
    32   15   95 1    
    33   16   17 1    
    34   17   18 1    
    35   17   96 1    
    36   17   97 1    
    37   18   19 1    
    38   18   22 1    
    39   18   98 1    
    40   19   20 am   BACKBONE|DICT|INTERRES
    41   19   21 2    
    42   20   99 1    
    43   20  100 1    
    44   22   23 am   BACKBONE|DICT|INTERRES
    45   22  101 1    
    46   23   24 2    
    47   23   25 1    
    48   25   26 1    
    49   25   27 1    
    50   25  102 1    
    51   26  103 1    
    52   26  104 1    
    53   26  105 1    
    54   27   28 am   BACKBONE|DICT|INTERRES
    55   27  106 1    
    56   28   29 2    
    57   28   30 1    
    58   30   31 1    
    59   30   32 1    
    60   30  107 1    
    61   31  108 1    
    62   31  109 1    
    63   31  110 1    
    64   32   33 am   BACKBONE|DICT|INTERRES
    65   32  111 1    
    66   33   34 2    
    67   33   35 1    
    68   35   36 1    
    69   35   37 1    
    70   35  112 1    
    71   36  113 1    
    72   36  114 1    
    73   36  115 1    
    74   37   38 am   BACKBONE|DICT|INTERRES
    75   37  116 1    
    76   38   39 2    
    77   38   40 1    
    78   40   41 1    
    79   40   42 1    
    80   40  117 1    
    81   41  118 1    
    82   41  119 1    
    83   41  120 1    
    84   42   43 am   BACKBONE|DICT|INTERRES
    85   42  121 1    
    86   43   44 2    
    87   43   45 1    
    88   45   46 1    
    89   45   47 1    
    90   45  122 1    
    91   46  123 1    
    92   46  124 1    
    93   46  125 1    
    94   47   48 am   BACKBONE|DICT|INTERRES
    95   47  126 1    
    96   48   49 2    
    97   48   50 1    
    98   50   51 1    
    99   50   52 1    
   100   50  127 1    
   101   51  128 1    
   102   51  129 1    
   103   51  130 1    
   104   52   53 am   BACKBONE|DICT|INTERRES
   105   52  131 1    
   106   53   54 2    
   107   53   55 1    
   108   55   56 1    
   109   55   59 1    
   110   55  132 1    
   111   56   57 1    
   112   56  133 1    
   113   56  134 1    
   114   57   58 1    
   115   58  135 1    
   116   58  136 1    
   117   59   60 am   BACKBONE|DICT|INTERRES
   118   59  137 1    
   119   60   61 2    
   120   60   62 1    
   121   62   63 1    
   122   62   64 1    
   123   62  138 1    
   124   63  139 1    
   125   63  140 1    
   126   63  141 1    
   127   64   65 am   BACKBONE|DICT|INTERRES
   128   64  142 1    
   129   65   66 2    
   130   65   67 1    
   131   67   68 1    
   132   67   69 1    
   133   67  143 1    
   134   68  144 1    
   135   68  145 1    
   136   68  146 1    
   137   69   70 am   BACKBONE|DICT|INTERRES
   138   69  147 1    
   139   70   71 2    
   140   70   72 1    
   141   72   73 1    
   142   72   74 1    
   143   72  148 1    
   144   73  149 1    
   145   73  150 1    
   146   73  151 1    
   147   74   75 am   BACKBONE|DICT|INTERRES
   148   74  152 1    
   149   75   76 2    
   150   75   77 1    
   151   77   78 1    
   152   77   79 1    
   153   77  153 1    
   154   78  154 1    
   155   78  155 1    
   156   78  156 1    
   157   79   80 am   BACKBONE|DICT|INTERRES
   158   79  157 1    
   159   80   81 2    
@<TRIPOS>SUBSTRUCTURE
     1 UNK         1 GROUP             0       ****    0 ROOT    
