@<TRIPOS>MOLECULE
3R207
157   159    1
SMALL
USER_CHARGES


@<TRIPOS>ATOM
      1 CA        -49.5799  -29.7896    9.5207 C.3       0 UNK        -0.1975 
      2 C         -49.4349  -30.0991    8.0380 C.2       0 UNK         0.4852 
      3 O         -49.6551  -31.2369    7.6219 O.2       0 UNK        -0.5216 
      4 N         -49.0707  -29.0886    7.2424 N.am      1 UNK        -0.4461 
      5 CA        -48.9679  -29.1535    5.7782 C.3       1 UNK         0.0864 
      6 C6        -50.3186  -28.8556    5.0692 C.3       14 UNK        -0.0898 
      7 S7        -51.1571  -27.3558    5.6937 S.3       14 UNK        -0.2598 
      8 C8        -52.6376  -28.1092    6.4476 C.3       14 UNK         0.0286 
      9 C9        -53.4140  -27.1374    7.3261 C.ar      14 UNK        -0.0844 
     10 C10       -53.7781  -25.8772    6.8462 C.ar      14 UNK        -0.0881 
     11 C11       -54.4677  -24.9780    7.6619 C.ar      14 UNK        -0.0643 
     12 C12       -54.8476  -25.3697    8.9502 C.ar      14 UNK        -0.0930 
     13 C13       -54.5047  -26.6341    9.4445 C.ar      14 UNK        -0.0827 
     14 C14       -53.7772  -27.5063    8.6247 C.ar      14 UNK        -0.1249 
     15 C15       -54.8896  -26.9922   10.8813 C.3       14 UNK         0.0141 
     16 S16       -55.1757  -28.7686   11.2046 S.3       14 UNK        -0.2313 
     17 C17       -53.5044  -29.3667   11.6410 C.3       14 UNK        -0.0915 
     18 CA        -53.5071  -30.3290   12.8616 C.3       13 UNK         0.0968 
     19 C         -52.1189  -30.9965   13.0927 C.2       13 UNK         0.5732 
     20 N         -51.6535  -31.1745   14.3244 N.am      13 UNK        -0.7310 
     21 O         -51.4518  -31.3833   12.1368 O.2       13 UNK        -0.5035 
     22 N         -54.0263  -29.6811   14.0763 N.am      13 UNK        -0.4233 
     23 C         -55.0232  -30.1553   14.8334 C.2       13 UNK         0.4989 
     24 O         -55.6896  -31.1508   14.5421 O.2       13 UNK        -0.4996 
     25 CA        -55.3258  -29.3946   16.1426 C.3       12 UNK         0.0216 
     26 CB        -56.1419  -30.2365   17.1468 C.3       12 UNK        -0.1964 
     27 N         -54.1379  -28.8330   16.8003 N.am      12 UNK        -0.4276 
     28 C         -53.0359  -29.4897   17.2015 C.2       12 UNK         0.5020 
     29 O         -52.8709  -30.6994   17.0368 O.2       12 UNK        -0.5489 
     30 CA        -51.9120  -28.6630   17.8588 C.3       11 UNK         0.0294 
     31 CB        -50.5209  -29.1387   17.3999 C.3       11 UNK        -0.2019 
     32 N         -52.0452  -27.2432   17.5350 N.am      11 UNK        -0.4493 
     33 C         -52.4017  -26.2697   18.3841 C.2       11 UNK         0.4932 
     34 O         -52.5770  -26.4422   19.5901 O.2       11 UNK        -0.5029 
     35 CA        -52.6304  -24.8660   17.7855 C.3       10 UNK         0.0280 
     36 CB        -51.3998  -23.9770   18.0233 C.3       10 UNK        -0.1976 
     37 N         -52.9438  -24.8818   16.3519 N.am      10 UNK        -0.4242 
     38 C         -54.0388  -25.4455   15.8147 C.2       10 UNK         0.5072 
     39 O         -54.9455  -25.9411   16.4837 O.2       10 UNK        -0.5224 
     40 CA        -54.0980  -25.5629   14.2799 C.3       9 UNK         0.0343 
     41 CB        -54.8791  -24.3813   13.6856 C.3       9 UNK        -0.2003 
     42 N         -52.7739  -25.6468   13.6529 N.am      9 UNK        -0.4272 
     43 C         -51.8617  -26.5990   13.9138 C.2       9 UNK         0.4988 
     44 O         -52.1105  -27.5835   14.6089 O.2       9 UNK        -0.5108 
     45 CA        -50.4284  -26.4211   13.3735 C.3       8 UNK         0.0248 
     46 CB        -50.1111  -27.4894   12.3172 C.3       8 UNK        -0.2001 
     47 N         -50.1584  -25.0907   12.8217 N.am      8 UNK        -0.4140 
     48 C         -50.1856  -23.9444   13.5227 C.2       8 UNK         0.5028 
     49 O         -50.3331  -23.9014   14.7448 O.2       8 UNK        -0.5428 
     50 CA        -50.1414  -22.6247   12.7279 C.3       7 UNK         0.0264 
     51 CB        -48.7936  -21.9085   12.9045 C.3       7 UNK        -0.1988 
     52 N         -50.4568  -22.7929   11.3010 N.am      7 UNK        -0.4454 
     53 C         -51.6742  -23.1540   10.8564 C.2       7 UNK         0.5027 
     54 O         -52.6287  -23.3346   11.6135 O.2       7 UNK        -0.5083 
     55 CA        -51.8806  -23.4102    9.3494 C.3       6 UNK         0.0844 
     56 C56       -52.7498  -22.2916    8.7207 C.3       14 UNK        -0.0967 
     57 S57       -53.2041  -22.6085    6.9811 S.3       14 UNK        -0.2604 
     58 C58       -54.7473  -23.5693    7.1589 C.3       14 UNK         0.0134 
     59 N         -50.6420  -23.6721    8.6118 N.am      6 UNK        -0.4116 
     60 C         -49.8834  -24.7647    8.7781 C.2       5 UNK         0.5034 
     61 O         -50.1383  -25.6565    9.5885 O.2       5 UNK        -0.5045 
     62 CA        -48.5788  -24.8658    7.9648 C.3       5 UNK         0.0224 
     63 CB        -48.4152  -23.7837    6.8745 C.3       5 UNK        -0.1978 
     64 N         -47.4119  -24.8775    8.8561 N.am      5 UNK        -0.4737 
     65 C         -47.1161  -23.9677    9.7996 C.2       4 UNK         0.5027 
     66 O         -47.7767  -22.9484   10.0025 O.2       4 UNK        -0.5211 
     67 CA        -45.8807  -24.2490   10.6724 C.3       4 UNK         0.0297 
     68 CB        -46.2744  -25.1024   11.8906 C.3       4 UNK        -0.1993 
     69 N         -44.8217  -24.9370    9.9343 N.am      4 UNK        -0.4486 
     70 C         -44.1043  -24.4038    8.9375 C.2       3 UNK         0.4961 
     71 O         -44.1567  -23.2194    8.6052 O.2       3 UNK        -0.5105 
     72 CA        -43.1986  -25.3679    8.1518 C.3       3 UNK         0.0299 
     73 CB        -42.4820  -26.4003    9.0508 C.3       3 UNK        -0.1972 
     74 N         -43.9191  -26.0263    7.0538 N.am      3 UNK        -0.4305 
     75 C         -44.9892  -26.8305    7.1408 C.2       2 UNK         0.5006 
     76 O         -45.5407  -27.1468    8.2008 O.2       2 UNK        -0.5106 
     77 CA        -45.5419  -27.3710    5.8165 C.3       2 UNK         0.0296 
     78 CB        -44.5229  -28.2812    5.1026 C.3       2 UNK        -0.2002 
     79 N         -46.7605  -28.1250    6.0969 N.am      2 UNK        -0.4032 
     80 C         -47.7827  -28.3129    5.2548 C.2       1 UNK         0.5000 
     81 O         -47.7989  -27.8660    4.1059 O.2       1 UNK        -0.5238 
     82 H82       -49.2681  -28.7719    9.7549 H         1 UNK         0.0889 
     83 H83       -48.9739  -30.4751   10.1126 H         1 UNK         0.0889 
     84 H84       -50.6192  -29.9043    9.8275 H         1 UNK         0.0889 
     85 H85       -48.9462  -28.1697    7.6422 H         1 UNK         0.3028 
     86 H86       -48.6894  -30.1739    5.5055 H         1 UNK         0.0864 
     87 H87       -50.9784  -29.7142    5.2009 H         1 UNK         0.0720 
     88 H88       -50.1951  -28.7652    3.9887 H         1 UNK         0.0720 
     89 H89       -53.2937  -28.4805    5.6593 H         1 UNK         0.0814 
     90 H90       -52.3294  -28.9774    7.0326 H         1 UNK         0.0814 
     91 H91       -53.4874  -25.5772    5.8486 H         1 UNK         0.1469 
     92 H92       -55.3774  -24.6721    9.5846 H         1 UNK         0.1381 
     93 H93       -53.4869  -28.4787    8.9914 H         1 UNK         0.1206 
     94 H94       -54.1162  -26.6161   11.5469 H         1 UNK         0.0813 
     95 H95       -55.8063  -26.4657   11.1508 H         1 UNK         0.0813 
     96 H96       -53.1048  -29.8739   10.7619 H         1 UNK         0.0638 
     97 H97       -52.8461  -28.5202   11.8304 H         1 UNK         0.0638 
     98 H98       -54.1569  -31.1631   12.5929 H         1 UNK         0.0568 
     99 H99       -52.2003  -30.9217   15.1397 H         1 UNK         0.3450 
    100 H100      -50.7571  -31.6169   14.4437 H         1 UNK         0.3450 
    101 H101      -53.4785  -28.8917   14.4072 H         1 UNK         0.2987 
    102 H102      -55.9416  -28.5419   15.8530 H         1 UNK         0.0766 
    103 H103      -56.3713  -29.6669   18.0473 H         1 UNK         0.0798 
    104 H104      -57.0927  -30.5521   16.7156 H         1 UNK         0.0798 
    105 H105      -55.6049  -31.1370   17.4471 H         1 UNK         0.0798 
    106 H106      -54.1765  -27.8313   16.9556 H         1 UNK         0.3198 
    107 H107      -51.9908  -28.8193   18.9365 H         1 UNK         0.0843 
    108 H108      -50.4080  -29.0663   16.3172 H         1 UNK         0.0831 
    109 H109      -50.3485  -30.1794   17.6774 H         1 UNK         0.0831 
    110 H110      -49.7285  -28.5483   17.8599 H         1 UNK         0.0831 
    111 H111      -51.9530  -27.0242   16.5486 H         1 UNK         0.3133 
    112 H112      -53.4805  -24.4213   18.3069 H         1 UNK         0.0566 
    113 H113      -50.5155  -24.3697   17.5193 H         1 UNK         0.0814 
    114 H114      -51.1660  -23.9085   19.0867 H         1 UNK         0.0814 
    115 H115      -51.5664  -22.9618   17.6626 H         1 UNK         0.0814 
    116 H116      -52.2316  -24.5109   15.7321 H         1 UNK         0.3091 
    117 H117      -54.6344  -26.4841   14.0429 H         1 UNK         0.0702 
    118 H118      -54.9943  -24.4785   12.6064 H         1 UNK         0.0785 
    119 H119      -54.3810  -23.4307   13.8812 H         1 UNK         0.0785 
    120 H120      -55.8809  -24.3200   14.1130 H         1 UNK         0.0785 
    121 H121      -52.5196  -24.8754   13.0453 H         1 UNK         0.2998 
    122 H122      -49.7521  -26.5690   14.2178 H         1 UNK         0.0697 
    123 H123      -50.7685  -27.4073   11.4514 H         1 UNK         0.0825 
    124 H124      -50.2330  -28.4937   12.7256 H         1 UNK         0.0825 
    125 H125      -49.0827  -27.4068   11.9655 H         1 UNK         0.0825 
    126 H126      -50.0590  -25.0384   11.8151 H         1 UNK         0.3029 
    127 H127      -50.9107  -21.9782   13.1564 H         1 UNK         0.0897 
    128 H128      -48.7728  -20.9616   12.3649 H         1 UNK         0.0792 
    129 H129      -48.6096  -21.6857   13.9564 H         1 UNK         0.0792 
    130 H130      -47.9584  -22.5112   12.5543 H         1 UNK         0.0792 
    131 H131      -49.6824  -22.7047   10.6480 H         1 UNK         0.3086 
    132 H132      -52.4465  -24.3381    9.3053 H         1 UNK         0.0583 
    133 H133      -53.6681  -22.1498    9.2946 H         1 UNK         0.1020 
    134 H134      -52.2230  -21.3364    8.7630 H         1 UNK         0.1020 
    135 H135      -55.4365  -23.0422    7.8205 H         1 UNK         0.0694 
    136 H136      -55.2395  -23.6291    6.1872 H         1 UNK         0.0694 
    137 H137      -50.3578  -22.9741    7.9410 H         1 UNK         0.2989 
    138 H138      -48.6089  -25.8348    7.4654 H         1 UNK         0.1055 
    139 H139      -47.5114  -23.9579    6.2903 H         1 UNK         0.0806 
    140 H140      -48.3430  -22.7791    7.2929 H         1 UNK         0.0806 
    141 H141      -49.2520  -23.7984    6.1743 H         1 UNK         0.0806 
    142 H142      -46.8067  -25.6896    8.7836 H         1 UNK         0.3061 
    143 H143      -45.4921  -23.2912   11.0251 H         1 UNK         0.0734 
    144 H144      -47.0648  -24.6278   12.4713 H         1 UNK         0.0832 
    145 H145      -46.6423  -26.0855   11.5937 H         1 UNK         0.0832 
    146 H146      -45.4278  -25.2497   12.5613 H         1 UNK         0.0832 
    147 H147      -44.7468  -25.9360   10.0712 H         1 UNK         0.3156 
    148 H148      -42.4248  -24.7547    7.6868 H         1 UNK         0.0589 
    149 H149      -43.1659  -27.1278    9.4882 H         1 UNK         0.0808 
    150 H150      -41.7347  -26.9560    8.4844 H         1 UNK         0.0808 
    151 H151      -41.9598  -25.9069    9.8718 H         1 UNK         0.0808 
    152 H152      -43.5727  -25.8081    6.1295 H         1 UNK         0.3098 
    153 H153      -45.7826  -26.5156    5.1815 H         1 UNK         0.0720 
    154 H154      -44.9285  -28.6749    4.1704 H         1 UNK         0.0791 
    155 H155      -43.6110  -27.7402    4.8486 H         1 UNK         0.0791 
    156 H156      -44.2376  -29.1299    5.7258 H         1 UNK         0.0791 
    157 H157      -46.8129  -28.4880    7.0407 H         1 UNK         0.3028 
@<TRIPOS>BOND
     1    1    2 1    
     2    1   82 1    
     3    1   83 1    
     4    1   84 1    
     5    2    3 2    
     6    2    4 am   BACKBONE|DICT|INTERRES
     7    4    5 1    
     8    4   85 1    
     9    5    6 1    
    10    5   80 1    
    11    5   86 1    
    12    6    7 1    
    13    6   87 1    
    14    6   88 1    
    15    7    8 1    
    16    8    9 1    
    17    8   89 1    
    18    8   90 1    
    19    9   10 ar   
    20    9   14 ar   
    21   10   11 ar   
    22   10   91 1    
    23   11   12 ar   
    24   11   58 1    
    25   12   13 ar   
    26   12   92 1    
    27   13   14 ar   
    28   13   15 1    
    29   14   93 1    
    30   15   16 1    
    31   15   94 1    
    32   15   95 1    
    33   16   17 1    
    34   17   18 1    
    35   17   96 1    
    36   17   97 1    
    37   18   19 1    
    38   18   22 1    
    39   18   98 1    
    40   19   20 am   BACKBONE|DICT|INTERRES
    41   19   21 2    
    42   20   99 1    
    43   20  100 1    
    44   22   23 am   BACKBONE|DICT|INTERRES
    45   22  101 1    
    46   23   24 2    
    47   23   25 1    
    48   25   26 1    
    49   25   27 1    
    50   25  102 1    
    51   26  103 1    
    52   26  104 1    
    53   26  105 1    
    54   27   28 am   BACKBONE|DICT|INTERRES
    55   27  106 1    
    56   28   29 2    
    57   28   30 1    
    58   30   31 1    
    59   30   32 1    
    60   30  107 1    
    61   31  108 1    
    62   31  109 1    
    63   31  110 1    
    64   32   33 am   BACKBONE|DICT|INTERRES
    65   32  111 1    
    66   33   34 2    
    67   33   35 1    
    68   35   36 1    
    69   35   37 1    
    70   35  112 1    
    71   36  113 1    
    72   36  114 1    
    73   36  115 1    
    74   37   38 am   BACKBONE|DICT|INTERRES
    75   37  116 1    
    76   38   39 2    
    77   38   40 1    
    78   40   41 1    
    79   40   42 1    
    80   40  117 1    
    81   41  118 1    
    82   41  119 1    
    83   41  120 1    
    84   42   43 am   BACKBONE|DICT|INTERRES
    85   42  121 1    
    86   43   44 2    
    87   43   45 1    
    88   45   46 1    
    89   45   47 1    
    90   45  122 1    
    91   46  123 1    
    92   46  124 1    
    93   46  125 1    
    94   47   48 am   BACKBONE|DICT|INTERRES
    95   47  126 1    
    96   48   49 2    
    97   48   50 1    
    98   50   51 1    
    99   50   52 1    
   100   50  127 1    
   101   51  128 1    
   102   51  129 1    
   103   51  130 1    
   104   52   53 am   BACKBONE|DICT|INTERRES
   105   52  131 1    
   106   53   54 2    
   107   53   55 1    
   108   55   56 1    
   109   55   59 1    
   110   55  132 1    
   111   56   57 1    
   112   56  133 1    
   113   56  134 1    
   114   57   58 1    
   115   58  135 1    
   116   58  136 1    
   117   59   60 am   BACKBONE|DICT|INTERRES
   118   59  137 1    
   119   60   61 2    
   120   60   62 1    
   121   62   63 1    
   122   62   64 1    
   123   62  138 1    
   124   63  139 1    
   125   63  140 1    
   126   63  141 1    
   127   64   65 am   BACKBONE|DICT|INTERRES
   128   64  142 1    
   129   65   66 2    
   130   65   67 1    
   131   67   68 1    
   132   67   69 1    
   133   67  143 1    
   134   68  144 1    
   135   68  145 1    
   136   68  146 1    
   137   69   70 am   BACKBONE|DICT|INTERRES
   138   69  147 1    
   139   70   71 2    
   140   70   72 1    
   141   72   73 1    
   142   72   74 1    
   143   72  148 1    
   144   73  149 1    
   145   73  150 1    
   146   73  151 1    
   147   74   75 am   BACKBONE|DICT|INTERRES
   148   74  152 1    
   149   75   76 2    
   150   75   77 1    
   151   77   78 1    
   152   77   79 1    
   153   77  153 1    
   154   78  154 1    
   155   78  155 1    
   156   78  156 1    
   157   79   80 am   BACKBONE|DICT|INTERRES
   158   79  157 1    
   159   80   81 2    
@<TRIPOS>SUBSTRUCTURE
     1 UNK         1 GROUP             0       ****    0 ROOT    
