@<TRIPOS>MOLECULE
3R207
157   159    1
SMALL
USER_CHARGES


@<TRIPOS>ATOM
      1 CA        -48.1217  -26.4942    4.4902 C.3       0 UNK        -0.1975 
      2 C         -48.5321  -27.0223    5.8572 C.2       0 UNK         0.4852 
      3 O         -49.7242  -27.1791    6.1121 O.2       0 UNK        -0.5216 
      4 N         -47.5503  -27.2938    6.7230 N.am      1 UNK        -0.4461 
      5 CA        -47.7109  -27.7303    8.1139 C.3       1 UNK         0.0864 
      6 C6        -47.4165  -29.2424    8.3042 C.3       14 UNK        -0.0898 
      7 S7        -48.3280  -30.3284    7.1485 S.3       14 UNK        -0.2598 
      8 C8        -49.4015  -31.3149    8.2426 C.3       14 UNK         0.0286 
      9 C9        -50.7810  -30.7154    8.5152 C.ar      14 UNK        -0.0844 
     10 C10       -51.5225  -30.0637    7.5172 C.ar      14 UNK        -0.0881 
     11 C11       -52.8332  -29.6358    7.7657 C.ar      14 UNK        -0.0643 
     12 C12       -53.3988  -29.8617    9.0240 C.ar      14 UNK        -0.0930 
     13 C13       -52.6693  -30.5007   10.0287 C.ar      14 UNK        -0.0827 
     14 C14       -51.3625  -30.9191    9.7702 C.ar      14 UNK        -0.1249 
     15 C15       -53.3002  -30.7484   11.3886 C.3       14 UNK         0.0141 
     16 S16       -53.1376  -29.2689   12.4169 S.3       14 UNK        -0.2313 
     17 C17       -53.9943  -29.7583   13.9515 C.3       14 UNK        -0.0915 
     18 CA        -55.4859  -29.3248   13.9892 C.3       13 UNK         0.0968 
     19 C         -56.0919  -29.5370   15.4058 C.2       13 UNK         0.5732 
     20 N         -56.4868  -28.4913   16.1241 N.am      13 UNK        -0.7310 
     21 O         -56.2113  -30.6735   15.8571 O.2       13 UNK        -0.5035 
     22 N         -55.6689  -27.9724   13.4501 N.am      13 UNK        -0.4233 
     23 C         -56.8072  -27.4657   12.9650 C.2       13 UNK         0.4989 
     24 O         -57.8738  -28.0819   12.9398 O.2       13 UNK        -0.4996 
     25 CA        -56.7300  -26.0425   12.3748 C.3       12 UNK         0.0216 
     26 CB        -58.0290  -25.2371   12.5929 C.3       12 UNK        -0.1964 
     27 N         -55.5502  -25.2836   12.8161 N.am      12 UNK        -0.4276 
     28 C         -55.2639  -24.8951   14.0674 C.2       12 UNK         0.5020 
     29 O         -55.9894  -25.0992   15.0444 O.2       12 UNK        -0.5489 
     30 CA        -53.9348  -24.1487   14.2499 C.3       11 UNK         0.0294 
     31 CB        -54.1504  -22.6303   14.1532 C.3       11 UNK        -0.2019 
     32 N         -53.2879  -24.4648   15.5254 N.am      11 UNK        -0.4493 
     33 C         -52.7866  -25.6612   15.8553 C.2       11 UNK         0.4932 
     34 O         -52.8011  -26.6519   15.1207 O.2       11 UNK        -0.5029 
     35 CA        -52.1604  -25.7791   17.2509 C.3       10 UNK         0.0280 
     36 CB        -53.1633  -26.4066   18.2322 C.3       10 UNK        -0.1976 
     37 N         -50.9614  -26.6135   17.1865 N.am      10 UNK        -0.4242 
     38 C         -49.7779  -26.2173   16.6946 C.2       10 UNK         0.5072 
     39 O         -49.5267  -25.0551   16.3769 O.2       10 UNK        -0.5224 
     40 CA        -48.6913  -27.2931   16.5086 C.3       9 UNK         0.0343 
     41 CB        -47.5770  -27.1116   17.5522 C.3       9 UNK        -0.2003 
     42 N         -49.2395  -28.6490   16.6340 N.am      9 UNK        -0.4272 
     43 C         -49.6575  -29.4752   15.6631 C.2       9 UNK         0.4988 
     44 O         -50.2434  -30.5194   15.9445 O.2       9 UNK        -0.5108 
     45 CA        -49.4084  -29.1323   14.1809 C.3       8 UNK         0.0248 
     46 CB        -49.6181  -30.3605   13.2634 C.3       8 UNK        -0.2001 
     47 N         -50.2610  -28.0182   13.7586 N.am      8 UNK        -0.4140 
     48 C         -50.0999  -27.3334   12.6205 C.2       8 UNK         0.5028 
     49 O         -49.2065  -27.5575   11.7961 O.2       8 UNK        -0.5428 
     50 CA        -51.0933  -26.1997   12.3467 C.3       7 UNK         0.0264 
     51 CB        -50.5375  -24.8452   12.8178 C.3       7 UNK        -0.1988 
     52 N         -51.2901  -26.1509   10.9140 N.am      7 UNK        -0.4454 
     53 C         -52.4284  -25.9619   10.2494 C.2       7 UNK         0.5027 
     54 O         -53.5042  -25.6627   10.7768 O.2       7 UNK        -0.5083 
     55 CA        -52.3036  -26.1216    8.7211 C.3       6 UNK         0.0844 
     56 C56       -53.6425  -26.4971    8.0417 C.3       14 UNK        -0.0967 
     57 S57       -53.3291  -27.2240    6.3972 S.3       14 UNK        -0.2604 
     58 C58       -53.6738  -28.9967    6.6627 C.3       14 UNK         0.0134 
     59 N         -51.6848  -24.9349    8.1142 N.am      6 UNK        -0.4116 
     60 C         -50.3948  -24.5956    8.2415 C.2       5 UNK         0.5034 
     61 O         -49.5781  -25.2451    8.8964 O.2       5 UNK        -0.5045 
     62 CA        -49.9326  -23.3116    7.5438 C.3       5 UNK         0.0224 
     63 CB        -50.3126  -22.0741    8.3739 C.3       5 UNK        -0.1978 
     64 N         -48.4777  -23.3689    7.4214 N.am      5 UNK        -0.4737 
     65 C         -47.7756  -23.1533    6.3056 C.2       4 UNK         0.5027 
     66 O         -48.2786  -22.7548    5.2542 O.2       4 UNK        -0.5211 
     67 CA        -46.2676  -23.4771    6.3576 C.3       4 UNK         0.0297 
     68 CB        -45.4454  -22.6717    5.3289 C.3       4 UNK        -0.1993 
     69 N         -45.6793  -23.3838    7.7007 N.am      4 UNK        -0.4486 
     70 C         -45.5536  -22.2834    8.4619 C.2       3 UNK         0.4961 
     71 O         -45.9185  -21.1611    8.1085 O.2       3 UNK        -0.5105 
     72 CA        -44.8901  -22.4661    9.8460 C.3       3 UNK         0.0299 
     73 CB        -45.3163  -21.3833   10.8613 C.3       3 UNK        -0.1972 
     74 N         -45.0616  -23.8141   10.4063 N.am      3 UNK        -0.4305 
     75 C         -46.2201  -24.4072   10.7288 C.2       2 UNK         0.5006 
     76 O         -47.3204  -23.8563   10.6755 O.2       2 UNK        -0.5106 
     77 CA        -46.1287  -25.8890   11.1319 C.3       2 UNK         0.0296 
     78 CB        -46.5143  -26.0901   12.6071 C.3       2 UNK        -0.2002 
     79 N         -46.9670  -26.7202   10.2585 N.am      2 UNK        -0.4032 
     80 C         -46.7327  -26.8721    8.9450 C.2       1 UNK         0.5000 
     81 O         -45.7526  -26.3673    8.3793 O.2       1 UNK        -0.5238 
     82 H82       -47.0412  -26.3834    4.4006 H         1 UNK         0.0889 
     83 H83       -48.5795  -25.5216    4.3111 H         1 UNK         0.0889 
     84 H84       -48.4580  -27.1769    3.7104 H         1 UNK         0.0889 
     85 H85       -46.5891  -27.0882    6.4839 H         1 UNK         0.3028 
     86 H86       -48.7284  -27.5356    8.4546 H         1 UNK         0.0864 
     87 H87       -46.3538  -29.4452    8.1571 H         1 UNK         0.0720 
     88 H88       -47.6394  -29.5351    9.3317 H         1 UNK         0.0720 
     89 H89       -49.5547  -32.2859    7.7703 H         1 UNK         0.0814 
     90 H90       -48.8735  -31.5183    9.1755 H         1 UNK         0.0814 
     91 H91       -51.0928  -29.9110    6.5366 H         1 UNK         0.1469 
     92 H92       -54.4149  -29.5500    9.2232 H         1 UNK         0.1381 
     93 H93       -50.8068  -31.4307   10.5441 H         1 UNK         0.1206 
     94 H94       -52.8243  -31.5948   11.8863 H         1 UNK         0.0813 
     95 H95       -54.3554  -31.0018   11.2751 H         1 UNK         0.0813 
     96 H96       -53.9027  -30.8368   14.0906 H         1 UNK         0.0638 
     97 H97       -53.4459  -29.3011   14.7773 H         1 UNK         0.0638 
     98 H98       -56.0305  -30.0010   13.3277 H         1 UNK         0.0568 
     99 H99       -56.8831  -28.6403   17.0380 H         1 UNK         0.3450 
    100 H100      -56.3885  -27.5550   15.7592 H         1 UNK         0.3450 
    101 H101      -54.8385  -27.3983   13.4399 H         1 UNK         0.2987 
    102 H102      -56.6059  -26.1778   11.2993 H         1 UNK         0.0766 
    103 H103      -58.8794  -25.7303   12.1204 H         1 UNK         0.0798 
    104 H104      -57.9547  -24.2394   12.1605 H         1 UNK         0.0798 
    105 H105      -58.2669  -25.1279   13.6513 H         1 UNK         0.0798 
    106 H106      -54.8481  -25.1392   12.0916 H         1 UNK         0.3198 
    107 H107      -53.2636  -24.4520   13.4472 H         1 UNK         0.0843 
    108 H108      -54.8092  -22.2655   14.9424 H         1 UNK         0.0831 
    109 H109      -54.6057  -22.3604   13.1992 H         1 UNK         0.0831 
    110 H110      -53.2066  -22.0890   14.2235 H         1 UNK         0.0831 
    111 H111      -53.2668  -23.7255   16.2127 H         1 UNK         0.3133 
    112 H112      -51.8842  -24.7868   17.6142 H         1 UNK         0.0566 
    113 H113      -53.4814  -27.3985   17.9071 H         1 UNK         0.0814 
    114 H114      -54.0604  -25.7918   18.3182 H         1 UNK         0.0814 
    115 H115      -52.7377  -26.4998   19.2315 H         1 UNK         0.0814 
    116 H116      -51.0915  -27.5939   17.3853 H         1 UNK         0.3091 
    117 H117      -48.2479  -27.1393   15.5245 H         1 UNK         0.0702 
    118 H118      -46.7776  -27.8389   17.4083 H         1 UNK         0.0785 
    119 H119      -47.9520  -27.2217   18.5706 H         1 UNK         0.0785 
    120 H120      -47.1277  -26.1203   17.4758 H         1 UNK         0.0785 
    121 H121      -49.3684  -28.9660   17.5844 H         1 UNK         0.2998 
    122 H122      -48.3633  -28.8341   14.0826 H         1 UNK         0.0697 
    123 H123      -50.6551  -30.6961   13.2709 H         1 UNK         0.0825 
    124 H124      -49.0022  -31.1998   13.5882 H         1 UNK         0.0825 
    125 H125      -49.3445  -30.1491   12.2300 H         1 UNK         0.0825 
    126 H126      -51.0436  -27.7878   14.3624 H         1 UNK         0.3029 
    127 H127      -52.0456  -26.4216   12.8232 H         1 UNK         0.0897 
    128 H128      -49.5598  -24.6395   12.3803 H         1 UNK         0.0792 
    129 H129      -50.4277  -24.8217   13.9010 H         1 UNK         0.0792 
    130 H130      -51.1932  -24.0218   12.5368 H         1 UNK         0.0792 
    131 H131      -50.4468  -26.3259   10.3740 H         1 UNK         0.3086 
    132 H132      -51.6213  -26.9621    8.5651 H         1 UNK         0.0583 
    133 H133      -54.2105  -27.2069    8.6442 H         1 UNK         0.1020 
    134 H134      -54.2851  -25.6215    7.9361 H         1 UNK         0.1020 
    135 H135      -54.7367  -29.1187    6.8771 H         1 UNK         0.0694 
    136 H136      -53.4966  -29.5266    5.7257 H         1 UNK         0.0694 
    137 H137      -52.2973  -24.3454    7.5710 H         1 UNK         0.2989 
    138 H138      -50.4032  -23.2618    6.5592 H         1 UNK         0.1055 
    139 H139      -49.8815  -22.1161    9.3756 H         1 UNK         0.0806 
    140 H140      -51.3942  -21.9892    8.4851 H         1 UNK         0.0806 
    141 H141      -49.9620  -21.1578    7.8985 H         1 UNK         0.0806 
    142 H142      -48.0084  -23.7502    8.2356 H         1 UNK         0.3061 
    143 H143      -46.1867  -24.5284    6.0793 H         1 UNK         0.0734 
    144 H144      -45.5353  -21.5971    5.4899 H         1 UNK         0.0832 
    145 H145      -44.3879  -22.9316    5.3734 H         1 UNK         0.0832 
    146 H146      -45.7840  -22.8748    4.3122 H         1 UNK         0.0832 
    147 H147      -45.3895  -24.2714    8.0991 H         1 UNK         0.3156 
    148 H148      -43.8189  -22.3479    9.6771 H         1 UNK         0.0589 
    149 H149      -44.8343  -21.5321   11.8274 H         1 UNK         0.0808 
    150 H150      -45.0377  -20.3882   10.5123 H         1 UNK         0.0808 
    151 H151      -46.3950  -21.3788   11.0209 H         1 UNK         0.0808 
    152 H152      -44.2151  -24.3635   10.4733 H         1 UNK         0.3098 
    153 H153      -45.0979  -26.2296   11.0129 H         1 UNK         0.0720 
    154 H154      -47.5120  -25.7085   12.8201 H         1 UNK         0.0791 
    155 H155      -45.8215  -25.5638   13.2646 H         1 UNK         0.0791 
    156 H156      -46.4922  -27.1438   12.8853 H         1 UNK         0.0791 
    157 H157      -47.8113  -27.1057   10.6810 H         1 UNK         0.3028 
@<TRIPOS>BOND
     1    1    2 1    
     2    1   82 1    
     3    1   83 1    
     4    1   84 1    
     5    2    3 2    
     6    2    4 am   BACKBONE|DICT|INTERRES
     7    4    5 1    
     8    4   85 1    
     9    5    6 1    
    10    5   80 1    
    11    5   86 1    
    12    6    7 1    
    13    6   87 1    
    14    6   88 1    
    15    7    8 1    
    16    8    9 1    
    17    8   89 1    
    18    8   90 1    
    19    9   10 ar   
    20    9   14 ar   
    21   10   11 ar   
    22   10   91 1    
    23   11   12 ar   
    24   11   58 1    
    25   12   13 ar   
    26   12   92 1    
    27   13   14 ar   
    28   13   15 1    
    29   14   93 1    
    30   15   16 1    
    31   15   94 1    
    32   15   95 1    
    33   16   17 1    
    34   17   18 1    
    35   17   96 1    
    36   17   97 1    
    37   18   19 1    
    38   18   22 1    
    39   18   98 1    
    40   19   20 am   BACKBONE|DICT|INTERRES
    41   19   21 2    
    42   20   99 1    
    43   20  100 1    
    44   22   23 am   BACKBONE|DICT|INTERRES
    45   22  101 1    
    46   23   24 2    
    47   23   25 1    
    48   25   26 1    
    49   25   27 1    
    50   25  102 1    
    51   26  103 1    
    52   26  104 1    
    53   26  105 1    
    54   27   28 am   BACKBONE|DICT|INTERRES
    55   27  106 1    
    56   28   29 2    
    57   28   30 1    
    58   30   31 1    
    59   30   32 1    
    60   30  107 1    
    61   31  108 1    
    62   31  109 1    
    63   31  110 1    
    64   32   33 am   BACKBONE|DICT|INTERRES
    65   32  111 1    
    66   33   34 2    
    67   33   35 1    
    68   35   36 1    
    69   35   37 1    
    70   35  112 1    
    71   36  113 1    
    72   36  114 1    
    73   36  115 1    
    74   37   38 am   BACKBONE|DICT|INTERRES
    75   37  116 1    
    76   38   39 2    
    77   38   40 1    
    78   40   41 1    
    79   40   42 1    
    80   40  117 1    
    81   41  118 1    
    82   41  119 1    
    83   41  120 1    
    84   42   43 am   BACKBONE|DICT|INTERRES
    85   42  121 1    
    86   43   44 2    
    87   43   45 1    
    88   45   46 1    
    89   45   47 1    
    90   45  122 1    
    91   46  123 1    
    92   46  124 1    
    93   46  125 1    
    94   47   48 am   BACKBONE|DICT|INTERRES
    95   47  126 1    
    96   48   49 2    
    97   48   50 1    
    98   50   51 1    
    99   50   52 1    
   100   50  127 1    
   101   51  128 1    
   102   51  129 1    
   103   51  130 1    
   104   52   53 am   BACKBONE|DICT|INTERRES
   105   52  131 1    
   106   53   54 2    
   107   53   55 1    
   108   55   56 1    
   109   55   59 1    
   110   55  132 1    
   111   56   57 1    
   112   56  133 1    
   113   56  134 1    
   114   57   58 1    
   115   58  135 1    
   116   58  136 1    
   117   59   60 am   BACKBONE|DICT|INTERRES
   118   59  137 1    
   119   60   61 2    
   120   60   62 1    
   121   62   63 1    
   122   62   64 1    
   123   62  138 1    
   124   63  139 1    
   125   63  140 1    
   126   63  141 1    
   127   64   65 am   BACKBONE|DICT|INTERRES
   128   64  142 1    
   129   65   66 2    
   130   65   67 1    
   131   67   68 1    
   132   67   69 1    
   133   67  143 1    
   134   68  144 1    
   135   68  145 1    
   136   68  146 1    
   137   69   70 am   BACKBONE|DICT|INTERRES
   138   69  147 1    
   139   70   71 2    
   140   70   72 1    
   141   72   73 1    
   142   72   74 1    
   143   72  148 1    
   144   73  149 1    
   145   73  150 1    
   146   73  151 1    
   147   74   75 am   BACKBONE|DICT|INTERRES
   148   74  152 1    
   149   75   76 2    
   150   75   77 1    
   151   77   78 1    
   152   77   79 1    
   153   77  153 1    
   154   78  154 1    
   155   78  155 1    
   156   78  156 1    
   157   79   80 am   BACKBONE|DICT|INTERRES
   158   79  157 1    
   159   80   81 2    
@<TRIPOS>SUBSTRUCTURE
     1 UNK         1 GROUP             0       ****    0 ROOT    
