@<TRIPOS>MOLECULE
3R207
157   159    1
SMALL
USER_CHARGES


@<TRIPOS>ATOM
      1 CA        -43.5242  -32.2047    9.4256 C.3       0 UNK        -0.1975 
      2 C         -44.5432  -31.1433    9.0368 C.2       0 UNK         0.4852 
      3 O         -44.4783  -30.0236    9.5455 O.2       0 UNK        -0.5216 
      4 N         -45.4810  -31.4931    8.1443 N.am      1 UNK        -0.4461 
      5 CA        -46.5254  -30.6189    7.5967 C.3       1 UNK         0.0864 
      6 C6        -47.5285  -30.1365    8.6833 C.3       14 UNK        -0.0898 
      7 S7        -49.1688  -29.7468    7.9927 S.3       14 UNK        -0.2598 
      8 C8        -49.7933  -28.6379    9.2866 C.3       14 UNK         0.0286 
      9 C9        -51.1364  -28.0352    8.9142 C.ar      14 UNK        -0.0844 
     10 C10       -51.2054  -27.0512    7.9253 C.ar      14 UNK        -0.0881 
     11 C11       -52.4104  -26.3910    7.6654 C.ar      14 UNK        -0.0643 
     12 C12       -53.5644  -26.7673    8.3582 C.ar      14 UNK        -0.0930 
     13 C13       -53.5133  -27.7723    9.3282 C.ar      14 UNK        -0.0827 
     14 C14       -52.2958  -28.4034    9.6027 C.ar      14 UNK        -0.1249 
     15 C15       -54.7714  -28.1511   10.0931 C.3       14 UNK         0.0141 
     16 S16       -55.1599  -26.9069   11.3606 S.3       14 UNK        -0.2313 
     17 C17       -56.6693  -27.6283   12.0780 C.3       14 UNK        -0.0915 
     18 CA        -57.3071  -26.7250   13.1670 C.3       13 UNK         0.0968 
     19 C         -58.7250  -27.2454   13.5513 C.2       13 UNK         0.5732 
     20 N         -58.9701  -27.7095   14.7719 N.am      13 UNK        -0.7310 
     21 O         -59.6291  -27.2198   12.7194 O.2       13 UNK        -0.5035 
     22 N         -56.4057  -26.5242   14.3139 N.am      13 UNK        -0.4233 
     23 C         -56.5398  -25.5475   15.2216 C.2       13 UNK         0.4989 
     24 O         -57.3424  -24.6199   15.1038 O.2       13 UNK        -0.4996 
     25 CA        -55.6380  -25.6179   16.4746 C.3       12 UNK         0.0216 
     26 CB        -56.2973  -24.9612   17.7061 C.3       12 UNK        -0.1964 
     27 N         -55.1644  -26.9699   16.8115 N.am      12 UNK        -0.4276 
     28 C         -55.9102  -28.0539   17.0775 C.2       12 UNK         0.5020 
     29 O         -57.1416  -28.0622   17.0257 O.2       12 UNK        -0.5489 
     30 CA        -55.1444  -29.3574   17.3844 C.3       11 UNK         0.0294 
     31 CB        -56.0842  -30.5369   17.6983 C.3       11 UNK        -0.2019 
     32 N         -54.2764  -29.7261   16.2626 N.am      11 UNK        -0.4493 
     33 C         -53.0734  -29.1915   16.0244 C.2       11 UNK         0.4932 
     34 O         -52.5197  -28.4013   16.7925 O.2       11 UNK        -0.5029 
     35 CA        -52.4192  -29.5510   14.6859 C.3       10 UNK         0.0280 
     36 CB        -53.2694  -29.0366   13.5081 C.3       10 UNK        -0.1976 
     37 N         -51.0921  -28.9469   14.6401 N.am      10 UNK        -0.4242 
     38 C         -50.1140  -29.2432   13.7784 C.2       10 UNK         0.5072 
     39 O         -50.2200  -30.0981   12.8968 O.2       10 UNK        -0.5224 
     40 CA        -48.8070  -28.4426   13.9252 C.3       9 UNK         0.0343 
     41 CB        -47.8279  -28.6760   12.7599 C.3       9 UNK        -0.2003 
     42 N         -49.0802  -27.0073   14.0455 N.am      9 UNK        -0.4272 
     43 C         -49.1954  -26.3453   15.2048 C.2       9 UNK         0.4988 
     44 O         -49.0570  -26.8725   16.3088 O.2       9 UNK        -0.5108 
     45 CA        -49.5468  -24.8509   15.1242 C.3       8 UNK         0.0248 
     46 CB        -48.3229  -24.0221   14.7000 C.3       8 UNK        -0.2001 
     47 N         -50.6644  -24.5765   14.2197 N.am      8 UNK        -0.4140 
     48 C         -51.9349  -24.9533   14.4154 C.2       8 UNK         0.5028 
     49 O         -52.3146  -25.5688   15.4098 O.2       8 UNK        -0.5428 
     50 CA        -52.9714  -24.6060   13.3287 C.3       7 UNK         0.0264 
     51 CB        -53.6868  -23.2756   13.6347 C.3       7 UNK        -0.1988 
     52 N         -52.4561  -24.6477   11.9514 N.am      7 UNK        -0.4454 
     53 C         -51.5601  -23.8376   11.3698 C.2       7 UNK         0.5027 
     54 O         -51.0707  -22.8432   11.9101 O.2       7 UNK        -0.5083 
     55 CA        -51.0796  -24.2537    9.9684 C.3       6 UNK         0.0844 
     56 C56       -51.8234  -23.4607    8.8617 C.3       14 UNK        -0.0967 
     57 S57       -51.2878  -23.8984    7.1698 S.3       14 UNK        -0.2604 
     58 C58       -52.4486  -25.2225    6.6923 C.3       14 UNK         0.0134 
     59 N         -49.6171  -24.1791    9.8590 N.am      6 UNK        -0.4116 
     60 C         -48.7545  -24.8621   10.6277 C.2       5 UNK         0.5034 
     61 O         -49.1063  -25.6509   11.5081 O.2       5 UNK        -0.5045 
     62 CA        -47.2495  -24.6421   10.3963 C.3       5 UNK         0.0224 
     63 CB        -46.4891  -25.9791   10.3428 C.3       5 UNK        -0.1978 
     64 N         -46.9598  -23.8958    9.1696 N.am      5 UNK        -0.4737 
     65 C         -46.5259  -22.6275    9.1277 C.2       4 UNK         0.5027 
     66 O         -46.4285  -21.9110   10.1239 O.2       4 UNK        -0.5211 
     67 CA        -46.0931  -22.0591    7.7617 C.3       4 UNK         0.0297 
     68 CB        -44.5666  -21.8743    7.7211 C.3       4 UNK        -0.1993 
     69 N         -46.4910  -22.9103    6.6397 N.am      4 UNK        -0.4486 
     70 C         -47.7032  -22.9033    6.0714 C.2       3 UNK         0.4961 
     71 O         -48.5767  -22.0836    6.3514 O.2       3 UNK        -0.5105 
     72 CA        -47.9940  -23.9974    5.0239 C.3       3 UNK         0.0299 
     73 CB        -47.9386  -23.4100    3.6044 C.3       3 UNK        -0.1972 
     74 N         -47.0919  -25.1546    5.1033 N.am      3 UNK        -0.4305 
     75 C         -47.0537  -26.0283    6.1185 C.2       2 UNK         0.5006 
     76 O         -47.7770  -25.9615    7.1147 O.2       2 UNK        -0.5106 
     77 CA        -45.9719  -27.1081    6.0448 C.3       2 UNK         0.0296 
     78 CB        -44.6422  -26.5703    6.6104 C.3       2 UNK        -0.2002 
     79 N         -46.4143  -28.2701    6.8098 N.am      2 UNK        -0.4032 
     80 C         -45.9077  -29.5054    6.7143 C.2       1 UNK         0.5000 
     81 O         -44.9906  -29.7997    5.9416 O.2       1 UNK        -0.5238 
     82 H82       -43.7025  -33.1498    8.9131 H         1 UNK         0.0889 
     83 H83       -43.5654  -32.3882   10.4989 H         1 UNK         0.0889 
     84 H84       -42.5186  -31.8677    9.1755 H         1 UNK         0.0889 
     85 H85       -45.4512  -32.4209    7.7448 H         1 UNK         0.3028 
     86 H86       -47.0763  -31.2561    6.9028 H         1 UNK         0.0864 
     87 H87       -47.6840  -30.9265    9.4201 H         1 UNK         0.0720 
     88 H88       -47.1309  -29.2890    9.2451 H         1 UNK         0.0720 
     89 H89       -49.0806  -27.8292    9.4541 H         1 UNK         0.0814 
     90 H90       -49.8654  -29.1891   10.2257 H         1 UNK         0.0814 
     91 H91       -50.3052  -26.7476    7.4075 H         1 UNK         0.1469 
     92 H92       -54.4997  -26.2587    8.1672 H         1 UNK         0.1381 
     93 H93       -52.2426  -29.1671   10.3653 H         1 UNK         0.1206 
     94 H94       -54.6536  -29.1270   10.5666 H         1 UNK         0.0813 
     95 H95       -55.6095  -28.2405    9.4003 H         1 UNK         0.0813 
     96 H96       -57.3711  -27.7936   11.2580 H         1 UNK         0.0638 
     97 H97       -56.4340  -28.6129   12.4855 H         1 UNK         0.0638 
     98 H98       -57.4726  -25.7454   12.7142 H         1 UNK         0.0568 
     99 H99       -58.2480  -27.7442   15.4862 H         1 UNK         0.3450 
    100 H100      -59.8977  -28.0345   14.9911 H         1 UNK         0.3450 
    101 H101      -55.7318  -27.2530   14.4849 H         1 UNK         0.2987 
    102 H102      -54.7485  -25.0363   16.2355 H         1 UNK         0.0766 
    103 H103      -57.2332  -25.4534   17.9731 H         1 UNK         0.0798 
    104 H104      -55.6396  -24.9973   18.5746 H         1 UNK         0.0798 
    105 H105      -56.5237  -23.9107   17.5193 H         1 UNK         0.0798 
    106 H106      -54.1541  -27.0863   16.8329 H         1 UNK         0.3198 
    107 H107      -54.5339  -29.1746   18.2717 H         1 UNK         0.0843 
    108 H108      -56.7288  -30.3059   18.5476 H         1 UNK         0.0831 
    109 H109      -55.5222  -31.4348   17.9557 H         1 UNK         0.0831 
    110 H110      -56.7321  -30.7759   16.8540 H         1 UNK         0.0831 
    111 H111      -54.6701  -30.3595   15.5810 H         1 UNK         0.3133 
    112 H112      -52.3209  -30.6369   14.6309 H         1 UNK         0.0566 
    113 H113      -52.8223  -29.3004   12.5519 H         1 UNK         0.0814 
    114 H114      -54.2717  -29.4649   13.5127 H         1 UNK         0.0814 
    115 H115      -53.3711  -27.9516   13.5385 H         1 UNK         0.0814 
    116 H116      -50.9283  -28.2588   15.3685 H         1 UNK         0.3091 
    117 H117      -48.3201  -28.8062   14.8323 H         1 UNK         0.0702 
    118 H118      -46.8772  -28.1764   12.9434 H         1 UNK         0.0785 
    119 H119      -48.2288  -28.3044   11.8175 H         1 UNK         0.0785 
    120 H120      -47.6103  -29.7369   12.6295 H         1 UNK         0.0785 
    121 H121      -49.2148  -26.5002   13.1723 H         1 UNK         0.2998 
    122 H122      -49.8445  -24.5267   16.1236 H         1 UNK         0.0697 
    123 H123      -47.9850  -24.2802   13.6961 H         1 UNK         0.0825 
    124 H124      -47.4853  -24.1896   15.3785 H         1 UNK         0.0825 
    125 H125      -48.5425  -22.9544   14.7149 H         1 UNK         0.0825 
    126 H126      -50.4628  -24.0421   13.3814 H         1 UNK         0.3029 
    127 H127      -53.7260  -25.3906   13.3819 H         1 UNK         0.0897 
    128 H128      -54.4776  -23.0774   12.9112 H         1 UNK         0.0792 
    129 H129      -54.1512  -23.3000   14.6208 H         1 UNK         0.0792 
    130 H130      -53.0018  -22.4277   13.6263 H         1 UNK         0.0792 
    131 H131      -52.7707  -25.4476   11.4167 H         1 UNK         0.3086 
    132 H132      -51.3316  -25.3061    9.8660 H         1 UNK         0.0583 
    133 H133      -52.9018  -23.6128    8.9392 H         1 UNK         0.1020 
    134 H134      -51.6605  -22.3890    8.9927 H         1 UNK         0.1020 
    135 H135      -53.4534  -24.8033    6.6199 H         1 UNK         0.0694 
    136 H136      -52.1876  -25.5800    5.6955 H         1 UNK         0.0694 
    137 H137      -49.2506  -23.5574    9.1540 H         1 UNK         0.2989 
    138 H138      -46.8850  -24.0908   11.2658 H         1 UNK         0.1055 
    139 H139      -45.4259  -25.8249   10.1588 H         1 UNK         0.0806 
    140 H140      -46.8725  -26.6356    9.5620 H         1 UNK         0.0806 
    141 H141      -46.5720  -26.5111   11.2893 H         1 UNK         0.0806 
    142 H142      -47.0833  -24.4112    8.3044 H         1 UNK         0.3061 
    143 H143      -46.5582  -21.0770    7.6517 H         1 UNK         0.0734 
    144 H144      -44.2321  -21.2120    8.5210 H         1 UNK         0.0832 
    145 H145      -44.0402  -22.8219    7.8428 H         1 UNK         0.0832 
    146 H146      -44.2450  -21.4282    6.7798 H         1 UNK         0.0832 
    147 H147      -45.8211  -23.5974    6.3281 H         1 UNK         0.3156 
    148 H148      -49.0094  -24.3560    5.2035 H         1 UNK         0.0589 
    149 H149      -46.9410  -23.0463    3.3553 H         1 UNK         0.0808 
    150 H150      -48.2254  -24.1494    2.8564 H         1 UNK         0.0808 
    151 H151      -48.6262  -22.5688    3.5040 H         1 UNK         0.0808 
    152 H152      -46.4524  -25.2793    4.3308 H         1 UNK         0.3098 
    153 H153      -45.8394  -27.4012    5.0011 H         1 UNK         0.0720 
    154 H154      -43.8509  -27.3177    6.5509 H         1 UNK         0.0791 
    155 H155      -44.7407  -26.2752    7.6559 H         1 UNK         0.0791 
    156 H156      -44.2984  -25.6982    6.0533 H         1 UNK         0.0791 
    157 H157      -47.2099  -28.0981    7.4131 H         1 UNK         0.3028 
@<TRIPOS>BOND
     1    1    2 1    
     2    1   82 1    
     3    1   83 1    
     4    1   84 1    
     5    2    3 2    
     6    2    4 am   BACKBONE|DICT|INTERRES
     7    4    5 1    
     8    4   85 1    
     9    5    6 1    
    10    5   80 1    
    11    5   86 1    
    12    6    7 1    
    13    6   87 1    
    14    6   88 1    
    15    7    8 1    
    16    8    9 1    
    17    8   89 1    
    18    8   90 1    
    19    9   10 ar   
    20    9   14 ar   
    21   10   11 ar   
    22   10   91 1    
    23   11   12 ar   
    24   11   58 1    
    25   12   13 ar   
    26   12   92 1    
    27   13   14 ar   
    28   13   15 1    
    29   14   93 1    
    30   15   16 1    
    31   15   94 1    
    32   15   95 1    
    33   16   17 1    
    34   17   18 1    
    35   17   96 1    
    36   17   97 1    
    37   18   19 1    
    38   18   22 1    
    39   18   98 1    
    40   19   20 am   BACKBONE|DICT|INTERRES
    41   19   21 2    
    42   20   99 1    
    43   20  100 1    
    44   22   23 am   BACKBONE|DICT|INTERRES
    45   22  101 1    
    46   23   24 2    
    47   23   25 1    
    48   25   26 1    
    49   25   27 1    
    50   25  102 1    
    51   26  103 1    
    52   26  104 1    
    53   26  105 1    
    54   27   28 am   BACKBONE|DICT|INTERRES
    55   27  106 1    
    56   28   29 2    
    57   28   30 1    
    58   30   31 1    
    59   30   32 1    
    60   30  107 1    
    61   31  108 1    
    62   31  109 1    
    63   31  110 1    
    64   32   33 am   BACKBONE|DICT|INTERRES
    65   32  111 1    
    66   33   34 2    
    67   33   35 1    
    68   35   36 1    
    69   35   37 1    
    70   35  112 1    
    71   36  113 1    
    72   36  114 1    
    73   36  115 1    
    74   37   38 am   BACKBONE|DICT|INTERRES
    75   37  116 1    
    76   38   39 2    
    77   38   40 1    
    78   40   41 1    
    79   40   42 1    
    80   40  117 1    
    81   41  118 1    
    82   41  119 1    
    83   41  120 1    
    84   42   43 am   BACKBONE|DICT|INTERRES
    85   42  121 1    
    86   43   44 2    
    87   43   45 1    
    88   45   46 1    
    89   45   47 1    
    90   45  122 1    
    91   46  123 1    
    92   46  124 1    
    93   46  125 1    
    94   47   48 am   BACKBONE|DICT|INTERRES
    95   47  126 1    
    96   48   49 2    
    97   48   50 1    
    98   50   51 1    
    99   50   52 1    
   100   50  127 1    
   101   51  128 1    
   102   51  129 1    
   103   51  130 1    
   104   52   53 am   BACKBONE|DICT|INTERRES
   105   52  131 1    
   106   53   54 2    
   107   53   55 1    
   108   55   56 1    
   109   55   59 1    
   110   55  132 1    
   111   56   57 1    
   112   56  133 1    
   113   56  134 1    
   114   57   58 1    
   115   58  135 1    
   116   58  136 1    
   117   59   60 am   BACKBONE|DICT|INTERRES
   118   59  137 1    
   119   60   61 2    
   120   60   62 1    
   121   62   63 1    
   122   62   64 1    
   123   62  138 1    
   124   63  139 1    
   125   63  140 1    
   126   63  141 1    
   127   64   65 am   BACKBONE|DICT|INTERRES
   128   64  142 1    
   129   65   66 2    
   130   65   67 1    
   131   67   68 1    
   132   67   69 1    
   133   67  143 1    
   134   68  144 1    
   135   68  145 1    
   136   68  146 1    
   137   69   70 am   BACKBONE|DICT|INTERRES
   138   69  147 1    
   139   70   71 2    
   140   70   72 1    
   141   72   73 1    
   142   72   74 1    
   143   72  148 1    
   144   73  149 1    
   145   73  150 1    
   146   73  151 1    
   147   74   75 am   BACKBONE|DICT|INTERRES
   148   74  152 1    
   149   75   76 2    
   150   75   77 1    
   151   77   78 1    
   152   77   79 1    
   153   77  153 1    
   154   78  154 1    
   155   78  155 1    
   156   78  156 1    
   157   79   80 am   BACKBONE|DICT|INTERRES
   158   79  157 1    
   159   80   81 2    
@<TRIPOS>SUBSTRUCTURE
     1 UNK         1 GROUP             0       ****    0 ROOT    
