@<TRIPOS>MOLECULE
3R207
157   159    1
SMALL
USER_CHARGES


@<TRIPOS>ATOM
      1 CA        -50.9412  -22.5367    6.8009 C.3       0 UNK        -0.1975 
      2 C         -51.0945  -23.9446    6.2442 C.2       0 UNK         0.4852 
      3 O         -51.6586  -24.1087    5.1622 O.2       0 UNK        -0.5216 
      4 N         -50.5987  -24.9424    6.9869 N.am      1 UNK        -0.4461 
      5 CA        -50.5159  -26.3695    6.6642 C.3       1 UNK         0.0864 
      6 C6        -51.8275  -26.9846    6.1073 C.3       14 UNK        -0.0898 
      7 S7        -52.0307  -28.7227    6.6197 S.3       14 UNK        -0.2598 
      8 C8        -53.3293  -28.5794    7.8873 C.3       14 UNK         0.0286 
      9 C9        -52.8145  -27.9658    9.1830 C.ar      14 UNK        -0.0844 
     10 C10       -52.9368  -26.5937    9.4196 C.ar      14 UNK        -0.0881 
     11 C11       -52.5189  -26.0413   10.6336 C.ar      14 UNK        -0.0643 
     12 C12       -51.9913  -26.8783   11.6233 C.ar      14 UNK        -0.0930 
     13 C13       -51.8409  -28.2511   11.3947 C.ar      14 UNK        -0.0827 
     14 C14       -52.2491  -28.7828   10.1649 C.ar      14 UNK        -0.1249 
     15 C15       -51.1765  -29.1195   12.4641 C.3       14 UNK         0.0141 
     16 S16       -51.7242  -30.8634   12.5051 S.3       14 UNK        -0.2313 
     17 C17       -53.0679  -30.8483   13.7388 C.3       14 UNK        -0.0915 
     18 CA        -54.4782  -30.9396   13.1015 C.3       13 UNK         0.0968 
     19 C         -55.5504  -31.2561   14.1877 C.2       13 UNK         0.5732 
     20 N         -56.4639  -30.3522   14.5252 N.am      13 UNK        -0.7310 
     21 O         -55.5561  -32.3575   14.7322 O.2       13 UNK        -0.5035 
     22 N         -54.7647  -29.7518   12.2893 N.am      13 UNK        -0.4233 
     23 C         -55.7905  -29.6157   11.4398 C.2       13 UNK         0.4989 
     24 O         -56.5305  -30.5436   11.1087 O.2       13 UNK        -0.4996 
     25 CA        -56.0419  -28.1948   10.8876 C.3       12 UNK         0.0216 
     26 CB        -57.5266  -27.9503   10.5435 C.3       12 UNK        -0.1964 
     27 N         -55.5300  -27.1235   11.7600 N.am      12 UNK        -0.4276 
     28 C         -55.8682  -26.9026   13.0391 C.2       12 UNK         0.5020 
     29 O         -56.7054  -27.5671   13.6560 O.2       12 UNK        -0.5489 
     30 CA        -55.1348  -25.7595   13.7563 C.3       11 UNK         0.0294 
     31 CB        -55.9135  -24.4422   13.6172 C.3       11 UNK        -0.2019 
     32 N         -54.9709  -26.0831   15.1730 N.am      11 UNK        -0.4493 
     33 C         -54.0141  -26.8876   15.6493 C.2       11 UNK         0.4932 
     34 O         -53.0793  -27.3273   14.9761 O.2       11 UNK        -0.5029 
     35 CA        -54.1620  -27.3159   17.1116 C.3       10 UNK         0.0280 
     36 CB        -55.0815  -28.5519   17.1991 C.3       10 UNK        -0.1976 
     37 N         -52.8386  -27.6107   17.6561 N.am      10 UNK        -0.4242 
     38 C         -52.5611  -27.8697   18.9400 C.2       10 UNK         0.5072 
     39 O         -53.4016  -27.8725   19.8411 O.2       10 UNK        -0.5224 
     40 CA        -51.0947  -28.1792   19.2866 C.3       9 UNK         0.0343 
     41 CB        -50.7361  -29.6210   18.8883 C.3       9 UNK        -0.2003 
     42 N         -50.1362  -27.2538   18.6792 N.am      9 UNK        -0.4272 
     43 C         -50.0546  -25.9394   18.9371 C.2       9 UNK         0.4988 
     44 O         -50.8006  -25.3465   19.7173 O.2       9 UNK        -0.5108 
     45 CA        -48.9344  -25.1480   18.2335 C.3       8 UNK         0.0248 
     46 CB        -47.8078  -24.8157   19.2268 C.3       8 UNK        -0.2001 
     47 N         -48.3597  -25.8377   17.0733 N.am      8 UNK        -0.4140 
     48 C         -48.9834  -25.9809   15.8979 C.2       8 UNK         0.5028 
     49 O         -50.1124  -25.5446   15.6616 O.2       8 UNK        -0.5428 
     50 CA        -48.2386  -26.7941   14.8275 C.3       7 UNK         0.0264 
     51 CB        -48.5333  -28.2945   14.9978 C.3       7 UNK        -0.1988 
     52 N         -48.6455  -26.3679   13.4880 N.am      7 UNK        -0.4454 
     53 C         -48.2013  -25.2542   12.8935 C.2       7 UNK         0.5027 
     54 O         -47.3073  -24.5370   13.3531 O.2       7 UNK        -0.5083 
     55 CA        -48.8931  -24.8559   11.5822 C.3       6 UNK         0.0844 
     56 C56       -50.0836  -23.9065   11.8689 C.3       14 UNK        -0.0967 
     57 S57       -51.1411  -23.6413   10.4054 S.3       14 UNK        -0.2604 
     58 C58       -52.6534  -24.5422   10.8683 C.3       14 UNK         0.0134 
     59 N         -47.8772  -24.2314   10.7377 N.am      6 UNK        -0.4116 
     60 C         -47.6723  -24.5050    9.4481 C.2       5 UNK         0.5034 
     61 O         -48.3700  -25.2802    8.7920 O.2       5 UNK        -0.5045 
     62 CA        -46.4638  -23.8205    8.7940 C.3       5 UNK         0.0224 
     63 CB        -45.1685  -24.5773    9.1319 C.3       5 UNK        -0.1978 
     64 N         -46.6275  -23.7919    7.3408 N.am      5 UNK        -0.4737 
     65 C         -47.1711  -22.7760    6.6575 C.2       4 UNK         0.5027 
     66 O         -47.5225  -21.7216    7.1884 O.2       4 UNK        -0.5211 
     67 CA        -47.3926  -22.9587    5.1408 C.3       4 UNK         0.0297 
     68 CB        -47.1193  -21.6664    4.3422 C.3       4 UNK        -0.1993 
     69 N         -46.6875  -24.1094    4.5642 N.am      4 UNK        -0.4486 
     70 C         -45.3621  -24.2851    4.4340 C.2       3 UNK         0.4961 
     71 O         -44.5260  -23.4260    4.7167 O.2       3 UNK        -0.5105 
     72 CA        -44.8912  -25.6632    3.9141 C.3       3 UNK         0.0299 
     73 CB        -43.4784  -26.0314    4.4164 C.3       3 UNK        -0.1972 
     74 N         -45.8377  -26.7556    4.1883 N.am      3 UNK        -0.4305 
     75 C         -46.2832  -27.1479    5.3911 C.2       2 UNK         0.5006 
     76 O         -45.9097  -26.6646    6.4611 O.2       2 UNK        -0.5106 
     77 CA        -47.3813  -28.2241    5.3923 C.3       2 UNK         0.0296 
     78 CB        -46.8767  -29.5190    6.0493 C.3       2 UNK        -0.2002 
     79 N         -48.5874  -27.7638    6.0866 N.am      2 UNK        -0.4032 
     80 C         -49.2978  -26.6713    5.7680 C.2       1 UNK         0.5000 
     81 O         -49.0298  -25.9421    4.8074 O.2       1 UNK        -0.5238 
     82 H82       -51.9118  -22.1450    7.1037 H         1 UNK         0.0889 
     83 H83       -50.5248  -21.8733    6.0433 H         1 UNK         0.0889 
     84 H84       -50.2793  -22.5121    7.6668 H         1 UNK         0.0889 
     85 H85       -50.1008  -24.7137    7.8418 H         1 UNK         0.3028 
     86 H86       -50.3200  -26.8251    7.6369 H         1 UNK         0.0864 
     87 H87       -51.8639  -26.9268    5.0176 H         1 UNK         0.0720 
     88 H88       -52.6927  -26.4182    6.4513 H         1 UNK         0.0720 
     89 H89       -53.7256  -29.5755    8.0909 H         1 UNK         0.0814 
     90 H90       -54.1675  -28.0017    7.4947 H         1 UNK         0.0814 
     91 H91       -53.3614  -25.9523    8.6596 H         1 UNK         0.1469 
     92 H92       -51.6839  -26.4571   12.5707 H         1 UNK         0.1381 
     93 H93       -52.1347  -29.8389    9.9648 H         1 UNK         0.1206 
     94 H94       -50.1026  -29.1139   12.2751 H         1 UNK         0.0813 
     95 H95       -51.3160  -28.6768   13.4501 H         1 UNK         0.0813 
     96 H96       -52.9886  -29.9659   14.3751 H         1 UNK         0.0638 
     97 H97       -52.8908  -31.7029   14.3946 H         1 UNK         0.0638 
     98 H98       -54.4835  -31.7960   12.4247 H         1 UNK         0.0568 
     99 H99       -57.1499  -30.5922   15.2218 H         1 UNK         0.3450 
    100 H100      -56.4834  -29.4293   14.1005 H         1 UNK         0.3450 
    101 H101      -54.1887  -28.9456   12.4790 H         1 UNK         0.2987 
    102 H102      -55.4809  -28.1316    9.9561 H         1 UNK         0.0766 
    103 H103      -57.8760  -28.6548    9.7876 H         1 UNK         0.0798 
    104 H104      -57.6816  -26.9479   10.1446 H         1 UNK         0.0798 
    105 H105      -58.1689  -28.0669   11.4171 H         1 UNK         0.0798 
    106 H106      -54.8125  -26.5435   11.3467 H         1 UNK         0.3198 
    107 H107      -54.1473  -25.6344   13.3115 H         1 UNK         0.0843 
    108 H108      -56.9163  -24.5187   14.0399 H         1 UNK         0.0831 
    109 H109      -56.0230  -24.1615   12.5688 H         1 UNK         0.0831 
    110 H110      -55.3989  -23.6224   14.1187 H         1 UNK         0.0831 
    111 H111      -55.7355  -25.8266   15.7811 H         1 UNK         0.3133 
    112 H112      -54.5964  -26.4904   17.6791 H         1 UNK         0.0566 
    113 H113      -54.6365  -29.4159   16.7040 H         1 UNK         0.0814 
    114 H114      -56.0427  -28.3619   16.7193 H         1 UNK         0.0814 
    115 H115      -55.2931  -28.8305   18.2309 H         1 UNK         0.0814 
    116 H116      -52.0941  -27.5936   16.9693 H         1 UNK         0.3091 
    117 H117      -50.9895  -28.0931   20.3703 H         1 UNK         0.0702 
    118 H118      -49.7350  -29.8890   19.2265 H         1 UNK         0.0785 
    119 H119      -50.7765  -29.7668   17.8080 H         1 UNK         0.0785 
    120 H120      -51.4291  -30.3331   19.3389 H         1 UNK         0.0785 
    121 H121      -49.4696  -27.6504   18.0348 H         1 UNK         0.2998 
    122 H122      -49.3712  -24.2078   17.8894 H         1 UNK         0.0697 
    123 H123      -47.3234  -25.7164   19.6060 H         1 UNK         0.0825 
    124 H124      -48.1947  -24.2680   20.0875 H         1 UNK         0.0825 
    125 H125      -47.0431  -24.1899   18.7663 H         1 UNK         0.0825 
    126 H126      -47.4351  -26.2285   17.1903 H         1 UNK         0.3029 
    127 H127      -47.1635  -26.6328   14.9372 H         1 UNK         0.0897 
    128 H128      -49.6038  -28.4994   15.0197 H         1 UNK         0.0792 
    129 H129      -48.1161  -28.6694   15.9331 H         1 UNK         0.0792 
    130 H130      -48.0924  -28.8831   14.1929 H         1 UNK         0.0792 
    131 H131      -49.4087  -26.8749   13.0680 H         1 UNK         0.3086 
    132 H132      -49.2646  -25.7694   11.1117 H         1 UNK         0.0583 
    133 H133      -50.6965  -24.2847   12.6891 H         1 UNK         0.1020 
    134 H134      -49.7205  -22.9337   12.2061 H         1 UNK         0.1020 
    135 H135      -52.9032  -24.3283   11.9073 H         1 UNK         0.0694 
    136 H136      -53.4812  -24.1488   10.2762 H         1 UNK         0.0694 
    137 H137      -47.2233  -23.6444   11.2384 H         1 UNK         0.2989 
    138 H138      -46.3847  -22.8015    9.1797 H         1 UNK         0.1055 
    139 H139      -45.2196  -25.6231    8.8266 H         1 UNK         0.0806 
    140 H140      -44.9719  -24.5617   10.2047 H         1 UNK         0.0806 
    141 H141      -44.3066  -24.1276    8.6384 H         1 UNK         0.0806 
    142 H142      -46.4209  -24.6601    6.8574 H         1 UNK         0.3061 
    143 H143      -48.4522  -23.1873    5.0254 H         1 UNK         0.0734 
    144 H144      -46.0966  -21.3136    4.4764 H         1 UNK         0.0832 
    145 H145      -47.2881  -21.8145    3.2757 H         1 UNK         0.0832 
    146 H146      -47.7815  -20.8618    4.6641 H         1 UNK         0.0832 
    147 H147      -47.2937  -24.8955    4.3474 H         1 UNK         0.3156 
    148 H148      -44.8408  -25.5715    2.8282 H         1 UNK         0.0589 
    149 H149      -43.1603  -27.0009    4.0333 H         1 UNK         0.0808 
    150 H150      -42.7411  -25.2981    4.0873 H         1 UNK         0.0808 
    151 H151      -43.4336  -26.0695    5.5055 H         1 UNK         0.0808 
    152 H152      -46.2290  -27.2024    3.3697 H         1 UNK         0.3098 
    153 H153      -47.6630  -28.4499    4.3619 H         1 UNK         0.0720 
    154 H154      -46.6105  -29.3627    7.0957 H         1 UNK         0.0791 
    155 H155      -45.9878  -29.8938    5.5399 H         1 UNK         0.0791 
    156 H156      -47.6295  -30.3065    6.0074 H         1 UNK         0.0791 
    157 H157      -48.8690  -28.2991    6.8948 H         1 UNK         0.3028 
@<TRIPOS>BOND
     1    1    2 1    
     2    1   82 1    
     3    1   83 1    
     4    1   84 1    
     5    2    3 2    
     6    2    4 am   BACKBONE|DICT|INTERRES
     7    4    5 1    
     8    4   85 1    
     9    5    6 1    
    10    5   80 1    
    11    5   86 1    
    12    6    7 1    
    13    6   87 1    
    14    6   88 1    
    15    7    8 1    
    16    8    9 1    
    17    8   89 1    
    18    8   90 1    
    19    9   10 ar   
    20    9   14 ar   
    21   10   11 ar   
    22   10   91 1    
    23   11   12 ar   
    24   11   58 1    
    25   12   13 ar   
    26   12   92 1    
    27   13   14 ar   
    28   13   15 1    
    29   14   93 1    
    30   15   16 1    
    31   15   94 1    
    32   15   95 1    
    33   16   17 1    
    34   17   18 1    
    35   17   96 1    
    36   17   97 1    
    37   18   19 1    
    38   18   22 1    
    39   18   98 1    
    40   19   20 am   BACKBONE|DICT|INTERRES
    41   19   21 2    
    42   20   99 1    
    43   20  100 1    
    44   22   23 am   BACKBONE|DICT|INTERRES
    45   22  101 1    
    46   23   24 2    
    47   23   25 1    
    48   25   26 1    
    49   25   27 1    
    50   25  102 1    
    51   26  103 1    
    52   26  104 1    
    53   26  105 1    
    54   27   28 am   BACKBONE|DICT|INTERRES
    55   27  106 1    
    56   28   29 2    
    57   28   30 1    
    58   30   31 1    
    59   30   32 1    
    60   30  107 1    
    61   31  108 1    
    62   31  109 1    
    63   31  110 1    
    64   32   33 am   BACKBONE|DICT|INTERRES
    65   32  111 1    
    66   33   34 2    
    67   33   35 1    
    68   35   36 1    
    69   35   37 1    
    70   35  112 1    
    71   36  113 1    
    72   36  114 1    
    73   36  115 1    
    74   37   38 am   BACKBONE|DICT|INTERRES
    75   37  116 1    
    76   38   39 2    
    77   38   40 1    
    78   40   41 1    
    79   40   42 1    
    80   40  117 1    
    81   41  118 1    
    82   41  119 1    
    83   41  120 1    
    84   42   43 am   BACKBONE|DICT|INTERRES
    85   42  121 1    
    86   43   44 2    
    87   43   45 1    
    88   45   46 1    
    89   45   47 1    
    90   45  122 1    
    91   46  123 1    
    92   46  124 1    
    93   46  125 1    
    94   47   48 am   BACKBONE|DICT|INTERRES
    95   47  126 1    
    96   48   49 2    
    97   48   50 1    
    98   50   51 1    
    99   50   52 1    
   100   50  127 1    
   101   51  128 1    
   102   51  129 1    
   103   51  130 1    
   104   52   53 am   BACKBONE|DICT|INTERRES
   105   52  131 1    
   106   53   54 2    
   107   53   55 1    
   108   55   56 1    
   109   55   59 1    
   110   55  132 1    
   111   56   57 1    
   112   56  133 1    
   113   56  134 1    
   114   57   58 1    
   115   58  135 1    
   116   58  136 1    
   117   59   60 am   BACKBONE|DICT|INTERRES
   118   59  137 1    
   119   60   61 2    
   120   60   62 1    
   121   62   63 1    
   122   62   64 1    
   123   62  138 1    
   124   63  139 1    
   125   63  140 1    
   126   63  141 1    
   127   64   65 am   BACKBONE|DICT|INTERRES
   128   64  142 1    
   129   65   66 2    
   130   65   67 1    
   131   67   68 1    
   132   67   69 1    
   133   67  143 1    
   134   68  144 1    
   135   68  145 1    
   136   68  146 1    
   137   69   70 am   BACKBONE|DICT|INTERRES
   138   69  147 1    
   139   70   71 2    
   140   70   72 1    
   141   72   73 1    
   142   72   74 1    
   143   72  148 1    
   144   73  149 1    
   145   73  150 1    
   146   73  151 1    
   147   74   75 am   BACKBONE|DICT|INTERRES
   148   74  152 1    
   149   75   76 2    
   150   75   77 1    
   151   77   78 1    
   152   77   79 1    
   153   77  153 1    
   154   78  154 1    
   155   78  155 1    
   156   78  156 1    
   157   79   80 am   BACKBONE|DICT|INTERRES
   158   79  157 1    
   159   80   81 2    
@<TRIPOS>SUBSTRUCTURE
     1 UNK         1 GROUP             0       ****    0 ROOT    
