@<TRIPOS>MOLECULE
3R207
157   159    1
SMALL
USER_CHARGES


@<TRIPOS>ATOM
      1 CA        -46.1938  -31.2484    9.3546 C.3       0 UNK        -0.1975 
      2 C         -46.6902  -30.6911    8.0283 C.2       0 UNK         0.4852 
      3 O         -45.9434  -30.6909    7.0482 O.2       0 UNK        -0.5216 
      4 N         -47.9472  -30.2303    7.9911 N.am      1 UNK        -0.4461 
      5 CA        -48.5743  -29.5860    6.8346 C.3       1 UNK         0.0864 
      6 C6        -50.1122  -29.8115    6.8300 C.3       14 UNK        -0.0898 
      7 S7        -51.0252  -28.9925    8.1853 S.3       14 UNK        -0.2598 
      8 C8        -52.0931  -27.8679    7.2307 C.3       14 UNK         0.0286 
      9 C9        -52.9452  -26.9733    8.1198 C.ar      14 UNK        -0.0844 
     10 C10       -52.8154  -25.5834    8.0508 C.ar      14 UNK        -0.0881 
     11 C11       -53.6296  -24.7531    8.8276 C.ar      14 UNK        -0.0643 
     12 C12       -54.5822  -25.3217    9.6774 C.ar      14 UNK        -0.0930 
     13 C13       -54.7181  -26.7100    9.7602 C.ar      14 UNK        -0.0827 
     14 C14       -53.8960  -27.5293    8.9796 C.ar      14 UNK        -0.1249 
     15 C15       -55.7278  -27.3292   10.7128 C.3       14 UNK         0.0141 
     16 S16       -56.9760  -28.3183    9.8253 S.3       14 UNK        -0.2313 
     17 C17       -58.0886  -28.9887   11.1193 C.3       14 UNK        -0.0915 
     18 CA        -57.5157  -29.1828   12.5603 C.3       13 UNK         0.0968 
     19 C         -58.5626  -29.7569   13.5629 C.2       13 UNK         0.5732 
     20 N         -59.7991  -29.2765   13.5291 N.am      13 UNK        -0.7310 
     21 O         -58.2665  -30.6030   14.4052 O.2       13 UNK        -0.5035 
     22 N         -56.2358  -29.9056   12.5882 N.am      13 UNK        -0.4233 
     23 C         -55.9865  -31.1393   12.1280 C.2       13 UNK         0.4989 
     24 O         -56.8373  -31.8782   11.6305 O.2       13 UNK        -0.4996 
     25 CA        -54.5259  -31.6314   12.1993 C.3       12 UNK         0.0216 
     26 CB        -53.8749  -31.5723   10.8067 C.3       12 UNK        -0.1964 
     27 N         -53.6959  -30.8720   13.1394 N.am      12 UNK        -0.4276 
     28 C         -53.7886  -30.9508   14.4730 C.2       12 UNK         0.5020 
     29 O         -54.5197  -31.7492   15.0598 O.2       12 UNK        -0.5489 
     30 CA        -52.9361  -29.9703   15.2991 C.3       11 UNK         0.0294 
     31 CB        -51.6920  -30.6805   15.8579 C.3       11 UNK        -0.2019 
     32 N         -52.5142  -28.7497   14.5987 N.am      11 UNK        -0.4493 
     33 C         -53.3239  -27.8031   14.0975 C.2       11 UNK         0.4932 
     34 O         -54.5463  -27.9301   14.0116 O.2       11 UNK        -0.5029 
     35 CA        -52.6389  -26.5020   13.6224 C.3       10 UNK         0.0280 
     36 CB        -53.6276  -25.3266   13.4648 C.3       10 UNK        -0.1976 
     37 N         -51.4971  -26.1304   14.4748 N.am      10 UNK        -0.4242 
     38 C         -51.5356  -25.8491   15.7883 C.2       10 UNK         0.5072 
     39 O         -52.5787  -25.7269   16.4320 O.2       10 UNK        -0.5224 
     40 CA        -50.2047  -25.7572   16.5503 C.3       9 UNK         0.0343 
     41 CB        -49.8903  -27.1255   17.1936 C.3       9 UNK        -0.2003 
     42 N         -49.0645  -25.2983   15.7470 N.am      9 UNK        -0.4272 
     43 C         -47.9190  -24.8514   16.2848 C.2       9 UNK         0.4988 
     44 O         -47.7289  -24.7356   17.4968 O.2       9 UNK        -0.5108 
     45 CA        -46.7783  -24.4811   15.3229 C.3       8 UNK         0.0248 
     46 CB        -46.0925  -25.7474   14.7862 C.3       8 UNK        -0.2001 
     47 N         -47.2053  -23.6268   14.2138 N.am      8 UNK        -0.4140 
     48 C         -47.6393  -22.3653   14.3575 C.2       8 UNK         0.5028 
     49 O         -47.7096  -21.7803   15.4394 O.2       8 UNK        -0.5428 
     50 CA        -48.0647  -21.6211   13.0816 C.3       7 UNK         0.0264 
     51 CB        -46.8476  -20.9760   12.3997 C.3       7 UNK        -0.1988 
     52 N         -48.7589  -22.4800   12.1231 N.am      7 UNK        -0.4454 
     53 C         -49.9635  -23.0345   12.3248 C.2       7 UNK         0.5027 
     54 O         -50.6421  -22.8568   13.3369 O.2       7 UNK        -0.5083 
     55 CA        -50.4695  -23.9823   11.2174 C.3       6 UNK         0.0844 
     56 C56       -50.9506  -23.1878    9.9767 C.3       14 UNK        -0.0967 
     57 S57       -52.6430  -22.5403   10.1848 S.3       14 UNK        -0.2604 
     58 C58       -53.4954  -23.2405    8.7369 C.3       14 UNK         0.0134 
     59 N         -49.4653  -24.9925   10.8704 N.am      6 UNK        -0.4116 
     60 C         -48.9187  -25.8712   11.7250 C.2       5 UNK         0.5034 
     61 O         -49.2404  -25.9843   12.9089 O.2       5 UNK        -0.5045 
     62 CA        -47.7819  -26.7481   11.1843 C.3       5 UNK         0.0224 
     63 CB        -48.3369  -28.0466   10.5969 C.3       5 UNK        -0.1978 
     64 N         -46.9566  -26.0559   10.1912 N.am      5 UNK        -0.4737 
     65 C         -46.1575  -25.0242   10.5011 C.2       4 UNK         0.5027 
     66 O         -46.0264  -24.5812   11.6424 O.2       4 UNK        -0.5211 
     67 CA        -45.4283  -24.3377    9.3381 C.3       4 UNK         0.0297 
     68 CB        -44.3532  -25.2603    8.7401 C.3       4 UNK        -0.1993 
     69 N         -46.3424  -23.8974    8.2832 N.am      4 UNK        -0.4486 
     70 C         -47.3567  -23.0327    8.4382 C.2       3 UNK         0.4961 
     71 O         -47.6399  -22.4905    9.5052 O.2       3 UNK        -0.5105 
     72 CA        -48.2154  -22.7273    7.1973 C.3       3 UNK         0.0299 
     73 CB        -47.7624  -21.4126    6.5438 C.3       3 UNK        -0.1972 
     74 N         -48.1853  -23.8019    6.2025 N.am      3 UNK        -0.4305 
     75 C         -48.7316  -25.0129    6.3771 C.2       2 UNK         0.5006 
     76 O         -49.4172  -25.3073    7.3592 O.2       2 UNK        -0.5106 
     77 CA        -48.4619  -26.0478    5.2618 C.3       2 UNK         0.0296 
     78 CB        -47.0410  -25.9268    4.6623 C.3       2 UNK        -0.2002 
     79 N         -48.7078  -27.4378    5.6667 N.am      2 UNK        -0.4032 
     80 C         -48.1481  -28.1026    6.6906 C.2       1 UNK         0.5000 
     81 O         -47.3316  -27.6007    7.4737 O.2       1 UNK        -0.5238 
     82 H82       -45.8087  -32.2585    9.2176 H         1 UNK         0.0889 
     83 H83       -46.9853  -31.2878   10.1029 H         1 UNK         0.0889 
     84 H84       -45.3885  -30.6256    9.7434 H         1 UNK         0.0889 
     85 H85       -48.5095  -30.2383    8.8293 H         1 UNK         0.3028 
     86 H86       -48.1898  -30.0836    5.9414 H         1 UNK         0.0864 
     87 H87       -50.3167  -30.8810    6.9025 H         1 UNK         0.0720 
     88 H88       -50.5364  -29.5158    5.8695 H         1 UNK         0.0720 
     89 H89       -52.7494  -28.4548    6.5865 H         1 UNK         0.0814 
     90 H90       -51.4693  -27.2622    6.5720 H         1 UNK         0.0814 
     91 H91       -52.0843  -25.1461    7.3846 H         1 UNK         0.1469 
     92 H92       -55.2095  -24.6786   10.2795 H         1 UNK         0.1381 
     93 H93       -54.0022  -28.6038    9.0341 H         1 UNK         0.1206 
     94 H94       -56.2310  -26.5647   11.3063 H         1 UNK         0.0813 
     95 H95       -55.1644  -27.9488   11.4048 H         1 UNK         0.0813 
     96 H96       -58.9446  -28.3136   11.1522 H         1 UNK         0.0638 
     97 H97       -58.4805  -29.9358   10.7450 H         1 UNK         0.0638 
     98 H98       -57.2803  -28.1948   12.9560 H         1 UNK         0.0568 
     99 H99       -60.0682  -28.5668   12.8665 H         1 UNK         0.3450 
    100 H100      -60.4773  -29.6314   14.1850 H         1 UNK         0.3450 
    101 H101      -55.4859  -29.4018   13.0490 H         1 UNK         0.2987 
    102 H102      -54.5484  -32.6738   12.5242 H         1 UNK         0.0766 
    103 H103      -52.8675  -31.9888   10.8195 H         1 UNK         0.0798 
    104 H104      -53.8113  -30.5495   10.4340 H         1 UNK         0.0798 
    105 H105      -54.4516  -32.1470   10.0806 H         1 UNK         0.0798 
    106 H106      -53.0554  -30.1973   12.7476 H         1 UNK         0.3198 
    107 H107      -53.5536  -29.6552   16.1432 H         1 UNK         0.0843 
    108 H108      -51.0069  -30.9802   15.0639 H         1 UNK         0.0831 
    109 H109      -51.9695  -31.5827   16.4051 H         1 UNK         0.0831 
    110 H110      -51.1463  -30.0418   16.5525 H         1 UNK         0.0831 
    111 H111      -51.5233  -28.5576   14.6023 H         1 UNK         0.3133 
    112 H112      -52.2252  -26.7169   12.6359 H         1 UNK         0.0566 
    113 H113      -53.1184  -24.4103   13.1672 H         1 UNK         0.0814 
    114 H114      -54.3728  -25.5447   12.7007 H         1 UNK         0.0814 
    115 H115      -54.1664  -25.1220   14.3901 H         1 UNK         0.0814 
    116 H116      -50.5935  -26.1769   14.0069 H         1 UNK         0.3091 
    117 H117      -50.3649  -25.0301   17.3495 H         1 UNK         0.0702 
    118 H118      -50.7513  -27.5125   17.7409 H         1 UNK         0.0785 
    119 H119      -49.0687  -27.0577   17.9064 H         1 UNK         0.0785 
    120 H120      -49.6192  -27.8680   16.4426 H         1 UNK         0.0785 
    121 H121      -49.1433  -25.3504   14.7359 H         1 UNK         0.2998 
    122 H122      -46.0350  -23.9209   15.8942 H         1 UNK         0.0697 
    123 H123      -46.7841  -26.3736   14.2244 H         1 UNK         0.0825 
    124 H124      -45.7011  -26.3528   15.6048 H         1 UNK         0.0825 
    125 H125      -45.2530  -25.5020   14.1356 H         1 UNK         0.0825 
    126 H126      -47.0990  -24.0019   13.2763 H         1 UNK         0.3029 
    127 H127      -48.7531  -20.8263   13.3770 H         1 UNK         0.0897 
    128 H128      -47.1474  -20.3755   11.5406 H         1 UNK         0.0792 
    129 H129      -46.1376  -21.7266   12.0491 H         1 UNK         0.0792 
    130 H130      -46.3162  -20.3171   13.0878 H         1 UNK         0.0792 
    131 H131      -48.2834  -22.6443   11.2369 H         1 UNK         0.3086 
    132 H132      -51.3176  -24.5401   11.6176 H         1 UNK         0.0583 
    133 H133      -50.2877  -22.3529    9.7442 H         1 UNK         0.1020 
    134 H134      -50.9244  -23.8262    9.0943 H         1 UNK         0.1020 
    135 H135      -54.4886  -22.7948    8.6646 H         1 UNK         0.0694 
    136 H136      -52.9649  -22.9495    7.8287 H         1 UNK         0.0694 
    137 H137      -49.1338  -24.9936    9.9155 H         1 UNK         0.2989 
    138 H138      -47.1414  -27.0127   12.0273 H         1 UNK         0.1055 
    139 H139      -48.9722  -28.5691   11.3135 H         1 UNK         0.0806 
    140 H140      -47.5275  -28.7208   10.3226 H         1 UNK         0.0806 
    141 H141      -48.9332  -27.8471    9.7083 H         1 UNK         0.0806 
    142 H142      -47.0234  -26.3739    9.2285 H         1 UNK         0.3061 
    143 H143      -44.9336  -23.4497    9.7374 H         1 UNK         0.0734 
    144 H144      -43.7588  -24.7413    7.9880 H         1 UNK         0.0832 
    145 H145      -43.6643  -25.6064    9.5120 H         1 UNK         0.0832 
    146 H146      -44.7887  -26.1445    8.2719 H         1 UNK         0.0832 
    147 H147      -46.2031  -24.3007    7.3692 H         1 UNK         0.3156 
    148 H148      -49.2477  -22.6022    7.5288 H         1 UNK         0.0589 
    149 H149      -46.7372  -21.4738    6.1763 H         1 UNK         0.0808 
    150 H150      -48.4055  -21.1427    5.7059 H         1 UNK         0.0808 
    151 H151      -47.8029  -20.5891    7.2585 H         1 UNK         0.0808 
    152 H152      -47.6644  -23.6235    5.3558 H         1 UNK         0.3098 
    153 H153      -49.1807  -25.8328    4.4698 H         1 UNK         0.0720 
    154 H154      -46.8615  -26.7049    3.9200 H         1 UNK         0.0791 
    155 H155      -46.2691  -26.0204    5.4275 H         1 UNK         0.0791 
    156 H156      -46.8926  -24.9740    4.1537 H         1 UNK         0.0791 
    157 H157      -49.3810  -27.9317    5.0993 H         1 UNK         0.3028 
@<TRIPOS>BOND
     1    1    2 1    
     2    1   82 1    
     3    1   83 1    
     4    1   84 1    
     5    2    3 2    
     6    2    4 am   BACKBONE|DICT|INTERRES
     7    4    5 1    
     8    4   85 1    
     9    5    6 1    
    10    5   80 1    
    11    5   86 1    
    12    6    7 1    
    13    6   87 1    
    14    6   88 1    
    15    7    8 1    
    16    8    9 1    
    17    8   89 1    
    18    8   90 1    
    19    9   10 ar   
    20    9   14 ar   
    21   10   11 ar   
    22   10   91 1    
    23   11   12 ar   
    24   11   58 1    
    25   12   13 ar   
    26   12   92 1    
    27   13   14 ar   
    28   13   15 1    
    29   14   93 1    
    30   15   16 1    
    31   15   94 1    
    32   15   95 1    
    33   16   17 1    
    34   17   18 1    
    35   17   96 1    
    36   17   97 1    
    37   18   19 1    
    38   18   22 1    
    39   18   98 1    
    40   19   20 am   BACKBONE|DICT|INTERRES
    41   19   21 2    
    42   20   99 1    
    43   20  100 1    
    44   22   23 am   BACKBONE|DICT|INTERRES
    45   22  101 1    
    46   23   24 2    
    47   23   25 1    
    48   25   26 1    
    49   25   27 1    
    50   25  102 1    
    51   26  103 1    
    52   26  104 1    
    53   26  105 1    
    54   27   28 am   BACKBONE|DICT|INTERRES
    55   27  106 1    
    56   28   29 2    
    57   28   30 1    
    58   30   31 1    
    59   30   32 1    
    60   30  107 1    
    61   31  108 1    
    62   31  109 1    
    63   31  110 1    
    64   32   33 am   BACKBONE|DICT|INTERRES
    65   32  111 1    
    66   33   34 2    
    67   33   35 1    
    68   35   36 1    
    69   35   37 1    
    70   35  112 1    
    71   36  113 1    
    72   36  114 1    
    73   36  115 1    
    74   37   38 am   BACKBONE|DICT|INTERRES
    75   37  116 1    
    76   38   39 2    
    77   38   40 1    
    78   40   41 1    
    79   40   42 1    
    80   40  117 1    
    81   41  118 1    
    82   41  119 1    
    83   41  120 1    
    84   42   43 am   BACKBONE|DICT|INTERRES
    85   42  121 1    
    86   43   44 2    
    87   43   45 1    
    88   45   46 1    
    89   45   47 1    
    90   45  122 1    
    91   46  123 1    
    92   46  124 1    
    93   46  125 1    
    94   47   48 am   BACKBONE|DICT|INTERRES
    95   47  126 1    
    96   48   49 2    
    97   48   50 1    
    98   50   51 1    
    99   50   52 1    
   100   50  127 1    
   101   51  128 1    
   102   51  129 1    
   103   51  130 1    
   104   52   53 am   BACKBONE|DICT|INTERRES
   105   52  131 1    
   106   53   54 2    
   107   53   55 1    
   108   55   56 1    
   109   55   59 1    
   110   55  132 1    
   111   56   57 1    
   112   56  133 1    
   113   56  134 1    
   114   57   58 1    
   115   58  135 1    
   116   58  136 1    
   117   59   60 am   BACKBONE|DICT|INTERRES
   118   59  137 1    
   119   60   61 2    
   120   60   62 1    
   121   62   63 1    
   122   62   64 1    
   123   62  138 1    
   124   63  139 1    
   125   63  140 1    
   126   63  141 1    
   127   64   65 am   BACKBONE|DICT|INTERRES
   128   64  142 1    
   129   65   66 2    
   130   65   67 1    
   131   67   68 1    
   132   67   69 1    
   133   67  143 1    
   134   68  144 1    
   135   68  145 1    
   136   68  146 1    
   137   69   70 am   BACKBONE|DICT|INTERRES
   138   69  147 1    
   139   70   71 2    
   140   70   72 1    
   141   72   73 1    
   142   72   74 1    
   143   72  148 1    
   144   73  149 1    
   145   73  150 1    
   146   73  151 1    
   147   74   75 am   BACKBONE|DICT|INTERRES
   148   74  152 1    
   149   75   76 2    
   150   75   77 1    
   151   77   78 1    
   152   77   79 1    
   153   77  153 1    
   154   78  154 1    
   155   78  155 1    
   156   78  156 1    
   157   79   80 am   BACKBONE|DICT|INTERRES
   158   79  157 1    
   159   80   81 2    
@<TRIPOS>SUBSTRUCTURE
     1 UNK         1 GROUP             0       ****    0 ROOT    
