@<TRIPOS>MOLECULE
3R207
157   159    1
SMALL
USER_CHARGES


@<TRIPOS>ATOM
      1 CA        -47.2352  -28.9145   11.1076 C.3       0 UNK        -0.1975 
      2 C         -47.1994  -29.4159    9.6729 C.2       0 UNK         0.4852 
      3 O         -46.2923  -30.1609    9.3033 O.2       0 UNK        -0.5216 
      4 N         -48.1772  -29.0031    8.8580 N.am      1 UNK        -0.4461 
      5 CA        -48.3541  -29.3980    7.4534 C.3       1 UNK         0.0864 
      6 C6        -49.8559  -29.4334    7.0620 C.3       14 UNK        -0.0898 
      7 S7        -50.7834  -27.9269    7.5112 S.3       14 UNK        -0.2598 
      8 C8        -52.4891  -28.5279    7.2887 C.3       14 UNK         0.0286 
      9 C9        -53.5150  -27.5507    7.8450 C.ar      14 UNK        -0.0844 
     10 C10       -53.5995  -26.2532    7.3337 C.ar      14 UNK        -0.0881 
     11 C11       -54.5214  -25.3400    7.8540 C.ar      14 UNK        -0.0643 
     12 C12       -55.3869  -25.7439    8.8753 C.ar      14 UNK        -0.0930 
     13 C13       -55.3351  -27.0494    9.3738 C.ar      14 UNK        -0.0827 
     14 C14       -54.3928  -27.9457    8.8597 C.ar      14 UNK        -0.1249 
     15 C15       -56.3030  -27.4967   10.4591 C.3       14 UNK         0.0141 
     16 S16       -55.4985  -27.4934   12.0864 S.3       14 UNK        -0.2313 
     17 C17       -56.8691  -27.9518   13.2004 C.3       14 UNK        -0.0915 
     18 CA        -56.8785  -29.4330   13.6710 C.3       13 UNK         0.0968 
     19 C         -57.1574  -30.4299   12.5088 C.2       13 UNK         0.5732 
     20 N         -58.3770  -30.4421   11.9869 N.am      13 UNK        -0.7310 
     21 O         -56.2844  -31.1705   12.0589 O.2       13 UNK        -0.5035 
     22 N         -55.6944  -29.7848   14.4740 N.am      13 UNK        -0.4233 
     23 C         -55.6382  -30.8594   15.2769 C.2       13 UNK         0.4989 
     24 O         -56.6054  -31.5863   15.5107 O.2       13 UNK        -0.4996 
     25 CA        -54.2957  -31.1907   15.9461 C.3       12 UNK         0.0216 
     26 CB        -53.3832  -31.9492   14.9675 C.3       12 UNK        -0.1964 
     27 N         -53.6115  -29.9858   16.4124 N.am      12 UNK        -0.4276 
     28 C         -53.5139  -29.5924   17.6895 C.2       12 UNK         0.5020 
     29 O         -53.9758  -30.2276   18.6388 O.2       12 UNK        -0.5489 
     30 CA        -52.7669  -28.2725   17.9728 C.3       11 UNK         0.0294 
     31 CB        -51.3137  -28.5577   18.3850 C.3       11 UNK        -0.2019 
     32 N         -52.7656  -27.3428   16.8413 N.am      11 UNK        -0.4493 
     33 C         -53.8519  -26.7156   16.3690 C.2       11 UNK         0.4932 
     34 O         -54.9581  -26.7696   16.9068 O.2       11 UNK        -0.5029 
     35 CA        -53.6932  -25.9100   15.0657 C.3       10 UNK         0.0280 
     36 CB        -53.4735  -24.4245   15.3966 C.3       10 UNK        -0.1976 
     37 N         -52.6312  -26.3636   14.1548 N.am      10 UNK        -0.4242 
     38 C         -52.4086  -27.6176   13.7274 C.2       10 UNK         0.5072 
     39 O         -53.0744  -28.5902   14.0814 O.2       10 UNK        -0.5224 
     40 CA        -51.2305  -27.8509   12.7681 C.3       9 UNK         0.0343 
     41 CB        -51.7279  -27.9207   11.3166 C.3       9 UNK        -0.2003 
     42 N         -50.1684  -26.8491   12.8757 N.am      9 UNK        -0.4272 
     43 C         -49.4032  -26.6499   13.9593 C.2       9 UNK         0.4988 
     44 O         -49.5085  -27.2970   15.0019 O.2       9 UNK        -0.5108 
     45 CA        -48.3655  -25.5215   13.8726 C.3       8 UNK         0.0248 
     46 CB        -47.0965  -25.9851   13.1417 C.3       8 UNK        -0.2001 
     47 N         -48.9175  -24.3409   13.2073 N.am      8 UNK        -0.4140 
     48 C         -49.6316  -23.3951   13.8322 C.2       8 UNK         0.5028 
     49 O         -49.8205  -23.3691   15.0486 O.2       8 UNK        -0.5428 
     50 CA        -50.2574  -22.2965   12.9571 C.3       7 UNK         0.0264 
     51 CB        -49.3258  -21.0781   12.8605 C.3       7 UNK        -0.1988 
     52 N         -50.6060  -22.7548   11.6097 N.am      7 UNK        -0.4454 
     53 C         -51.6132  -23.6017   11.3420 C.2       7 UNK         0.5027 
     54 O         -52.3221  -24.1109   12.2082 O.2       7 UNK        -0.5083 
     55 CA        -51.8597  -23.9536    9.8611 C.3       6 UNK         0.0844 
     56 C56       -52.7827  -22.8809    9.2222 C.3       14 UNK        -0.0967 
     57 S57       -52.9920  -23.0563    7.4160 S.3       14 UNK        -0.2604 
     58 C58       -54.5900  -23.9231    7.3012 C.3       14 UNK         0.0134 
     59 N         -50.6214  -24.1456    9.1026 N.am      6 UNK        -0.4116 
     60 C         -49.5931  -24.9436    9.4184 C.2       5 UNK         0.5034 
     61 O         -49.5249  -25.6264   10.4412 O.2       5 UNK        -0.5045 
     62 CA        -48.3990  -24.9489    8.4540 C.3       5 UNK         0.0224 
     63 CB        -48.7029  -24.3576    7.0600 C.3       5 UNK        -0.1978 
     64 N         -47.2227  -24.2924    9.0316 N.am      5 UNK        -0.4737 
     65 C         -47.1429  -23.0726    9.5899 C.2       4 UNK         0.5027 
     66 O         -48.1108  -22.3385    9.7960 O.2       4 UNK        -0.5211 
     67 CA        -45.7347  -22.5787    9.9757 C.3       4 UNK         0.0297 
     68 CB        -45.4718  -22.8106   11.4712 C.3       4 UNK        -0.1993 
     69 N         -44.6694  -23.2203    9.1987 N.am      4 UNK        -0.4486 
     70 C         -44.4626  -23.0425    7.8868 C.2       3 UNK         0.4961 
     71 O         -45.0648  -22.2157    7.2011 O.2       3 UNK        -0.5105 
     72 CA        -43.4439  -23.9756    7.2078 C.3       3 UNK         0.0299 
     73 CB        -42.3177  -24.4639    8.1481 C.3       3 UNK        -0.1972 
     74 N         -44.1154  -25.1049    6.5503 N.am      3 UNK        -0.4305 
     75 C         -44.8738  -26.0474    7.1302 C.2       2 UNK         0.5006 
     76 O         -45.0892  -26.1165    8.3450 O.2       2 UNK        -0.5106 
     77 CA        -45.5021  -27.0871    6.1939 C.3       2 UNK         0.0296 
     78 CB        -44.4291  -28.0137    5.5883 C.3       2 UNK        -0.2002 
     79 N         -46.4677  -27.8755    6.9551 N.am      2 UNK        -0.4032 
     80 C         -47.4769  -28.5989    6.4561 C.2       1 UNK         0.5000 
     81 O         -47.7155  -28.6678    5.2484 O.2       1 UNK        -0.5238 
     82 H82       -48.1003  -28.2780   11.2924 H         1 UNK         0.0889 
     83 H83       -46.3338  -28.3420   11.3239 H         1 UNK         0.0889 
     84 H84       -47.2804  -29.7553   11.7990 H         1 UNK         0.0889 
     85 H85       -48.8958  -28.3861    9.2115 H         1 UNK         0.3028 
     86 H86       -47.9950  -30.4252    7.3580 H         1 UNK         0.0864 
     87 H87       -49.9931  -29.6354    5.9981 H         1 UNK         0.0720 
     88 H88       -50.3232  -30.2744    7.5767 H         1 UNK         0.0720 
     89 H89       -52.5930  -29.4997    7.7737 H         1 UNK         0.0814 
     90 H90       -52.6801  -28.6877    6.2267 H         1 UNK         0.0814 
     91 H91       -52.9283  -25.9454    6.5434 H         1 UNK         0.1469 
     92 H92       -56.1077  -25.0454    9.2776 H         1 UNK         0.1381 
     93 H93       -54.3450  -28.9511    9.2557 H         1 UNK         0.1206 
     94 H94       -57.1768  -26.8439   10.4839 H         1 UNK         0.0813 
     95 H95       -56.6697  -28.4989   10.2336 H         1 UNK         0.0813 
     96 H96       -57.8180  -27.6959   12.7265 H         1 UNK         0.0638 
     97 H97       -56.8035  -27.3032   14.0752 H         1 UNK         0.0638 
     98 H98       -57.7322  -29.5258   14.3454 H         1 UNK         0.0568 
     99 H99       -59.1048  -29.8421   12.3420 H         1 UNK         0.3450 
    100 H100      -58.5767  -31.0757   11.2291 H         1 UNK         0.3450 
    101 H101      -54.8426  -29.2699   14.2696 H         1 UNK         0.2987 
    102 H102      -54.5021  -31.8536   16.7892 H         1 UNK         0.0766 
    103 H103      -53.1396  -31.3492   14.0896 H         1 UNK         0.0798 
    104 H104      -52.4469  -32.2396   15.4443 H         1 UNK         0.0798 
    105 H105      -53.8644  -32.8622   14.6139 H         1 UNK         0.0798 
    106 H106      -53.2486  -29.3760   15.6807 H         1 UNK         0.3198 
    107 H107      -53.2719  -27.7850   18.8097 H         1 UNK         0.0843 
    108 H108      -51.2757  -29.2341   19.2402 H         1 UNK         0.0831 
    109 H109      -50.7956  -27.6431   18.6741 H         1 UNK         0.0831 
    110 H110      -50.7484  -29.0224   17.5758 H         1 UNK         0.0831 
    111 H111      -51.8966  -27.2395   16.3342 H         1 UNK         0.3133 
    112 H112      -54.6349  -25.9979   14.5228 H         1 UNK         0.0566 
    113 H113      -54.2257  -24.0612   16.0984 H         1 UNK         0.0814 
    114 H114      -53.5462  -23.8024   14.5052 H         1 UNK         0.0814 
    115 H115      -52.4951  -24.2527   15.8475 H         1 UNK         0.0814 
    116 H116      -52.0875  -25.6278   13.7196 H         1 UNK         0.3091 
    117 H117      -50.7941  -28.8188   13.0228 H         1 UNK         0.0702 
    118 H118      -52.1744  -26.9785   10.9980 H         1 UNK         0.0785 
    119 H119      -52.4899  -28.6929   11.2021 H         1 UNK         0.0785 
    120 H120      -50.9190  -28.1594   10.6271 H         1 UNK         0.0785 
    121 H121      -49.9865  -26.2988   12.0381 H         1 UNK         0.2998 
    122 H122      -48.0804  -25.2627   14.8949 H         1 UNK         0.0697 
    123 H123      -47.2528  -26.0749   12.0664 H         1 UNK         0.0825 
    124 H124      -46.7600  -26.9545   13.5123 H         1 UNK         0.0825 
    125 H125      -46.2796  -25.2839   13.3056 H         1 UNK         0.0825 
    126 H126      -48.8591  -24.3133   12.1979 H         1 UNK         0.3029 
    127 H127      -51.1783  -21.9779   13.4511 H         1 UNK         0.0897 
    128 H128      -49.8018  -20.2573   12.3238 H         1 UNK         0.0792 
    129 H129      -49.0637  -20.7069   13.8524 H         1 UNK         0.0792 
    130 H130      -48.3959  -21.3185   12.3457 H         1 UNK         0.0792 
    131 H131      -50.0184  -22.4305   10.8481 H         1 UNK         0.3086 
    132 H132      -52.3852  -24.9097    9.8376 H         1 UNK         0.0583 
    133 H133      -53.7637  -22.8950    9.7017 H         1 UNK         0.1020 
    134 H134      -52.3826  -21.8796    9.3958 H         1 UNK         0.1020 
    135 H135      -55.3542  -23.3358    7.8126 H         1 UNK         0.0694 
    136 H136      -54.8886  -23.9704    6.2532 H         1 UNK         0.0694 
    137 H137      -50.5626  -23.6189    8.2437 H         1 UNK         0.2989 
    138 H138      -48.1372  -25.9978    8.3166 H         1 UNK         0.1055 
    139 H139      -49.5642  -24.8463    6.6013 H         1 UNK         0.0806 
    140 H140      -47.8593  -24.5055    6.3855 H         1 UNK         0.0806 
    141 H141      -48.9027  -23.2860    7.0991 H         1 UNK         0.0806 
    142 H142      -46.3594  -24.8238    8.9513 H         1 UNK         0.3061 
    143 H143      -45.7020  -21.5045    9.7816 H         1 UNK         0.0734 
    144 H144      -46.2685  -22.3898   12.0851 H         1 UNK         0.0832 
    145 H145      -45.4049  -23.8728   11.7033 H         1 UNK         0.0832 
    146 H146      -44.5401  -22.3404   11.7862 H         1 UNK         0.0832 
    147 H147      -44.1454  -23.9506    9.6600 H         1 UNK         0.3156 
    148 H148      -42.9729  -23.3912    6.4158 H         1 UNK         0.0589 
    149 H149      -42.6774  -25.1333    8.9297 H         1 UNK         0.0808 
    150 H150      -41.5523  -25.0015    7.5883 H         1 UNK         0.0808 
    151 H151      -41.8235  -23.6226    8.6361 H         1 UNK         0.0808 
    152 H152      -44.0285  -25.1244    5.5433 H         1 UNK         0.3098 
    153 H153      -46.0260  -26.5547    5.3973 H         1 UNK         0.0720 
    154 H154      -44.8708  -28.7469    4.9133 H         1 UNK         0.0791 
    155 H155      -43.8877  -28.5585    6.3630 H         1 UNK         0.0791 
    156 H156      -43.6953  -27.4510    5.0103 H         1 UNK         0.0791 
    157 H157      -46.3275  -27.8434    7.9573 H         1 UNK         0.3028 
@<TRIPOS>BOND
     1    1    2 1    
     2    1   82 1    
     3    1   83 1    
     4    1   84 1    
     5    2    3 2    
     6    2    4 am   BACKBONE|DICT|INTERRES
     7    4    5 1    
     8    4   85 1    
     9    5    6 1    
    10    5   80 1    
    11    5   86 1    
    12    6    7 1    
    13    6   87 1    
    14    6   88 1    
    15    7    8 1    
    16    8    9 1    
    17    8   89 1    
    18    8   90 1    
    19    9   10 ar   
    20    9   14 ar   
    21   10   11 ar   
    22   10   91 1    
    23   11   12 ar   
    24   11   58 1    
    25   12   13 ar   
    26   12   92 1    
    27   13   14 ar   
    28   13   15 1    
    29   14   93 1    
    30   15   16 1    
    31   15   94 1    
    32   15   95 1    
    33   16   17 1    
    34   17   18 1    
    35   17   96 1    
    36   17   97 1    
    37   18   19 1    
    38   18   22 1    
    39   18   98 1    
    40   19   20 am   BACKBONE|DICT|INTERRES
    41   19   21 2    
    42   20   99 1    
    43   20  100 1    
    44   22   23 am   BACKBONE|DICT|INTERRES
    45   22  101 1    
    46   23   24 2    
    47   23   25 1    
    48   25   26 1    
    49   25   27 1    
    50   25  102 1    
    51   26  103 1    
    52   26  104 1    
    53   26  105 1    
    54   27   28 am   BACKBONE|DICT|INTERRES
    55   27  106 1    
    56   28   29 2    
    57   28   30 1    
    58   30   31 1    
    59   30   32 1    
    60   30  107 1    
    61   31  108 1    
    62   31  109 1    
    63   31  110 1    
    64   32   33 am   BACKBONE|DICT|INTERRES
    65   32  111 1    
    66   33   34 2    
    67   33   35 1    
    68   35   36 1    
    69   35   37 1    
    70   35  112 1    
    71   36  113 1    
    72   36  114 1    
    73   36  115 1    
    74   37   38 am   BACKBONE|DICT|INTERRES
    75   37  116 1    
    76   38   39 2    
    77   38   40 1    
    78   40   41 1    
    79   40   42 1    
    80   40  117 1    
    81   41  118 1    
    82   41  119 1    
    83   41  120 1    
    84   42   43 am   BACKBONE|DICT|INTERRES
    85   42  121 1    
    86   43   44 2    
    87   43   45 1    
    88   45   46 1    
    89   45   47 1    
    90   45  122 1    
    91   46  123 1    
    92   46  124 1    
    93   46  125 1    
    94   47   48 am   BACKBONE|DICT|INTERRES
    95   47  126 1    
    96   48   49 2    
    97   48   50 1    
    98   50   51 1    
    99   50   52 1    
   100   50  127 1    
   101   51  128 1    
   102   51  129 1    
   103   51  130 1    
   104   52   53 am   BACKBONE|DICT|INTERRES
   105   52  131 1    
   106   53   54 2    
   107   53   55 1    
   108   55   56 1    
   109   55   59 1    
   110   55  132 1    
   111   56   57 1    
   112   56  133 1    
   113   56  134 1    
   114   57   58 1    
   115   58  135 1    
   116   58  136 1    
   117   59   60 am   BACKBONE|DICT|INTERRES
   118   59  137 1    
   119   60   61 2    
   120   60   62 1    
   121   62   63 1    
   122   62   64 1    
   123   62  138 1    
   124   63  139 1    
   125   63  140 1    
   126   63  141 1    
   127   64   65 am   BACKBONE|DICT|INTERRES
   128   64  142 1    
   129   65   66 2    
   130   65   67 1    
   131   67   68 1    
   132   67   69 1    
   133   67  143 1    
   134   68  144 1    
   135   68  145 1    
   136   68  146 1    
   137   69   70 am   BACKBONE|DICT|INTERRES
   138   69  147 1    
   139   70   71 2    
   140   70   72 1    
   141   72   73 1    
   142   72   74 1    
   143   72  148 1    
   144   73  149 1    
   145   73  150 1    
   146   73  151 1    
   147   74   75 am   BACKBONE|DICT|INTERRES
   148   74  152 1    
   149   75   76 2    
   150   75   77 1    
   151   77   78 1    
   152   77   79 1    
   153   77  153 1    
   154   78  154 1    
   155   78  155 1    
   156   78  156 1    
   157   79   80 am   BACKBONE|DICT|INTERRES
   158   79  157 1    
   159   80   81 2    
@<TRIPOS>SUBSTRUCTURE
     1 UNK         1 GROUP             0       ****    0 ROOT    
