@<TRIPOS>MOLECULE
3R207
157   159    1
SMALL
USER_CHARGES


@<TRIPOS>ATOM
      1 CA        -44.1147  -29.4164    7.5062 C.3       0 UNK        -0.1975 
      2 C         -45.3126  -29.6378    6.5952 C.2       0 UNK         0.4852 
      3 O         -45.1505  -29.7031    5.3766 O.2       0 UNK        -0.5216 
      4 N         -46.5157  -29.7521    7.1756 N.am      1 UNK        -0.4461 
      5 CA        -47.7766  -29.9973    6.4626 C.3       1 UNK         0.0864 
      6 C6        -48.8177  -30.6866    7.3884 C.3       14 UNK        -0.0898 
      7 S7        -49.6930  -29.5794    8.5562 S.3       14 UNK        -0.2598 
      8 C8        -51.3936  -29.7244    7.9101 C.3       14 UNK         0.0286 
      9 C9        -52.2309  -28.4861    8.1853 C.ar      14 UNK        -0.0844 
     10 C10       -51.9105  -27.2846    7.5497 C.ar      14 UNK        -0.0881 
     11 C11       -52.6944  -26.1444    7.7427 C.ar      14 UNK        -0.0643 
     12 C12       -53.8184  -26.2162    8.5716 C.ar      14 UNK        -0.0930 
     13 C13       -54.1650  -27.4201    9.1944 C.ar      14 UNK        -0.0827 
     14 C14       -53.3597  -28.5493    9.0087 C.ar      14 UNK        -0.1249 
     15 C15       -55.4336  -27.5113   10.0304 C.3       14 UNK         0.0141 
     16 S16       -55.0760  -27.3012   11.7968 S.3       14 UNK        -0.2313 
     17 C17       -56.7467  -27.3158   12.5322 C.3       14 UNK        -0.0915 
     18 CA        -57.1596  -28.6444   13.2249 C.3       13 UNK         0.0968 
     19 C         -57.2959  -29.8278   12.2233 C.2       13 UNK         0.5732 
     20 N         -58.3063  -29.7947   11.3643 N.am      13 UNK        -0.7310 
     21 O         -56.4914  -30.7580   12.1966 O.2       13 UNK        -0.5035 
     22 N         -56.3242  -28.9595   14.3966 N.am      13 UNK        -0.4233 
     23 C         -56.6875  -29.8290   15.3530 C.2       13 UNK         0.4989 
     24 O         -57.7980  -30.3607   15.4041 O.2       13 UNK        -0.4996 
     25 CA        -55.6634  -30.1669   16.4470 C.3       12 UNK         0.0216 
     26 CB        -54.6714  -31.2281   15.9416 C.3       12 UNK        -0.1964 
     27 N         -54.9259  -28.9815   16.8814 N.am      12 UNK        -0.4276 
     28 C         -55.1079  -28.3332   18.0397 C.2       12 UNK         0.5020 
     29 O         -55.9136  -28.6858   18.9025 O.2       12 UNK        -0.5489 
     30 CA        -54.2432  -27.0818   18.2982 C.3       11 UNK         0.0294 
     31 CB        -53.0273  -27.4414   19.1674 C.3       11 UNK        -0.2019 
     32 N         -53.7755  -26.4273   17.0742 N.am      11 UNK        -0.4493 
     33 C         -54.5677  -25.7942   16.1981 C.2       11 UNK         0.4932 
     34 O         -55.7689  -25.5979   16.3833 O.2       11 UNK        -0.5029 
     35 CA        -53.9274  -25.3185   14.8804 C.3       10 UNK         0.0280 
     36 CB        -53.5617  -23.8293   14.9874 C.3       10 UNK        -0.1976 
     37 N         -52.7522  -26.0764   14.4235 N.am      10 UNK        -0.4242 
     38 C         -52.6505  -27.4099   14.2967 C.2       10 UNK         0.5072 
     39 O         -53.5392  -28.1980   14.6187 O.2       10 UNK        -0.5224 
     40 CA        -51.3409  -27.9818   13.7326 C.3       9 UNK         0.0343 
     41 CB        -51.4907  -28.2694   12.2299 C.3       9 UNK        -0.2003 
     42 N         -50.1734  -27.1276   13.9539 N.am      9 UNK        -0.4272 
     43 C         -49.6474  -26.8285   15.1507 C.2       9 UNK         0.4988 
     44 O         -50.0974  -27.2388   16.2214 O.2       9 UNK        -0.5108 
     45 CA        -48.4264  -25.8940   15.1491 C.3       8 UNK         0.0248 
     46 CB        -47.1507  -26.6512   14.7441 C.3       8 UNK        -0.2001 
     47 N         -48.6267  -24.7469   14.2616 N.am      8 UNK        -0.4140 
     48 C         -49.4297  -23.7105   14.5419 C.2       8 UNK         0.5028 
     49 O         -50.0098  -23.5647   15.6176 O.2       8 UNK        -0.5428 
     50 CA        -49.6404  -22.6680   13.4307 C.3       7 UNK         0.0264 
     51 CB        -48.5825  -21.5567   13.5196 C.3       7 UNK        -0.1988 
     52 N         -49.6237  -23.2528   12.0878 N.am      7 UNK        -0.4454 
     53 C         -50.5730  -24.0700   11.6041 C.2       7 UNK         0.5027 
     54 O         -51.5743  -24.4000   12.2370 O.2       7 UNK        -0.5083 
     55 CA        -50.3429  -24.6447   10.1918 C.3       6 UNK         0.0844 
     56 C56       -50.8947  -23.6644    9.1275 C.3       14 UNK        -0.0967 
     57 S57       -50.6790  -24.2577    7.4165 S.3       14 UNK        -0.2604 
     58 C58       -52.3500  -24.8541    7.0132 C.3       14 UNK         0.0134 
     59 N         -48.9344  -24.9989    9.9778 N.am      6 UNK        -0.4116 
     60 C         -48.2745  -25.9291   10.6869 C.2       5 UNK         0.5034 
     61 O         -48.7904  -26.5958   11.5807 O.2       5 UNK        -0.5045 
     62 CA        -46.7781  -26.1312   10.4075 C.3       5 UNK         0.0224 
     63 CB        -46.5676  -27.3486    9.5020 C.3       5 UNK        -0.1978 
     64 N         -46.1338  -24.9542    9.8237 N.am      5 UNK        -0.4737 
     65 C         -45.9307  -23.8108   10.4954 C.2       4 UNK         0.5027 
     66 O         -46.2407  -23.6557   11.6770 O.2       4 UNK        -0.5211 
     67 CA        -45.3190  -22.6309    9.7187 C.3       4 UNK         0.0297 
     68 CB        -43.8037  -22.5583    9.9636 C.3       4 UNK        -0.1993 
     69 N         -45.5759  -22.6697    8.2752 N.am      4 UNK        -0.4486 
     70 C         -46.7897  -22.6440    7.7076 C.2       3 UNK         0.4961 
     71 O         -47.8365  -22.5786    8.3520 O.2       3 UNK        -0.5105 
     72 CA        -46.8603  -22.7272    6.1708 C.3       3 UNK         0.0299 
     73 CB        -45.4924  -22.5833    5.4636 C.3       3 UNK        -0.1972 
     74 N         -47.5419  -23.9449    5.7165 N.am      3 UNK        -0.4305 
     75 C         -47.2039  -25.2129    5.9923 C.2       2 UNK         0.5006 
     76 O         -46.2660  -25.5380    6.7284 O.2       2 UNK        -0.5106 
     77 CA        -48.0384  -26.2994    5.2971 C.3       2 UNK         0.0296 
     78 CB        -47.7682  -26.3057    3.7776 C.3       2 UNK        -0.2002 
     79 N         -47.6914  -27.5921    5.8795 N.am      2 UNK        -0.4032 
     80 C         -48.3338  -28.7563    5.7163 C.2       1 UNK         0.5000 
     81 O         -49.3378  -28.8829    5.0124 O.2       1 UNK        -0.5238 
     82 H82       -44.3599  -29.5968    8.5526 H         1 UNK         0.0889 
     83 H83       -43.7537  -28.3927    7.4088 H         1 UNK         0.0889 
     84 H84       -43.3042  -30.0912    7.2318 H         1 UNK         0.0889 
     85 H85       -46.5935  -29.6994    8.1811 H         1 UNK         0.3028 
     86 H86       -47.5488  -30.7189    5.6746 H         1 UNK         0.0864 
     87 H87       -49.5469  -31.2137    6.7715 H         1 UNK         0.0720 
     88 H88       -48.3341  -31.4726    7.9707 H         1 UNK         0.0720 
     89 H89       -51.8593  -30.6156    8.3335 H         1 UNK         0.0814 
     90 H90       -51.3719  -29.8724    6.8294 H         1 UNK         0.0814 
     91 H91       -51.0493  -27.2397    6.8964 H         1 UNK         0.1469 
     92 H92       -54.4392  -25.3422    8.7132 H         1 UNK         0.1381 
     93 H93       -53.6278  -29.4810    9.4882 H         1 UNK         0.1206 
     94 H94       -56.1499  -26.7523    9.7123 H         1 UNK         0.0813 
     95 H95       -55.9143  -28.4770    9.8685 H         1 UNK         0.0813 
     96 H96       -57.4772  -27.0429   11.7690 H         1 UNK         0.0638 
     97 H97       -56.7853  -26.5079   13.2641 H         1 UNK         0.0638 
     98 H98       -58.1654  -28.4766   13.6156 H         1 UNK         0.0568 
     99 H99       -58.9751  -29.0407   11.3711 H         1 UNK         0.3450 
    100 H100      -58.4091  -30.5482   10.7031 H         1 UNK         0.3450 
    101 H101      -55.3697  -28.6114   14.3758 H         1 UNK         0.2987 
    102 H102      -56.2099  -30.5970   17.2891 H         1 UNK         0.0766 
    103 H103      -54.0910  -30.8700   15.0902 H         1 UNK         0.0798 
    104 H104      -53.9713  -31.5194   16.7247 H         1 UNK         0.0798 
    105 H105      -55.1950  -32.1302   15.6221 H         1 UNK         0.0798 
    106 H106      -54.2762  -28.5939   16.1982 H         1 UNK         0.3198 
    107 H107      -54.8594  -26.3674   18.8484 H         1 UNK         0.0843 
    108 H108      -53.3398  -27.9143   20.0996 H         1 UNK         0.0831 
    109 H109      -52.4521  -26.5543   19.4330 H         1 UNK         0.0831 
    110 H110      -52.3578  -28.1358   18.6576 H         1 UNK         0.0831 
    111 H111      -52.7988  -26.5402   16.8376 H         1 UNK         0.3133 
    112 H112      -54.6870  -25.4212   14.1048 H         1 UNK         0.0566 
    113 H113      -54.4162  -23.2376   15.3191 H         1 UNK         0.0814 
    114 H114      -53.2490  -23.4241   14.0256 H         1 UNK         0.0814 
    115 H115      -52.7541  -23.6645   15.7013 H         1 UNK         0.0814 
    116 H116      -51.9973  -25.5215   14.0380 H         1 UNK         0.3091 
    117 H117      -51.1553  -28.9294   14.2423 H         1 UNK         0.0702 
    118 H118      -51.6778  -27.3571   11.6620 H         1 UNK         0.0785 
    119 H119      -52.3278  -28.9431   12.0418 H         1 UNK         0.0785 
    120 H120      -50.5976  -28.7410   11.8195 H         1 UNK         0.0785 
    121 H121      -49.7028  -26.7931   13.1142 H         1 UNK         0.2998 
    122 H122      -48.2874  -25.5220   16.1666 H         1 UNK         0.0697 
    123 H123      -47.2214  -27.0650   13.7379 H         1 UNK         0.0825 
    124 H124      -46.9621  -27.4832   15.4238 H         1 UNK         0.0825 
    125 H125      -46.2762  -26.0011   14.7780 H         1 UNK         0.0825 
    126 H126      -48.1854  -24.7829   13.3536 H         1 UNK         0.3029 
    127 H127      -50.6229  -22.2170   13.5882 H         1 UNK         0.0897 
    128 H128      -48.7626  -20.7762   12.7802 H         1 UNK         0.0792 
    129 H129      -48.5994  -21.0815   14.5015 H         1 UNK         0.0792 
    130 H130      -47.5746  -21.9427   13.3625 H         1 UNK         0.0792 
    131 H131      -48.8157  -23.0539   11.5137 H         1 UNK         0.3086 
    132 H132      -50.9182  -25.5705   10.1218 H         1 UNK         0.0583 
    133 H133      -51.9540  -23.4690    9.3064 H         1 UNK         0.1020 
    134 H134      -50.3969  -22.6958    9.2040 H         1 UNK         0.1020 
    135 H135      -53.0779  -24.0699    7.2273 H         1 UNK         0.0694 
    136 H136      -52.4040  -25.0364    5.9391 H         1 UNK         0.0694 
    137 H137      -48.4403  -24.4582    9.2776 H         1 UNK         0.2989 
    138 H138      -46.2924  -26.3351   11.3646 H         1 UNK         0.1055 
    139 H139      -46.9074  -28.2591    9.9979 H         1 UNK         0.0806 
    140 H140      -45.5153  -27.4799    9.2527 H         1 UNK         0.0806 
    141 H141      -47.1337  -27.2543    8.5770 H         1 UNK         0.0806 
    142 H142      -45.8940  -24.9987    8.8391 H         1 UNK         0.3061 
    143 H143      -45.7737  -21.7179   10.1090 H         1 UNK         0.0734 
    144 H144      -43.5840  -22.5023   11.0309 H         1 UNK         0.0832 
    145 H145      -43.2884  -23.4360    9.5712 H         1 UNK         0.0832 
    146 H146      -43.3667  -21.6741    9.4991 H         1 UNK         0.0832 
    147 H147      -44.7710  -22.7498    7.6707 H         1 UNK         0.3156 
    148 H148      -47.4830  -21.8894    5.8537 H         1 UNK         0.0589 
    149 H149      -44.8148  -23.4058    5.6965 H         1 UNK         0.0808 
    150 H150      -45.6167  -22.5630    4.3808 H         1 UNK         0.0808 
    151 H151      -44.9982  -21.6511    5.7411 H         1 UNK         0.0808 
    152 H152      -48.3621  -23.7891    5.1471 H         1 UNK         0.3098 
    153 H153      -49.0949  -26.1017    5.4871 H         1 UNK         0.0720 
    154 H154      -48.3756  -27.0504    3.2636 H         1 UNK         0.0791 
    155 H155      -46.7215  -26.5220    3.5594 H         1 UNK         0.0791 
    156 H156      -48.0035  -25.3414    3.3262 H         1 UNK         0.0791 
    157 H157      -46.8749  -27.5578    6.4769 H         1 UNK         0.3028 
@<TRIPOS>BOND
     1    1    2 1    
     2    1   82 1    
     3    1   83 1    
     4    1   84 1    
     5    2    3 2    
     6    2    4 am   BACKBONE|DICT|INTERRES
     7    4    5 1    
     8    4   85 1    
     9    5    6 1    
    10    5   80 1    
    11    5   86 1    
    12    6    7 1    
    13    6   87 1    
    14    6   88 1    
    15    7    8 1    
    16    8    9 1    
    17    8   89 1    
    18    8   90 1    
    19    9   10 ar   
    20    9   14 ar   
    21   10   11 ar   
    22   10   91 1    
    23   11   12 ar   
    24   11   58 1    
    25   12   13 ar   
    26   12   92 1    
    27   13   14 ar   
    28   13   15 1    
    29   14   93 1    
    30   15   16 1    
    31   15   94 1    
    32   15   95 1    
    33   16   17 1    
    34   17   18 1    
    35   17   96 1    
    36   17   97 1    
    37   18   19 1    
    38   18   22 1    
    39   18   98 1    
    40   19   20 am   BACKBONE|DICT|INTERRES
    41   19   21 2    
    42   20   99 1    
    43   20  100 1    
    44   22   23 am   BACKBONE|DICT|INTERRES
    45   22  101 1    
    46   23   24 2    
    47   23   25 1    
    48   25   26 1    
    49   25   27 1    
    50   25  102 1    
    51   26  103 1    
    52   26  104 1    
    53   26  105 1    
    54   27   28 am   BACKBONE|DICT|INTERRES
    55   27  106 1    
    56   28   29 2    
    57   28   30 1    
    58   30   31 1    
    59   30   32 1    
    60   30  107 1    
    61   31  108 1    
    62   31  109 1    
    63   31  110 1    
    64   32   33 am   BACKBONE|DICT|INTERRES
    65   32  111 1    
    66   33   34 2    
    67   33   35 1    
    68   35   36 1    
    69   35   37 1    
    70   35  112 1    
    71   36  113 1    
    72   36  114 1    
    73   36  115 1    
    74   37   38 am   BACKBONE|DICT|INTERRES
    75   37  116 1    
    76   38   39 2    
    77   38   40 1    
    78   40   41 1    
    79   40   42 1    
    80   40  117 1    
    81   41  118 1    
    82   41  119 1    
    83   41  120 1    
    84   42   43 am   BACKBONE|DICT|INTERRES
    85   42  121 1    
    86   43   44 2    
    87   43   45 1    
    88   45   46 1    
    89   45   47 1    
    90   45  122 1    
    91   46  123 1    
    92   46  124 1    
    93   46  125 1    
    94   47   48 am   BACKBONE|DICT|INTERRES
    95   47  126 1    
    96   48   49 2    
    97   48   50 1    
    98   50   51 1    
    99   50   52 1    
   100   50  127 1    
   101   51  128 1    
   102   51  129 1    
   103   51  130 1    
   104   52   53 am   BACKBONE|DICT|INTERRES
   105   52  131 1    
   106   53   54 2    
   107   53   55 1    
   108   55   56 1    
   109   55   59 1    
   110   55  132 1    
   111   56   57 1    
   112   56  133 1    
   113   56  134 1    
   114   57   58 1    
   115   58  135 1    
   116   58  136 1    
   117   59   60 am   BACKBONE|DICT|INTERRES
   118   59  137 1    
   119   60   61 2    
   120   60   62 1    
   121   62   63 1    
   122   62   64 1    
   123   62  138 1    
   124   63  139 1    
   125   63  140 1    
   126   63  141 1    
   127   64   65 am   BACKBONE|DICT|INTERRES
   128   64  142 1    
   129   65   66 2    
   130   65   67 1    
   131   67   68 1    
   132   67   69 1    
   133   67  143 1    
   134   68  144 1    
   135   68  145 1    
   136   68  146 1    
   137   69   70 am   BACKBONE|DICT|INTERRES
   138   69  147 1    
   139   70   71 2    
   140   70   72 1    
   141   72   73 1    
   142   72   74 1    
   143   72  148 1    
   144   73  149 1    
   145   73  150 1    
   146   73  151 1    
   147   74   75 am   BACKBONE|DICT|INTERRES
   148   74  152 1    
   149   75   76 2    
   150   75   77 1    
   151   77   78 1    
   152   77   79 1    
   153   77  153 1    
   154   78  154 1    
   155   78  155 1    
   156   78  156 1    
   157   79   80 am   BACKBONE|DICT|INTERRES
   158   79  157 1    
   159   80   81 2    
@<TRIPOS>SUBSTRUCTURE
     1 UNK         1 GROUP             0       ****    0 ROOT    
