@<TRIPOS>MOLECULE
3R207
157   159    1
SMALL
USER_CHARGES


@<TRIPOS>ATOM
      1 CA        -44.3121  -31.5819    5.0726 C.3       0 UNK        -0.1975 
      2 C         -45.5775  -30.9996    4.4602 C.2       0 UNK         0.4852 
      3 O         -45.5641  -30.6009    3.2951 O.2       0 UNK        -0.5216 
      4 N         -46.6698  -30.9498    5.2363 N.am      1 UNK        -0.4461 
      5 CA        -47.9730  -30.4105    4.8234 C.3       1 UNK         0.0864 
      6 C6        -49.0834  -30.7959    5.8362 C.3       14 UNK        -0.0898 
      7 S7        -50.7154  -31.0378    5.0556 S.3       14 UNK        -0.2598 
      8 C8        -51.5409  -29.4349    5.3554 C.3       14 UNK         0.0286 
      9 C9        -52.2078  -29.2699    6.7228 C.ar      14 UNK        -0.0844 
     10 C10       -51.7761  -29.9511    7.8673 C.ar      14 UNK        -0.0881 
     11 C11       -52.3833  -29.7246    9.1038 C.ar      14 UNK        -0.0643 
     12 C12       -53.4541  -28.8331    9.1946 C.ar      14 UNK        -0.0930 
     13 C13       -53.8943  -28.1281    8.0665 C.ar      14 UNK        -0.0827 
     14 C14       -53.2648  -28.3616    6.8401 C.ar      14 UNK        -0.1249 
     15 C15       -55.0333  -27.1047    8.1016 C.3       14 UNK         0.0141 
     16 S16       -55.7421  -26.7288    9.7419 S.3       14 UNK        -0.2313 
     17 C17       -54.3829  -25.8044   10.5377 C.3       14 UNK        -0.0915 
     18 CA        -54.7832  -24.9951   11.8078 C.3       13 UNK         0.0968 
     19 C         -55.6259  -23.7040   11.5756 C.2       13 UNK         0.5732 
     20 N         -55.8296  -23.2696   10.3388 N.am      13 UNK        -0.7310 
     21 O         -56.0380  -23.0463   12.5294 O.2       13 UNK        -0.5035 
     22 N         -55.2332  -25.8466   12.9252 N.am      13 UNK        -0.4233 
     23 C         -56.4778  -26.2789   13.1807 C.2       13 UNK         0.4989 
     24 O         -57.4637  -25.9851   12.5028 O.2       13 UNK        -0.4996 
     25 CA        -56.6922  -27.1755   14.4209 C.3       12 UNK         0.0216 
     26 CB        -57.5319  -28.4247   14.0767 C.3       12 UNK        -0.1964 
     27 N         -55.4804  -27.5592   15.1625 N.am      12 UNK        -0.4276 
     28 C         -54.4599  -28.3264   14.7531 C.2       12 UNK         0.5020 
     29 O         -54.3437  -28.7693   13.6098 O.2       12 UNK        -0.5489 
     30 CA        -53.3721  -28.6025   15.8052 C.3       11 UNK         0.0294 
     31 CB        -52.2458  -29.5118   15.2781 C.3       11 UNK        -0.2019 
     32 N         -52.7845  -27.3491   16.2747 N.am      11 UNK        -0.4493 
     33 C         -53.2472  -26.5828   17.2700 C.2       11 UNK         0.4932 
     34 O         -54.2745  -26.8468   17.8972 O.2       11 UNK        -0.5029 
     35 CA        -52.4562  -25.2948   17.5830 C.3       10 UNK         0.0280 
     36 CB        -52.6715  -24.7920   19.0259 C.3       10 UNK        -0.1976 
     37 N         -51.0267  -25.4008   17.2610 N.am      10 UNK        -0.4242 
     38 C         -50.1213  -26.2302   17.8059 C.2       10 UNK         0.5072 
     39 O         -50.3603  -26.9734   18.7589 O.2       10 UNK        -0.5224 
     40 CA        -48.7161  -26.2792   17.1700 C.3       9 UNK         0.0343 
     41 CB        -48.4835  -27.6457   16.5026 C.3       9 UNK        -0.2003 
     42 N         -48.4713  -25.2266   16.1800 N.am      9 UNK        -0.4272 
     43 C         -48.2188  -23.9430   16.4711 C.2       9 UNK         0.4988 
     44 O         -48.0947  -23.5123   17.6179 O.2       9 UNK        -0.5108 
     45 CA        -48.1260  -22.9670   15.2837 C.3       8 UNK         0.0248 
     46 CB        -46.7032  -22.9543   14.7026 C.3       8 UNK        -0.2001 
     47 N         -49.0938  -23.2549   14.2184 N.am      8 UNK        -0.4140 
     48 C         -50.4261  -23.2227   14.3699 C.2       8 UNK         0.5028 
     49 O         -50.9866  -22.9100   15.4201 O.2       8 UNK        -0.5428 
     50 CA        -51.2845  -23.6826   13.1796 C.3       7 UNK         0.0264 
     51 CB        -51.4147  -22.5799   12.1180 C.3       7 UNK        -0.1988 
     52 N         -50.7958  -24.9215   12.5651 N.am      7 UNK        -0.4454 
     53 C         -50.7224  -26.0972   13.2071 C.2       7 UNK         0.5027 
     54 O         -51.1245  -26.2657   14.3562 O.2       7 UNK        -0.5083 
     55 CA        -50.0446  -27.2720   12.4805 C.3       6 UNK         0.0844 
     56 C56       -51.0487  -28.0299   11.5821 C.3       14 UNK        -0.0967 
     57 S57       -50.3577  -29.6039   10.9755 S.3       14 UNK        -0.2604 
     58 C58       -51.8579  -30.4240   10.3476 C.3       14 UNK         0.0134 
     59 N         -48.8529  -26.8261   11.7558 N.am      6 UNK        -0.4116 
     60 C         -47.7300  -26.3843   12.3400 C.2       5 UNK         0.5034 
     61 O         -47.5561  -26.3506   13.5579 O.2       5 UNK        -0.5045 
     62 CA        -46.6384  -25.8375   11.4048 C.3       5 UNK         0.0224 
     63 CB        -45.8174  -26.9846   10.7940 C.3       5 UNK        -0.1978 
     64 N         -47.1880  -25.0024   10.3334 N.am      5 UNK        -0.4737 
     65 C         -47.8184  -23.8351   10.5289 C.2       4 UNK         0.5027 
     66 O         -47.9398  -23.3018   11.6298 O.2       4 UNK        -0.5211 
     67 CA        -48.4686  -23.1807    9.2987 C.3       4 UNK         0.0297 
     68 CB        -47.4677  -22.2552    8.5907 C.3       4 UNK        -0.1993 
     69 N         -48.9951  -24.1544    8.3391 N.am      4 UNK        -0.4486 
     70 C         -49.9381  -25.0720    8.5863 C.2       3 UNK         0.4961 
     71 O         -50.5134  -25.1777    9.6699 O.2       3 UNK        -0.5105 
     72 CA        -50.2541  -26.0765    7.4624 C.3       3 UNK         0.0299 
     73 CB        -51.2926  -25.4946    6.4848 C.3       3 UNK        -0.1972 
     74 N         -49.0656  -26.5944    6.7581 N.am      3 UNK        -0.4305 
     75 C         -48.2088  -25.9424    5.9535 C.2       2 UNK         0.5006 
     76 O         -48.3098  -24.7477    5.6728 O.2       2 UNK        -0.5106 
     77 CA        -46.9949  -26.7236    5.4170 C.3       2 UNK         0.0296 
     78 CB        -45.7334  -26.3493    6.2143 C.3       2 UNK        -0.2002 
     79 N         -47.1590  -28.1792    5.4456 N.am      2 UNK        -0.4032 
     80 C         -47.9326  -28.8816    4.6039 C.2       1 UNK         0.5000 
     81 O         -48.5915  -28.3738    3.6951 O.2       1 UNK        -0.5238 
     82 H82       -43.5144  -30.8396    5.0617 H         1 UNK         0.0889 
     83 H83       -44.4656  -31.8996    6.1038 H         1 UNK         0.0889 
     84 H84       -43.9810  -32.4464    4.4978 H         1 UNK         0.0889 
     85 H85       -46.6193  -31.3130    6.1780 H         1 UNK         0.3028 
     86 H86       -48.2057  -30.8683    3.8590 H         1 UNK         0.0864 
     87 H87       -48.8431  -31.7504    6.3076 H         1 UNK         0.0720 
     88 H88       -49.1450  -30.0778    6.6554 H         1 UNK         0.0720 
     89 H89       -52.2963  -29.3164    4.5770 H         1 UNK         0.0814 
     90 H90       -50.8320  -28.6205    5.2100 H         1 UNK         0.0814 
     91 H91       -50.9578  -30.6525    7.8193 H         1 UNK         0.1469 
     92 H92       -53.9223  -28.6867   10.1569 H         1 UNK         0.1381 
     93 H93       -53.5971  -27.8187    5.9653 H         1 UNK         0.1206 
     94 H94       -54.6926  -26.1726    7.6485 H         1 UNK         0.0813 
     95 H95       -55.8409  -27.4744    7.4685 H         1 UNK         0.0813 
     96 H96       -53.9102  -25.1524    9.8013 H         1 UNK         0.0638 
     97 H97       -53.6095  -26.5188   10.8161 H         1 UNK         0.0638 
     98 H98       -53.8439  -24.5868   12.1712 H         1 UNK         0.0568 
     99 H99       -55.5121  -23.8059    9.5475 H         1 UNK         0.3450 
    100 H100      -56.3528  -22.4204   10.1964 H         1 UNK         0.3450 
    101 H101      -54.5077  -26.1564   13.5526 H         1 UNK         0.2987 
    102 H102      -57.2785  -26.5723   15.1157 H         1 UNK         0.0766 
    103 H103      -57.7222  -29.0325   14.9612 H         1 UNK         0.0798 
    104 H104      -57.0353  -29.0534   13.3368 H         1 UNK         0.0798 
    105 H105      -58.5025  -28.1463   13.6641 H         1 UNK         0.0798 
    106 H106      -55.4314  -27.2247   16.1199 H         1 UNK         0.3198 
    107 H107      -53.8493  -29.1164   16.6426 H         1 UNK         0.0843 
    108 H108      -52.6430  -30.4689   14.9377 H         1 UNK         0.0831 
    109 H109      -51.5116  -29.7230   16.0557 H         1 UNK         0.0831 
    110 H110      -51.7198  -29.0603   14.4375 H         1 UNK         0.0831 
    111 H111      -52.0092  -26.9876   15.7191 H         1 UNK         0.3133 
    112 H112      -52.8525  -24.5333   16.9100 H         1 UNK         0.0566 
    113 H113      -52.1056  -23.8800   19.2160 H         1 UNK         0.0814 
    114 H114      -53.7224  -24.5634   19.2073 H         1 UNK         0.0814 
    115 H115      -52.3706  -25.5351   19.7648 H         1 UNK         0.0814 
    116 H116      -50.7273  -24.8309   16.4783 H         1 UNK         0.3091 
    117 H117      -47.9904  -26.1673   17.9781 H         1 UNK         0.0702 
    118 H118      -47.4778  -27.7195   16.0883 H         1 UNK         0.0785 
    119 H119      -49.1927  -27.8235   15.6938 H         1 UNK         0.0785 
    120 H120      -48.5981  -28.4588   17.2206 H         1 UNK         0.0785 
    121 H121      -48.4827  -25.5104   15.2057 H         1 UNK         0.2998 
    122 H122      -48.3463  -21.9671   15.6630 H         1 UNK         0.0697 
    123 H123      -46.4316  -23.9213   14.2784 H         1 UNK         0.0825 
    124 H124      -45.9681  -22.7166   15.4726 H         1 UNK         0.0825 
    125 H125      -46.6031  -22.2057   13.9164 H         1 UNK         0.0825 
    126 H126      -48.7105  -23.4615   13.2972 H         1 UNK         0.3029 
    127 H127      -52.2785  -23.8849   13.5808 H         1 UNK         0.0897 
    128 H128      -52.0316  -22.9027   11.2790 H         1 UNK         0.0792 
    129 H129      -51.8807  -21.6889   12.5409 H         1 UNK         0.0792 
    130 H130      -50.4440  -22.2804   11.7246 H         1 UNK         0.0792 
    131 H131      -50.4966  -24.8766   11.5942 H         1 UNK         0.3086 
    132 H132      -49.7097  -27.9647   13.2557 H         1 UNK         0.0583 
    133 H133      -51.9659  -28.2519   12.1324 H         1 UNK         0.1020 
    134 H134      -51.3451  -27.4221   10.7263 H         1 UNK         0.1020 
    135 H135      -51.6225  -31.4628   10.1118 H         1 UNK         0.0694 
    136 H136      -52.6173  -30.4519   11.1313 H         1 UNK         0.0694 
    137 H137      -48.9303  -26.7833   10.7513 H         1 UNK         0.2989 
    138 H138      -45.9703  -25.2174   12.0069 H         1 UNK         0.1055 
    139 H139      -45.3838  -27.6106   11.5753 H         1 UNK         0.0806 
    140 H140      -44.9919  -26.6045   10.1918 H         1 UNK         0.0806 
    141 H141      -46.4264  -27.6306   10.1604 H         1 UNK         0.0806 
    142 H142      -47.1271  -25.3577    9.3912 H         1 UNK         0.3061 
    143 H143      -49.3079  -22.5767    9.6474 H         1 UNK         0.0734 
    144 H144      -47.0734  -21.5071    9.2801 H         1 UNK         0.0832 
    145 H145      -46.6183  -22.8090    8.1886 H         1 UNK         0.0832 
    146 H146      -47.9381  -21.7184    7.7667 H         1 UNK         0.0832 
    147 H147      -48.6087  -24.1406    7.3974 H         1 UNK         0.3156 
    148 H148      -50.7105  -26.9438    7.9427 H         1 UNK         0.0589 
    149 H149      -50.9450  -24.5743    6.0147 H         1 UNK         0.0808 
    150 H150      -51.5336  -26.2025    5.6925 H         1 UNK         0.0808 
    151 H151      -52.2222  -25.2608    7.0053 H         1 UNK         0.0808 
    152 H152      -48.8538  -27.5623    6.9496 H         1 UNK         0.3098 
    153 H153      -46.8460  -26.4170    4.3793 H         1 UNK         0.0720 
    154 H154      -44.8454  -26.8237    5.7959 H         1 UNK         0.0791 
    155 H155      -45.8105  -26.6453    7.2613 H         1 UNK         0.0791 
    156 H156      -45.5608  -25.2721    6.1920 H         1 UNK         0.0791 
    157 H157      -46.6282  -28.6847    6.1401 H         1 UNK         0.3028 
@<TRIPOS>BOND
     1    1    2 1    
     2    1   82 1    
     3    1   83 1    
     4    1   84 1    
     5    2    3 2    
     6    2    4 am   BACKBONE|DICT|INTERRES
     7    4    5 1    
     8    4   85 1    
     9    5    6 1    
    10    5   80 1    
    11    5   86 1    
    12    6    7 1    
    13    6   87 1    
    14    6   88 1    
    15    7    8 1    
    16    8    9 1    
    17    8   89 1    
    18    8   90 1    
    19    9   10 ar   
    20    9   14 ar   
    21   10   11 ar   
    22   10   91 1    
    23   11   12 ar   
    24   11   58 1    
    25   12   13 ar   
    26   12   92 1    
    27   13   14 ar   
    28   13   15 1    
    29   14   93 1    
    30   15   16 1    
    31   15   94 1    
    32   15   95 1    
    33   16   17 1    
    34   17   18 1    
    35   17   96 1    
    36   17   97 1    
    37   18   19 1    
    38   18   22 1    
    39   18   98 1    
    40   19   20 am   BACKBONE|DICT|INTERRES
    41   19   21 2    
    42   20   99 1    
    43   20  100 1    
    44   22   23 am   BACKBONE|DICT|INTERRES
    45   22  101 1    
    46   23   24 2    
    47   23   25 1    
    48   25   26 1    
    49   25   27 1    
    50   25  102 1    
    51   26  103 1    
    52   26  104 1    
    53   26  105 1    
    54   27   28 am   BACKBONE|DICT|INTERRES
    55   27  106 1    
    56   28   29 2    
    57   28   30 1    
    58   30   31 1    
    59   30   32 1    
    60   30  107 1    
    61   31  108 1    
    62   31  109 1    
    63   31  110 1    
    64   32   33 am   BACKBONE|DICT|INTERRES
    65   32  111 1    
    66   33   34 2    
    67   33   35 1    
    68   35   36 1    
    69   35   37 1    
    70   35  112 1    
    71   36  113 1    
    72   36  114 1    
    73   36  115 1    
    74   37   38 am   BACKBONE|DICT|INTERRES
    75   37  116 1    
    76   38   39 2    
    77   38   40 1    
    78   40   41 1    
    79   40   42 1    
    80   40  117 1    
    81   41  118 1    
    82   41  119 1    
    83   41  120 1    
    84   42   43 am   BACKBONE|DICT|INTERRES
    85   42  121 1    
    86   43   44 2    
    87   43   45 1    
    88   45   46 1    
    89   45   47 1    
    90   45  122 1    
    91   46  123 1    
    92   46  124 1    
    93   46  125 1    
    94   47   48 am   BACKBONE|DICT|INTERRES
    95   47  126 1    
    96   48   49 2    
    97   48   50 1    
    98   50   51 1    
    99   50   52 1    
   100   50  127 1    
   101   51  128 1    
   102   51  129 1    
   103   51  130 1    
   104   52   53 am   BACKBONE|DICT|INTERRES
   105   52  131 1    
   106   53   54 2    
   107   53   55 1    
   108   55   56 1    
   109   55   59 1    
   110   55  132 1    
   111   56   57 1    
   112   56  133 1    
   113   56  134 1    
   114   57   58 1    
   115   58  135 1    
   116   58  136 1    
   117   59   60 am   BACKBONE|DICT|INTERRES
   118   59  137 1    
   119   60   61 2    
   120   60   62 1    
   121   62   63 1    
   122   62   64 1    
   123   62  138 1    
   124   63  139 1    
   125   63  140 1    
   126   63  141 1    
   127   64   65 am   BACKBONE|DICT|INTERRES
   128   64  142 1    
   129   65   66 2    
   130   65   67 1    
   131   67   68 1    
   132   67   69 1    
   133   67  143 1    
   134   68  144 1    
   135   68  145 1    
   136   68  146 1    
   137   69   70 am   BACKBONE|DICT|INTERRES
   138   69  147 1    
   139   70   71 2    
   140   70   72 1    
   141   72   73 1    
   142   72   74 1    
   143   72  148 1    
   144   73  149 1    
   145   73  150 1    
   146   73  151 1    
   147   74   75 am   BACKBONE|DICT|INTERRES
   148   74  152 1    
   149   75   76 2    
   150   75   77 1    
   151   77   78 1    
   152   77   79 1    
   153   77  153 1    
   154   78  154 1    
   155   78  155 1    
   156   78  156 1    
   157   79   80 am   BACKBONE|DICT|INTERRES
   158   79  157 1    
   159   80   81 2    
@<TRIPOS>SUBSTRUCTURE
     1 UNK         1 GROUP             0       ****    0 ROOT    
