@<TRIPOS>MOLECULE
3R207
157   159    1
SMALL
USER_CHARGES


@<TRIPOS>ATOM
      1 CA        -50.2033  -28.5204    8.9948 C.3       0 UNK        -0.1975 
      2 C         -49.7487  -28.9681    7.6223 C.2       0 UNK         0.4852 
      3 O         -48.6228  -29.4348    7.4502 O.2       0 UNK        -0.5216 
      4 N         -50.6362  -28.8266    6.6365 N.am      1 UNK        -0.4461 
      5 CA        -50.4737  -29.2954    5.2590 C.3       1 UNK         0.0864 
      6 C6        -51.8338  -29.6914    4.6095 C.3       14 UNK        -0.0898 
      7 S7        -52.9782  -30.5745    5.7334 S.3       14 UNK        -0.2598 
      8 C8        -54.3113  -29.3462    5.9607 C.3       14 UNK         0.0286 
      9 C9        -53.9197  -28.1858    6.8730 C.ar      14 UNK        -0.0844 
     10 C10       -53.2304  -27.0836    6.3596 C.ar      14 UNK        -0.0881 
     11 C11       -52.9031  -25.9996    7.1766 C.ar      14 UNK        -0.0643 
     12 C12       -53.3214  -25.9940    8.5107 C.ar      14 UNK        -0.0930 
     13 C13       -54.0304  -27.0801    9.0398 C.ar      14 UNK        -0.0827 
     14 C14       -54.3057  -28.1799    8.2178 C.ar      14 UNK        -0.1249 
     15 C15       -54.6024  -27.0470   10.4569 C.3       14 UNK         0.0141 
     16 S16       -53.5458  -26.2409   11.7097 S.3       14 UNK        -0.2313 
     17 C17       -52.2176  -27.4614   11.9815 C.3       14 UNK        -0.0915 
     18 CA        -52.6876  -28.8386   12.5286 C.3       13 UNK         0.0968 
     19 C         -51.4929  -29.7948   12.8155 C.2       13 UNK         0.5732 
     20 N         -51.4414  -30.4917   13.9459 N.am      13 UNK        -0.7310 
     21 O         -50.6009  -29.9333   11.9839 O.2       13 UNK        -0.5035 
     22 N         -53.5935  -28.6963   13.6772 N.am      13 UNK        -0.4233 
     23 C         -54.7433  -29.3638   13.8309 C.2       13 UNK         0.4989 
     24 O         -55.2114  -30.1237   12.9806 O.2       13 UNK        -0.4996 
     25 CA        -55.4983  -29.1484   15.1591 C.3       12 UNK         0.0216 
     26 CB        -56.5232  -30.2649   15.4528 C.3       12 UNK        -0.1964 
     27 N         -54.6153  -28.9477   16.3152 N.am      12 UNK        -0.4276 
     28 C         -53.6574  -29.7763   16.7646 C.2       12 UNK         0.5020 
     29 O         -53.3868  -30.8527   16.2297 O.2       12 UNK        -0.5489 
     30 CA        -52.8324  -29.3209   17.9841 C.3       11 UNK         0.0294 
     31 CB        -51.3374  -29.6366   17.7946 C.3       11 UNK        -0.2019 
     32 N         -52.9798  -27.8843   18.2197 N.am      11 UNK        -0.4493 
     33 C         -53.7020  -27.3239   19.1998 C.2       11 UNK         0.4932 
     34 O         -54.2700  -27.9641   20.0844 O.2       11 UNK        -0.5029 
     35 CA        -53.8383  -25.7877   19.1828 C.3       10 UNK         0.0280 
     36 CB        -52.8569  -25.1532   20.1812 C.3       10 UNK        -0.1976 
     37 N         -53.6314  -25.1893   17.8595 N.am      10 UNK        -0.4242 
     38 C         -54.4074  -25.3990   16.7855 C.2       10 UNK         0.5072 
     39 O         -55.4303  -26.0837   16.8048 O.2       10 UNK        -0.5224 
     40 CA        -53.9138  -24.8175   15.4495 C.3       9 UNK         0.0343 
     41 CB        -54.4731  -23.4046   15.2268 C.3       9 UNK        -0.2003 
     42 N         -52.4520  -24.7876   15.3358 N.am      9 UNK        -0.4272 
     43 C         -51.6499  -25.8599   15.3524 C.2       9 UNK         0.4988 
     44 O         -52.0743  -27.0096   15.4870 O.2       9 UNK        -0.5108 
     45 CA        -50.1330  -25.6059   15.2254 C.3       8 UNK         0.0248 
     46 CB        -49.3341  -26.9071   15.0224 C.3       8 UNK        -0.2001 
     47 N         -49.7886  -24.6563   14.1596 N.am      8 UNK        -0.4140 
     48 C         -49.9209  -23.3219   14.2396 C.2       8 UNK         0.5028 
     49 O         -50.4068  -22.7550   15.2197 O.2       8 UNK        -0.5428 
     50 CA        -49.4556  -22.4639   13.0481 C.3       7 UNK         0.0264 
     51 CB        -48.1245  -21.7702   13.3782 C.3       7 UNK        -0.1988 
     52 N         -49.3163  -23.2248   11.8043 N.am      7 UNK        -0.4454 
     53 C         -50.3582  -23.6470   11.0688 C.2       7 UNK         0.5027 
     54 O         -51.5224  -23.3407   11.3260 O.2       7 UNK        -0.5083 
     55 CA        -50.0861  -24.5611    9.8505 C.3       6 UNK         0.0844 
     56 C56       -50.3471  -23.7899    8.5350 C.3       14 UNK        -0.0967 
     57 S57       -50.3700  -24.8736    7.0647 S.3       14 UNK        -0.2604 
     58 C58       -52.1303  -24.8255    6.5939 C.3       14 UNK         0.0134 
     59 N         -48.7565  -25.1809    9.8594 N.am      6 UNK        -0.4116 
     60 C         -48.2930  -26.0195   10.7980 C.2       5 UNK         0.5034 
     61 O         -48.9662  -26.4167   11.7473 O.2       5 UNK        -0.5045 
     62 CA        -46.8078  -26.4178   10.7146 C.3       5 UNK         0.0224 
     63 CB        -46.6421  -27.7772   10.0207 C.3       5 UNK        -0.1978 
     64 N         -45.9659  -25.4224   10.0409 N.am      5 UNK        -0.4737 
     65 C         -45.8111  -24.1518   10.4413 C.2       4 UNK         0.5027 
     66 O         -46.3562  -23.6890   11.4423 O.2       4 UNK        -0.5211 
     67 CA        -44.9370  -23.2280    9.5763 C.3       4 UNK         0.0297 
     68 CB        -43.5687  -23.0125   10.2426 C.3       4 UNK        -0.1993 
     69 N         -44.7341  -23.6918    8.1999 N.am      4 UNK        -0.4486 
     70 C         -45.6899  -23.8263    7.2696 C.2       3 UNK         0.4961 
     71 O         -46.8835  -23.6046    7.4844 O.2       3 UNK        -0.5105 
     72 CA        -45.2218  -24.2409    5.8584 C.3       3 UNK         0.0299 
     73 CB        -43.8822  -25.0153    5.8487 C.3       3 UNK        -0.1972 
     74 N         -46.2378  -24.9777    5.0984 N.am      3 UNK        -0.4305 
     75 C         -46.7851  -26.1614    5.4081 C.2       2 UNK         0.5006 
     76 O         -46.5467  -26.7974    6.4381 O.2       2 UNK        -0.5106 
     77 CA        -47.7084  -26.7577    4.3386 C.3       2 UNK         0.0296 
     78 CB        -46.8847  -27.3424    3.1729 C.3       2 UNK        -0.2002 
     79 N         -48.5451  -27.7967    4.9317 N.am      2 UNK        -0.4032 
     80 C         -49.6892  -28.2623    4.4159 C.2       1 UNK         0.5000 
     81 O         -50.1393  -27.8841    3.3313 O.2       1 UNK        -0.5238 
     82 H82       -51.1308  -29.0247    9.2657 H         1 UNK         0.0889 
     83 H83       -50.3795  -27.4471    8.9964 H         1 UNK         0.0889 
     84 H84       -49.4590  -28.7541    9.7541 H         1 UNK         0.0889 
     85 H85       -51.5403  -28.4221    6.8446 H         1 UNK         0.3028 
     86 H86       -49.8615  -30.1997    5.2834 H         1 UNK         0.0864 
     87 H87       -51.6464  -30.3407    3.7526 H         1 UNK         0.0720 
     88 H88       -52.3521  -28.8272    4.1960 H         1 UNK         0.0720 
     89 H89       -54.6302  -28.9667    4.9887 H         1 UNK         0.0814 
     90 H90       -55.1806  -29.8599    6.3741 H         1 UNK         0.0814 
     91 H91       -52.9494  -27.0577    5.3169 H         1 UNK         0.1469 
     92 H92       -53.1126  -25.1322    9.1292 H         1 UNK         0.1381 
     93 H93       -54.8663  -29.0163    8.6131 H         1 UNK         0.1206 
     94 H94       -54.8638  -28.0498   10.7948 H         1 UNK         0.0813 
     95 H95       -55.5431  -26.4969   10.4170 H         1 UNK         0.0813 
     96 H96       -51.6864  -27.5834   11.0407 H         1 UNK         0.0638 
     97 H97       -51.5016  -27.0087   12.6662 H         1 UNK         0.0638 
     98 H98       -53.2211  -29.3293   11.7144 H         1 UNK         0.0568 
     99 H99       -50.6612  -31.1093   14.0982 H         1 UNK         0.3450 
    100 H100      -52.1888  -30.4498   14.6292 H         1 UNK         0.3450 
    101 H101      -53.2411  -28.1137   14.4314 H         1 UNK         0.2987 
    102 H102      -56.0527  -28.2168   15.0370 H         1 UNK         0.0766 
    103 H103      -57.0613  -30.0747   16.3815 H         1 UNK         0.0798 
    104 H104      -57.2674  -30.3346   14.6585 H         1 UNK         0.0798 
    105 H105      -56.0435  -31.2407   15.5364 H         1 UNK         0.0798 
    106 H106      -54.7480  -28.0657   16.7986 H         1 UNK         0.3198 
    107 H107      -53.1942  -29.8875   18.8445 H         1 UNK         0.0843 
    108 H108      -50.7449  -29.2817   18.6378 H         1 UNK         0.0831 
    109 H109      -50.9429  -29.1779   16.8876 H         1 UNK         0.0831 
    110 H110      -51.1705  -30.7114   17.7134 H         1 UNK         0.0831 
    111 H111      -52.5780  -27.2897   17.5034 H         1 UNK         0.3133 
    112 H112      -54.8548  -25.5465   19.5007 H         1 UNK         0.0566 
    113 H113      -51.8189  -25.3447   19.9058 H         1 UNK         0.0814 
    114 H114      -53.0064  -25.5554   21.1844 H         1 UNK         0.0814 
    115 H115      -52.9955  -24.0737   20.2445 H         1 UNK         0.0814 
    116 H116      -52.8114  -24.6112   17.7447 H         1 UNK         0.3091 
    117 H117      -54.2913  -25.4637   14.6542 H         1 UNK         0.0702 
    118 H118      -54.1017  -22.6998   15.9718 H         1 UNK         0.0785 
    119 H119      -55.5624  -23.4019   15.2865 H         1 UNK         0.0785 
    120 H120      -54.2028  -23.0251   14.2409 H         1 UNK         0.0785 
    121 H121      -52.0071  -23.8778   15.2532 H         1 UNK         0.2998 
    122 H122      -49.8111  -25.1761   16.1761 H         1 UNK         0.0697 
    123 H123      -49.6537  -27.4465   14.1306 H         1 UNK         0.0825 
    124 H124      -49.4615  -27.5802   15.8702 H         1 UNK         0.0825 
    125 H125      -48.2664  -26.7092   14.9278 H         1 UNK         0.0825 
    126 H126      -49.4365  -25.0630   13.2996 H         1 UNK         0.3029 
    127 H127      -50.2087  -21.6879   12.8933 H         1 UNK         0.0897 
    128 H128      -47.7788  -21.1533   12.5486 H         1 UNK         0.0792 
    129 H129      -48.2307  -21.1174   14.2458 H         1 UNK         0.0792 
    130 H130      -47.3401  -22.4915   13.6105 H         1 UNK         0.0792 
    131 H131      -48.3714  -23.4925   11.5431 H         1 UNK         0.3086 
    132 H132      -50.8155  -25.3689    9.9224 H         1 UNK         0.0583 
    133 H133      -51.2884  -23.2405    8.5910 H         1 UNK         0.1020 
    134 H134      -49.5759  -23.0319    8.3828 H         1 UNK         0.1020 
    135 H135      -52.5940  -23.8847    6.8919 H         1 UNK         0.0694 
    136 H136      -52.1862  -24.8455    5.5044 H         1 UNK         0.0694 
    137 H137      -48.1313  -24.8979    9.1151 H         1 UNK         0.2989 
    138 H138      -46.4455  -26.5110   11.7408 H         1 UNK         0.1055 
    139 H139      -45.5995  -28.0948   10.0088 H         1 UNK         0.0806 
    140 H140      -46.9959  -27.7491    8.9893 H         1 UNK         0.0806 
    141 H141      -47.2069  -28.5518   10.5411 H         1 UNK         0.0806 
    142 H142      -45.5055  -25.7138    9.1900 H         1 UNK         0.3061 
    143 H143      -45.4474  -22.2638    9.5258 H         1 UNK         0.0734 
    144 H144      -43.6854  -22.6368   11.2604 H         1 UNK         0.0832 
    145 H145      -42.9975  -23.9398   10.3023 H         1 UNK         0.0832 
    146 H146      -42.9706  -22.2814    9.6983 H         1 UNK         0.0832 
    147 H147      -43.7824  -23.8971    7.9317 H         1 UNK         0.3156 
    148 H148      -45.0643  -23.3089    5.3138 H         1 UNK         0.0589 
    149 H149      -43.9229  -25.9078    6.4747 H         1 UNK         0.0808 
    150 H150      -43.6220  -25.3352    4.8394 H         1 UNK         0.0808 
    151 H151      -43.0555  -24.3972    6.2003 H         1 UNK         0.0808 
    152 H152      -46.5373  -24.5315    4.2427 H         1 UNK         0.3098 
    153 H153      -48.3551  -25.9594    3.9678 H         1 UNK         0.0720 
    154 H154      -47.5271  -27.7257    2.3800 H         1 UNK         0.0791 
    155 H155      -46.2408  -26.5857    2.7230 H         1 UNK         0.0791 
    156 H156      -46.2437  -28.1590    3.5075 H         1 UNK         0.0791 
    157 H157      -48.2418  -28.1255    5.8454 H         1 UNK         0.3028 
@<TRIPOS>BOND
     1    1    2 1    
     2    1   82 1    
     3    1   83 1    
     4    1   84 1    
     5    2    3 2    
     6    2    4 am   BACKBONE|DICT|INTERRES
     7    4    5 1    
     8    4   85 1    
     9    5    6 1    
    10    5   80 1    
    11    5   86 1    
    12    6    7 1    
    13    6   87 1    
    14    6   88 1    
    15    7    8 1    
    16    8    9 1    
    17    8   89 1    
    18    8   90 1    
    19    9   10 ar   
    20    9   14 ar   
    21   10   11 ar   
    22   10   91 1    
    23   11   12 ar   
    24   11   58 1    
    25   12   13 ar   
    26   12   92 1    
    27   13   14 ar   
    28   13   15 1    
    29   14   93 1    
    30   15   16 1    
    31   15   94 1    
    32   15   95 1    
    33   16   17 1    
    34   17   18 1    
    35   17   96 1    
    36   17   97 1    
    37   18   19 1    
    38   18   22 1    
    39   18   98 1    
    40   19   20 am   BACKBONE|DICT|INTERRES
    41   19   21 2    
    42   20   99 1    
    43   20  100 1    
    44   22   23 am   BACKBONE|DICT|INTERRES
    45   22  101 1    
    46   23   24 2    
    47   23   25 1    
    48   25   26 1    
    49   25   27 1    
    50   25  102 1    
    51   26  103 1    
    52   26  104 1    
    53   26  105 1    
    54   27   28 am   BACKBONE|DICT|INTERRES
    55   27  106 1    
    56   28   29 2    
    57   28   30 1    
    58   30   31 1    
    59   30   32 1    
    60   30  107 1    
    61   31  108 1    
    62   31  109 1    
    63   31  110 1    
    64   32   33 am   BACKBONE|DICT|INTERRES
    65   32  111 1    
    66   33   34 2    
    67   33   35 1    
    68   35   36 1    
    69   35   37 1    
    70   35  112 1    
    71   36  113 1    
    72   36  114 1    
    73   36  115 1    
    74   37   38 am   BACKBONE|DICT|INTERRES
    75   37  116 1    
    76   38   39 2    
    77   38   40 1    
    78   40   41 1    
    79   40   42 1    
    80   40  117 1    
    81   41  118 1    
    82   41  119 1    
    83   41  120 1    
    84   42   43 am   BACKBONE|DICT|INTERRES
    85   42  121 1    
    86   43   44 2    
    87   43   45 1    
    88   45   46 1    
    89   45   47 1    
    90   45  122 1    
    91   46  123 1    
    92   46  124 1    
    93   46  125 1    
    94   47   48 am   BACKBONE|DICT|INTERRES
    95   47  126 1    
    96   48   49 2    
    97   48   50 1    
    98   50   51 1    
    99   50   52 1    
   100   50  127 1    
   101   51  128 1    
   102   51  129 1    
   103   51  130 1    
   104   52   53 am   BACKBONE|DICT|INTERRES
   105   52  131 1    
   106   53   54 2    
   107   53   55 1    
   108   55   56 1    
   109   55   59 1    
   110   55  132 1    
   111   56   57 1    
   112   56  133 1    
   113   56  134 1    
   114   57   58 1    
   115   58  135 1    
   116   58  136 1    
   117   59   60 am   BACKBONE|DICT|INTERRES
   118   59  137 1    
   119   60   61 2    
   120   60   62 1    
   121   62   63 1    
   122   62   64 1    
   123   62  138 1    
   124   63  139 1    
   125   63  140 1    
   126   63  141 1    
   127   64   65 am   BACKBONE|DICT|INTERRES
   128   64  142 1    
   129   65   66 2    
   130   65   67 1    
   131   67   68 1    
   132   67   69 1    
   133   67  143 1    
   134   68  144 1    
   135   68  145 1    
   136   68  146 1    
   137   69   70 am   BACKBONE|DICT|INTERRES
   138   69  147 1    
   139   70   71 2    
   140   70   72 1    
   141   72   73 1    
   142   72   74 1    
   143   72  148 1    
   144   73  149 1    
   145   73  150 1    
   146   73  151 1    
   147   74   75 am   BACKBONE|DICT|INTERRES
   148   74  152 1    
   149   75   76 2    
   150   75   77 1    
   151   77   78 1    
   152   77   79 1    
   153   77  153 1    
   154   78  154 1    
   155   78  155 1    
   156   78  156 1    
   157   79   80 am   BACKBONE|DICT|INTERRES
   158   79  157 1    
   159   80   81 2    
@<TRIPOS>SUBSTRUCTURE
     1 UNK         1 GROUP             0       ****    0 ROOT    
