@<TRIPOS>MOLECULE
3R207
157   159    1
SMALL
USER_CHARGES


@<TRIPOS>ATOM
      1 CA        -46.4193  -30.9796    8.3849 C.3       0 UNK        -0.1975 
      2 C         -47.2056  -31.0226    7.0829 C.2       0 UNK         0.4852 
      3 O         -46.6518  -31.3903    6.0464 O.2       0 UNK        -0.5216 
      4 N         -48.4933  -30.6546    7.1312 N.am      1 UNK        -0.4461 
      5 CA        -49.4084  -30.6136    5.9826 C.3       1 UNK         0.0864 
      6 C6        -50.8889  -30.5219    6.4312 C.3       14 UNK        -0.0898 
      7 S7        -51.2298  -29.1417    7.5785 S.3       14 UNK        -0.2598 
      8 C8        -52.5021  -28.2251    6.6620 C.3       14 UNK         0.0286 
      9 C9        -52.8963  -26.9580    7.4031 C.ar      14 UNK        -0.0844 
     10 C10       -52.4508  -25.7118    6.9546 C.ar      14 UNK        -0.0881 
     11 C11       -52.8120  -24.5437    7.6324 C.ar      14 UNK        -0.0643 
     12 C12       -53.6210  -24.6267    8.7681 C.ar      14 UNK        -0.0930 
     13 C13       -54.0543  -25.8695    9.2377 C.ar      14 UNK        -0.0827 
     14 C14       -53.7023  -27.0309    8.5430 C.ar      14 UNK        -0.1249 
     15 C15       -54.8852  -25.9555   10.5082 C.3       14 UNK         0.0141 
     16 S16       -53.9021  -25.5736   11.9949 S.3       14 UNK        -0.2313 
     17 C17       -52.5874  -26.8416   11.9376 C.3       14 UNK        -0.0915 
     18 CA        -53.0918  -28.2883   12.1837 C.3       13 UNK         0.0968 
     19 C         -51.9203  -29.3055   12.1722 C.2       13 UNK         0.5732 
     20 N         -51.3366  -29.5655   11.0104 N.am      13 UNK        -0.7310 
     21 O         -51.5231  -29.8598   13.1952 O.2       13 UNK        -0.5035 
     22 N         -53.8758  -28.3823   13.4215 N.am      13 UNK        -0.4233 
     23 C         -55.0638  -28.9879   13.5329 C.2       13 UNK         0.4989 
     24 O         -55.6404  -29.5435   12.5954 O.2       13 UNK        -0.4996 
     25 CA        -55.7367  -28.9365   14.9192 C.3       12 UNK         0.0216 
     26 CB        -56.9108  -29.9287   15.0684 C.3       12 UNK        -0.1964 
     27 N         -54.7817  -29.0695   16.0239 N.am      12 UNK        -0.4276 
     28 C         -54.0027  -30.1254   16.3116 C.2       12 UNK         0.5020 
     29 O         -54.0576  -31.2005   15.7128 O.2       12 UNK        -0.5489 
     30 CA        -52.9776  -29.9629   17.4515 C.3       11 UNK         0.0294 
     31 CB        -51.5611  -30.3132   16.9627 C.3       11 UNK        -0.2019 
     32 N         -52.9630  -28.5999   17.9886 N.am      11 UNK        -0.4493 
     33 C         -53.6110  -28.1984   19.0914 C.2       11 UNK         0.4932 
     34 O         -54.2393  -28.9572   19.8294 O.2       11 UNK        -0.5029 
     35 CA        -53.5738  -26.6935   19.4251 C.3       10 UNK         0.0280 
     36 CB        -52.4962  -26.4073   20.4832 C.3       10 UNK        -0.1976 
     37 N         -53.3460  -25.8306   18.2612 N.am      10 UNK        -0.4242 
     38 C         -54.1805  -25.7014   17.2190 C.2       10 UNK         0.5072 
     39 O         -55.2660  -26.2758   17.1369 O.2       10 UNK        -0.5224 
     40 CA        -53.6845  -24.8533   16.0348 C.3       9 UNK         0.0343 
     41 CB        -54.0732  -23.3785   16.2163 C.3       9 UNK        -0.2003 
     42 N         -52.2386  -24.9539   15.8117 N.am      9 UNK        -0.4272 
     43 C         -51.5771  -26.0827   15.5251 C.2       9 UNK         0.4988 
     44 O         -52.1317  -27.1811   15.4496 O.2       9 UNK        -0.5108 
     45 CA        -50.0538  -25.9679   15.3130 C.3       8 UNK         0.0248 
     46 CB        -49.4342  -27.2688   14.7699 C.3       8 UNK        -0.2001 
     47 N         -49.6786  -24.8541   14.4341 N.am      8 UNK        -0.4140 
     48 C         -49.6044  -23.5673   14.8090 C.2       8 UNK         0.5028 
     49 O         -49.9151  -23.1791   15.9362 O.2       8 UNK        -0.5428 
     50 CA        -49.1162  -22.5311   13.7790 C.3       7 UNK         0.0264 
     51 CB        -47.6372  -22.1912   14.0238 C.3       7 UNK        -0.1988 
     52 N         -49.2820  -22.9559   12.3891 N.am      7 UNK        -0.4454 
     53 C         -50.4594  -23.0648   11.7568 C.2       7 UNK         0.5027 
     54 O         -51.5321  -22.7361   12.2639 O.2       7 UNK        -0.5083 
     55 CA        -50.4417  -23.6242   10.3157 C.3       6 UNK         0.0844 
     56 C56       -50.6285  -22.4581    9.3104 C.3       14 UNK        -0.0967 
     57 S57       -50.5619  -22.9548    7.5564 S.3       14 UNK        -0.2604 
     58 C58       -52.3136  -23.1966    7.1390 C.3       14 UNK         0.0134 
     59 N         -49.2758  -24.4646    9.9976 N.am      6 UNK        -0.4116 
     60 C         -48.8960  -25.5685   10.6597 C.2       5 UNK         0.5034 
     61 O         -49.4135  -25.9468   11.7095 O.2       5 UNK        -0.5045 
     62 CA        -47.7401  -26.3946   10.0785 C.3       5 UNK         0.0224 
     63 CB        -48.2811  -27.6874    9.4499 C.3       5 UNK        -0.1978 
     64 N         -46.9457  -25.6705    9.0826 N.am      5 UNK        -0.4737 
     65 C         -45.9259  -24.8541    9.3847 C.2       4 UNK         0.5027 
     66 O         -45.6049  -24.5735   10.5397 O.2       4 UNK        -0.5211 
     67 CA        -45.1045  -24.2677    8.2200 C.3       4 UNK         0.0297 
     68 CB        -43.8066  -25.0698    8.0305 C.3       4 UNK        -0.1993 
     69 N         -45.8323  -24.2354    6.9500 N.am      4 UNK        -0.4486 
     70 C         -46.8109  -23.3683    6.6609 C.2       3 UNK         0.4961 
     71 O         -47.1423  -22.4487    7.4088 O.2       3 UNK        -0.5105 
     72 CA        -47.5515  -23.5567    5.3202 C.3       3 UNK         0.0299 
     73 CB        -46.9886  -22.5903    4.2655 C.3       3 UNK        -0.1972 
     74 N         -47.5467  -24.9212    4.7712 N.am      3 UNK        -0.4305 
     75 C         -47.9596  -26.0315    5.3996 C.2       2 UNK         0.5006 
     76 O         -48.3270  -26.0596    6.5758 O.2       2 UNK        -0.5106 
     77 CA        -47.9144  -27.3320    4.5870 C.3       2 UNK         0.0296 
     78 CB        -46.4777  -27.6759    4.1449 C.3       2 UNK        -0.2002 
     79 N         -48.4400  -28.4249    5.4005 N.am      2 UNK        -0.4032 
     80 C         -49.0392  -29.5307    4.9428 C.2       1 UNK         0.5000 
     81 O         -49.2770  -29.7345    3.7503 O.2       1 UNK        -0.5238 
     82 H82       -47.0609  -30.7806    9.2430 H         1 UNK         0.0889 
     83 H83       -45.6586  -30.2008    8.3381 H         1 UNK         0.0889 
     84 H84       -45.9203  -31.9336    8.5533 H         1 UNK         0.0889 
     85 H85       -48.9023  -30.3697    8.0098 H         1 UNK         0.3028 
     86 H86       -49.2964  -31.5681    5.4632 H         1 UNK         0.0864 
     87 H87       -51.1648  -31.4441    6.9450 H         1 UNK         0.0720 
     88 H88       -51.5507  -30.4670    5.5646 H         1 UNK         0.0720 
     89 H89       -52.1283  -27.9866    5.6648 H         1 UNK         0.0814 
     90 H90       -53.3799  -28.8581    6.5242 H         1 UNK         0.0814 
     91 H91       -51.8123  -25.6471    6.0840 H         1 UNK         0.1469 
     92 H92       -53.8901  -23.7283    9.3067 H         1 UNK         0.1381 
     93 H93       -54.0376  -27.9958    8.8977 H         1 UNK         0.1206 
     94 H94       -55.3370  -26.9426   10.6157 H         1 UNK         0.0813 
     95 H95       -55.7140  -25.2494   10.4445 H         1 UNK         0.0813 
     96 H96       -52.0727  -26.7681   10.9784 H         1 UNK         0.0638 
     97 H97       -51.8461  -26.5689   12.6877 H         1 UNK         0.0638 
     98 H98       -53.7271  -28.5585   11.3396 H         1 UNK         0.0568 
     99 H99       -51.6368  -29.1250   10.1542 H         1 UNK         0.3450 
    100 H100      -50.5794  -30.2283   10.9938 H         1 UNK         0.3450 
    101 H101      -53.4155  -28.0114   14.2474 H         1 UNK         0.2987 
    102 H102      -56.1514  -27.9311   15.0063 H         1 UNK         0.0766 
    103 H103      -57.3694  -29.8551   16.0544 H         1 UNK         0.0798 
    104 H104      -57.6905  -29.7236   14.3339 H         1 UNK         0.0798 
    105 H105      -56.5923  -30.9611   14.9217 H         1 UNK         0.0798 
    106 H106      -54.6761  -28.2361   16.5914 H         1 UNK         0.3198 
    107 H107      -53.2502  -30.6717   18.2362 H         1 UNK         0.0843 
    108 H108      -50.8191  -30.1713   17.7484 H         1 UNK         0.0831 
    109 H109      -51.2705  -29.7033   16.1068 H         1 UNK         0.0831 
    110 H110      -51.5038  -31.3558   16.6475 H         1 UNK         0.0831 
    111 H111      -52.5038  -27.9086   17.4063 H         1 UNK         0.3133 
    112 H112      -54.5457  -26.4293   19.8472 H         1 UNK         0.0566 
    113 H113      -51.4953  -26.6327   20.1128 H         1 UNK         0.0814 
    114 H114      -52.6562  -27.0129   21.3766 H         1 UNK         0.0814 
    115 H115      -52.5129  -25.3632   20.7964 H         1 UNK         0.0814 
    116 H116      -52.4742  -25.3215   18.2354 H         1 UNK         0.3091 
    117 H117      -54.1791  -25.2285   15.1363 H         1 UNK         0.0702 
    118 H118      -53.5786  -22.9324   17.0800 H         1 UNK         0.0785 
    119 H119      -55.1491  -23.2736   16.3638 H         1 UNK         0.0785 
    120 H120      -53.8091  -22.7904   15.3368 H         1 UNK         0.0785 
    121 H121      -51.6929  -24.1006   15.8823 H         1 UNK         0.2998 
    122 H122      -49.6158  -25.7894   16.2971 H         1 UNK         0.0697 
    123 H123      -49.8701  -27.5558   13.8128 H         1 UNK         0.0825 
    124 H124      -49.5944  -28.0975   15.4598 H         1 UNK         0.0825 
    125 H125      -48.3578  -27.1702   14.6302 H         1 UNK         0.0825 
    126 H126      -49.4841  -25.0990   13.4666 H         1 UNK         0.3029 
    127 H127      -49.7052  -21.6234   13.9292 H         1 UNK         0.0897 
    128 H128      -47.2967  -21.3963   13.3598 H         1 UNK         0.0792 
    129 H129      -47.4801  -21.8452   15.0466 H         1 UNK         0.0792 
    130 H130      -46.9923  -23.0576   13.8701 H         1 UNK         0.0792 
    131 H131      -48.4482  -23.2429   11.8964 H         1 UNK         0.3086 
    132 H132      -51.3089  -24.2810   10.2373 H         1 UNK         0.0583 
    133 H133      -51.5722  -21.9416    9.4971 H         1 UNK         0.1020 
    134 H134      -49.8468  -21.7095    9.4559 H         1 UNK         0.1020 
    135 H135      -52.9130  -22.3792    7.5424 H         1 UNK         0.0694 
    136 H136      -52.4243  -23.1491    6.0547 H         1 UNK         0.0694 
    137 H137      -48.7977  -24.2406    9.1359 H         1 UNK         0.2989 
    138 H138      -47.0919  -26.6739   10.9126 H         1 UNK         0.1055 
    139 H139      -47.4798  -28.2784    9.0091 H         1 UNK         0.0806 
    140 H140      -49.0163  -27.4765    8.6734 H         1 UNK         0.0806 
    141 H141      -48.7729  -28.3076   10.2004 H         1 UNK         0.0806 
    142 H142      -47.2132  -25.8031    8.1102 H         1 UNK         0.3061 
    143 H143      -44.8358  -23.2442    8.4910 H         1 UNK         0.0734 
    144 H144      -43.2219  -25.0879    8.9515 H         1 UNK         0.0832 
    145 H145      -44.0075  -26.1054    7.7530 H         1 UNK         0.0832 
    146 H146      -43.1758  -24.6295    7.2581 H         1 UNK         0.0832 
    147 H147      -45.6156  -24.9546    6.2759 H         1 UNK         0.3156 
    148 H148      -48.5952  -23.2917    5.4896 H         1 UNK         0.0589 
    149 H149      -45.9543  -22.8269    4.0123 H         1 UNK         0.0808 
    150 H150      -47.5756  -22.6158    3.3472 H         1 UNK         0.0808 
    151 H151      -47.0076  -21.5615    4.6287 H         1 UNK         0.0808 
    152 H152      -47.2498  -25.0054    3.8095 H         1 UNK         0.3098 
    153 H153      -48.5485  -27.1956    3.7085 H         1 UNK         0.0720 
    154 H154      -46.4505  -28.6111    3.5851 H         1 UNK         0.0791 
    155 H155      -46.0597  -26.9062    3.4956 H         1 UNK         0.0791 
    156 H156      -45.8097  -27.7845    5.0005 H         1 UNK         0.0791 
    157 H157      -48.3719  -28.2777    6.3988 H         1 UNK         0.3028 
@<TRIPOS>BOND
     1    1    2 1    
     2    1   82 1    
     3    1   83 1    
     4    1   84 1    
     5    2    3 2    
     6    2    4 am   BACKBONE|DICT|INTERRES
     7    4    5 1    
     8    4   85 1    
     9    5    6 1    
    10    5   80 1    
    11    5   86 1    
    12    6    7 1    
    13    6   87 1    
    14    6   88 1    
    15    7    8 1    
    16    8    9 1    
    17    8   89 1    
    18    8   90 1    
    19    9   10 ar   
    20    9   14 ar   
    21   10   11 ar   
    22   10   91 1    
    23   11   12 ar   
    24   11   58 1    
    25   12   13 ar   
    26   12   92 1    
    27   13   14 ar   
    28   13   15 1    
    29   14   93 1    
    30   15   16 1    
    31   15   94 1    
    32   15   95 1    
    33   16   17 1    
    34   17   18 1    
    35   17   96 1    
    36   17   97 1    
    37   18   19 1    
    38   18   22 1    
    39   18   98 1    
    40   19   20 am   BACKBONE|DICT|INTERRES
    41   19   21 2    
    42   20   99 1    
    43   20  100 1    
    44   22   23 am   BACKBONE|DICT|INTERRES
    45   22  101 1    
    46   23   24 2    
    47   23   25 1    
    48   25   26 1    
    49   25   27 1    
    50   25  102 1    
    51   26  103 1    
    52   26  104 1    
    53   26  105 1    
    54   27   28 am   BACKBONE|DICT|INTERRES
    55   27  106 1    
    56   28   29 2    
    57   28   30 1    
    58   30   31 1    
    59   30   32 1    
    60   30  107 1    
    61   31  108 1    
    62   31  109 1    
    63   31  110 1    
    64   32   33 am   BACKBONE|DICT|INTERRES
    65   32  111 1    
    66   33   34 2    
    67   33   35 1    
    68   35   36 1    
    69   35   37 1    
    70   35  112 1    
    71   36  113 1    
    72   36  114 1    
    73   36  115 1    
    74   37   38 am   BACKBONE|DICT|INTERRES
    75   37  116 1    
    76   38   39 2    
    77   38   40 1    
    78   40   41 1    
    79   40   42 1    
    80   40  117 1    
    81   41  118 1    
    82   41  119 1    
    83   41  120 1    
    84   42   43 am   BACKBONE|DICT|INTERRES
    85   42  121 1    
    86   43   44 2    
    87   43   45 1    
    88   45   46 1    
    89   45   47 1    
    90   45  122 1    
    91   46  123 1    
    92   46  124 1    
    93   46  125 1    
    94   47   48 am   BACKBONE|DICT|INTERRES
    95   47  126 1    
    96   48   49 2    
    97   48   50 1    
    98   50   51 1    
    99   50   52 1    
   100   50  127 1    
   101   51  128 1    
   102   51  129 1    
   103   51  130 1    
   104   52   53 am   BACKBONE|DICT|INTERRES
   105   52  131 1    
   106   53   54 2    
   107   53   55 1    
   108   55   56 1    
   109   55   59 1    
   110   55  132 1    
   111   56   57 1    
   112   56  133 1    
   113   56  134 1    
   114   57   58 1    
   115   58  135 1    
   116   58  136 1    
   117   59   60 am   BACKBONE|DICT|INTERRES
   118   59  137 1    
   119   60   61 2    
   120   60   62 1    
   121   62   63 1    
   122   62   64 1    
   123   62  138 1    
   124   63  139 1    
   125   63  140 1    
   126   63  141 1    
   127   64   65 am   BACKBONE|DICT|INTERRES
   128   64  142 1    
   129   65   66 2    
   130   65   67 1    
   131   67   68 1    
   132   67   69 1    
   133   67  143 1    
   134   68  144 1    
   135   68  145 1    
   136   68  146 1    
   137   69   70 am   BACKBONE|DICT|INTERRES
   138   69  147 1    
   139   70   71 2    
   140   70   72 1    
   141   72   73 1    
   142   72   74 1    
   143   72  148 1    
   144   73  149 1    
   145   73  150 1    
   146   73  151 1    
   147   74   75 am   BACKBONE|DICT|INTERRES
   148   74  152 1    
   149   75   76 2    
   150   75   77 1    
   151   77   78 1    
   152   77   79 1    
   153   77  153 1    
   154   78  154 1    
   155   78  155 1    
   156   78  156 1    
   157   79   80 am   BACKBONE|DICT|INTERRES
   158   79  157 1    
   159   80   81 2    
@<TRIPOS>SUBSTRUCTURE
     1 UNK         1 GROUP             0       ****    0 ROOT    
