@<TRIPOS>MOLECULE
3R207
157   159    1
SMALL
USER_CHARGES


@<TRIPOS>ATOM
      1 CA        -49.5868  -27.4983   10.4259 C.3       0 UNK        -0.1975 
      2 C         -49.9351  -27.9098    9.0033 C.2       0 UNK         0.4852 
      3 O         -50.4448  -29.0094    8.7880 O.2       0 UNK        -0.5216 
      4 N         -49.6452  -27.0394    8.0285 N.am      1 UNK        -0.4461 
      5 CA        -49.8578  -27.2950    6.5998 C.3       1 UNK         0.0864 
      6 C6        -49.9847  -25.9956    5.7660 C.3       14 UNK        -0.0898 
      7 S7        -51.2827  -24.8568    6.3522 S.3       14 UNK        -0.2598 
      8 C8        -52.8088  -25.7584    5.9339 C.3       14 UNK         0.0286 
      9 C9        -53.5757  -26.1095    7.1985 C.ar      14 UNK        -0.0844 
     10 C10       -54.3554  -25.1349    7.8256 C.ar      14 UNK        -0.0881 
     11 C11       -55.0209  -25.4196    9.0205 C.ar      14 UNK        -0.0643 
     12 C12       -54.9356  -26.7009    9.5691 C.ar      14 UNK        -0.0930 
     13 C13       -54.1548  -27.6832    8.9541 C.ar      14 UNK        -0.0827 
     14 C14       -53.4838  -27.3848    7.7641 C.ar      14 UNK        -0.1249 
     15 C15       -54.0066  -29.0525    9.5976 C.3       14 UNK         0.0141 
     16 S16       -53.1675  -28.9190   11.2049 S.3       14 UNK        -0.2313 
     17 C17       -52.8204  -30.6694   11.5786 C.3       14 UNK        -0.0915 
     18 CA        -53.9185  -31.3507   12.4368 C.3       13 UNK         0.0968 
     19 C         -53.5393  -32.8325   12.7265 C.2       13 UNK         0.5732 
     20 N         -53.2442  -33.2156   13.9632 N.am      13 UNK        -0.7310 
     21 O         -53.5166  -33.6499   11.8093 O.2       13 UNK        -0.5035 
     22 N         -54.2658  -30.5473   13.6202 N.am      13 UNK        -0.4233 
     23 C         -55.3536  -30.7227   14.3808 C.2       13 UNK         0.4989 
     24 O         -56.1792  -31.6205   14.2107 O.2       13 UNK        -0.4996 
     25 CA        -55.5662  -29.7110   15.5166 C.3       12 UNK         0.0216 
     26 CB        -54.8583  -30.1781   16.7988 C.3       12 UNK        -0.1964 
     27 N         -55.1082  -28.3645   15.1588 N.am      12 UNK        -0.4276 
     28 C         -55.7933  -27.5241   14.3667 C.2       12 UNK         0.5020 
     29 O         -56.8683  -27.8265   13.8451 O.2       12 UNK        -0.5489 
     30 CA        -55.2112  -26.1175   14.0967 C.3       11 UNK         0.0294 
     31 CB        -56.3059  -25.0308   14.1698 C.3       11 UNK        -0.2019 
     32 N         -54.0609  -25.7521   14.9335 N.am      11 UNK        -0.4493 
     33 C         -54.0331  -25.6090   16.2684 C.2       11 UNK         0.4932 
     34 O         -55.0325  -25.6755   16.9854 O.2       11 UNK        -0.5029 
     35 CA        -52.6461  -25.4023   16.9149 C.3       10 UNK         0.0280 
     36 CB        -52.6179  -25.8397   18.3943 C.3       10 UNK        -0.1976 
     37 N         -51.5405  -26.0407   16.1859 N.am      10 UNK        -0.4242 
     38 C         -51.4433  -27.3278   15.8079 C.2       10 UNK         0.5072 
     39 O         -52.3238  -28.1637   16.0162 O.2       10 UNK        -0.5224 
     40 CA        -50.1804  -27.7524   15.0363 C.3       9 UNK         0.0343 
     41 CB        -50.5190  -28.6979   13.8731 C.3       9 UNK        -0.2003 
     42 N         -49.4682  -26.5910   14.5038 N.am      9 UNK        -0.4272 
     43 C         -48.2748  -26.1573   14.9288 C.2       9 UNK         0.4988 
     44 O         -47.5772  -26.7508   15.7517 O.2       9 UNK        -0.5108 
     45 CA        -47.7854  -24.8121   14.3653 C.3       8 UNK         0.0248 
     46 CB        -46.8052  -25.0395   13.2077 C.3       8 UNK        -0.2001 
     47 N         -48.8712  -23.9274   13.9250 N.am      8 UNK        -0.4140 
     48 C         -49.7682  -23.3716   14.7541 C.2       8 UNK         0.5028 
     49 O         -49.7779  -23.5696   15.9693 O.2       8 UNK        -0.5428 
     50 CA        -50.8661  -22.4811   14.1481 C.3       7 UNK         0.0264 
     51 CB        -50.4707  -20.9999   14.2555 C.3       7 UNK        -0.1988 
     52 N         -51.2076  -22.7861   12.7579 N.am      7 UNK        -0.4454 
     53 C         -51.7230  -23.9435   12.3174 C.2       7 UNK         0.5027 
     54 O         -51.9081  -24.9305   13.0364 O.2       7 UNK        -0.5083 
     55 CA        -52.0721  -23.9975   10.8104 C.3       6 UNK         0.0844 
     56 C56       -53.3214  -23.1201   10.5071 C.3       14 UNK        -0.0967 
     57 S57       -54.8788  -23.7532   11.2180 S.3       14 UNK        -0.2604 
     58 C58       -55.7875  -24.3292    9.7486 C.3       14 UNK         0.0134 
     59 N         -50.9814  -23.6237    9.8903 N.am      6 UNK        -0.4116 
     60 C         -49.6481  -23.7165   10.0223 C.2       5 UNK         0.5034 
     61 O         -49.0665  -24.1435   11.0207 O.2       5 UNK        -0.5045 
     62 CA        -48.8350  -23.1820    8.8269 C.3       5 UNK         0.0224 
     63 CB        -49.1040  -21.6812    8.6072 C.3       5 UNK        -0.1978 
     64 N         -47.3906  -23.3637    8.9860 N.am      5 UNK        -0.4737 
     65 C         -46.7142  -24.4884    8.7324 C.2       4 UNK         0.5027 
     66 O         -47.2351  -25.5435    8.3529 O.2       4 UNK        -0.5211 
     67 CA        -45.1912  -24.4008    8.9111 C.3       4 UNK         0.0297 
     68 CB        -44.7889  -24.3216   10.3920 C.3       4 UNK        -0.1993 
     69 N         -44.5779  -25.5767    8.3093 N.am      4 UNK        -0.4486 
     70 C         -43.4122  -25.6173    7.6548 C.2       3 UNK         0.4961 
     71 O         -42.6531  -24.6534    7.5477 O.2       3 UNK        -0.5105 
     72 CA        -43.0186  -26.9607    7.0060 C.3       3 UNK         0.0299 
     73 CB        -41.8983  -27.6384    7.8124 C.3       3 UNK        -0.1972 
     74 N         -44.1400  -27.8976    6.8659 N.am      3 UNK        -0.4305 
     75 C         -45.1728  -27.7384    6.0264 C.2       2 UNK         0.5006 
     76 O         -45.2592  -26.8120    5.2191 O.2       2 UNK        -0.5106 
     77 CA        -46.3233  -28.7483    6.1225 C.3       2 UNK         0.0296 
     78 CB        -46.0811  -29.9213    7.0971 C.3       2 UNK        -0.2002 
     79 N         -47.5183  -28.0165    6.5304 N.am      2 UNK        -0.4032 
     80 C         -48.7450  -28.1908    6.0245 C.2       1 UNK         0.5000 
     81 O         -49.0206  -29.0151    5.1501 O.2       1 UNK        -0.5238 
     82 H82       -49.2710  -28.3665   11.0028 H         1 UNK         0.0889 
     83 H83       -50.4571  -27.0596   10.9139 H         1 UNK         0.0889 
     84 H84       -48.7756  -26.7710   10.4455 H         1 UNK         0.0889 
     85 H85       -49.1198  -26.2015    8.2519 H         1 UNK         0.3028 
     86 H86       -50.7872  -27.8535    6.4884 H         1 UNK         0.0864 
     87 H87       -50.1859  -26.2299    4.7187 H         1 UNK         0.0720 
     88 H88       -49.0410  -25.4461    5.7759 H         1 UNK         0.0720 
     89 H89       -52.5865  -26.6559    5.3553 H         1 UNK         0.0814 
     90 H90       -53.4266  -25.1301    5.2905 H         1 UNK         0.0814 
     91 H91       -54.4128  -24.1426    7.3993 H         1 UNK         0.1469 
     92 H92       -55.4390  -26.9201   10.5011 H         1 UNK         0.1381 
     93 H93       -52.8736  -28.1419    7.2933 H         1 UNK         0.1206 
     94 H94       -54.9894  -29.5054    9.7344 H         1 UNK         0.0813 
     95 H95       -53.4372  -29.7187    8.9475 H         1 UNK         0.0813 
     96 H96       -52.6722  -31.2095   10.6417 H         1 UNK         0.0638 
     97 H97       -51.8608  -30.7070   12.0966 H         1 UNK         0.0638 
     98 H98       -54.8204  -31.3950   11.8233 H         1 UNK         0.0568 
     99 H99       -53.0042  -34.1786   14.1373 H         1 UNK         0.3450 
    100 H100      -53.2638  -32.5538   14.7216 H         1 UNK         0.3450 
    101 H101      -53.6487  -29.7772   13.8293 H         1 UNK         0.2987 
    102 H102      -56.6376  -29.6653   15.7245 H         1 UNK         0.0766 
    103 H103      -55.0127  -29.4732   17.6161 H         1 UNK         0.0798 
    104 H104      -53.7835  -30.2907   16.6533 H         1 UNK         0.0798 
    105 H105      -55.2447  -31.1443   17.1260 H         1 UNK         0.0798 
    106 H106      -54.2087  -28.0738   15.5349 H         1 UNK         0.3198 
    107 H107      -54.8318  -26.1434   13.0741 H         1 UNK         0.0843 
    108 H108      -56.8357  -25.0512   15.1225 H         1 UNK         0.0831 
    109 H109      -57.0482  -25.1735   13.3836 H         1 UNK         0.0831 
    110 H110      -55.8881  -24.0326   14.0417 H         1 UNK         0.0831 
    111 H111      -53.1864  -25.6414   14.4264 H         1 UNK         0.3133 
    112 H112      -52.4536  -24.3292   16.8810 H         1 UNK         0.0566 
    113 H113      -52.8512  -26.8995   18.5043 H         1 UNK         0.0814 
    114 H114      -51.6396  -25.6633   18.8414 H         1 UNK         0.0814 
    115 H115      -53.3458  -25.2820   18.9849 H         1 UNK         0.0814 
    116 H116      -50.7625  -25.4242   15.9776 H         1 UNK         0.3091 
    117 H117      -49.5547  -28.2988   15.7444 H         1 UNK         0.0702 
    118 H118      -51.0408  -29.5895   14.2228 H         1 UNK         0.0785 
    119 H119      -51.1562  -28.2050   13.1400 H         1 UNK         0.0785 
    120 H120      -49.6167  -29.0346   13.3634 H         1 UNK         0.0785 
    121 H121      -49.9763  -26.0264   13.8333 H         1 UNK         0.2998 
    122 H122      -47.2479  -24.3007   15.1666 H         1 UNK         0.0697 
    123 H123      -47.2745  -25.5658   12.3757 H         1 UNK         0.0825 
    124 H124      -45.9496  -25.6345   13.5297 H         1 UNK         0.0825 
    125 H125      -46.4206  -24.0911   12.8351 H         1 UNK         0.0825 
    126 H126      -48.9611  -23.7822   12.9221 H         1 UNK         0.3029 
    127 H127      -51.7679  -22.6372   14.7443 H         1 UNK         0.0897 
    128 H128      -49.5909  -20.7720   13.6522 H         1 UNK         0.0792 
    129 H129      -50.2365  -20.7319   15.2870 H         1 UNK         0.0792 
    130 H130      -51.2811  -20.3468   13.9309 H         1 UNK         0.0792 
    131 H131      -51.0599  -22.0459   12.0877 H         1 UNK         0.3086 
    132 H132      -52.3153  -25.0355   10.5741 H         1 UNK         0.0583 
    133 H133      -53.1773  -22.0988   10.8647 H         1 UNK         0.1020 
    134 H134      -53.4573  -23.0174    9.4305 H         1 UNK         0.1020 
    135 H135      -56.7599  -24.7132   10.0603 H         1 UNK         0.0694 
    136 H136      -55.9865  -23.4824    9.0899 H         1 UNK         0.0694 
    137 H137      -51.3077  -23.2718    9.0025 H         1 UNK         0.2989 
    138 H138      -49.1490  -23.7263    7.9353 H         1 UNK         0.1055 
    139 H139      -50.1513  -21.4878    8.3725 H         1 UNK         0.0806 
    140 H140      -48.5204  -21.2939    7.7716 H         1 UNK         0.0806 
    141 H141      -48.8528  -21.0921    9.4904 H         1 UNK         0.0806 
    142 H142      -46.8797  -22.5663    9.3362 H         1 UNK         0.3061 
    143 H143      -44.8481  -23.5031    8.3921 H         1 UNK         0.0734 
    144 H144      -43.7080  -24.2341   10.5027 H         1 UNK         0.0832 
    145 H145      -45.2320  -23.4512   10.8763 H         1 UNK         0.0832 
    146 H146      -45.1076  -25.2092   10.9385 H         1 UNK         0.0832 
    147 H147      -45.1746  -26.3921    8.2966 H         1 UNK         0.3156 
    148 H148      -42.6348  -26.7397    6.0077 H         1 UNK         0.0589 
    149 H149      -42.2232  -27.8912    8.8226 H         1 UNK         0.0808 
    150 H150      -41.5572  -28.5538    7.3285 H         1 UNK         0.0808 
    151 H151      -41.0318  -26.9819    7.9047 H         1 UNK         0.0808 
    152 H152      -44.1465  -28.6926    7.4891 H         1 UNK         0.3098 
    153 H153      -46.4566  -29.1561    5.1182 H         1 UNK         0.0720 
    154 H154      -46.9175  -30.6204    7.0734 H         1 UNK         0.0791 
    155 H155      -45.9706  -29.5847    8.1288 H         1 UNK         0.0791 
    156 H156      -45.1897  -30.4883    6.8252 H         1 UNK         0.0791 
    157 H157      -47.3820  -27.2633    7.1977 H         1 UNK         0.3028 
@<TRIPOS>BOND
     1    1    2 1    
     2    1   82 1    
     3    1   83 1    
     4    1   84 1    
     5    2    3 2    
     6    2    4 am   BACKBONE|DICT|INTERRES
     7    4    5 1    
     8    4   85 1    
     9    5    6 1    
    10    5   80 1    
    11    5   86 1    
    12    6    7 1    
    13    6   87 1    
    14    6   88 1    
    15    7    8 1    
    16    8    9 1    
    17    8   89 1    
    18    8   90 1    
    19    9   10 ar   
    20    9   14 ar   
    21   10   11 ar   
    22   10   91 1    
    23   11   12 ar   
    24   11   58 1    
    25   12   13 ar   
    26   12   92 1    
    27   13   14 ar   
    28   13   15 1    
    29   14   93 1    
    30   15   16 1    
    31   15   94 1    
    32   15   95 1    
    33   16   17 1    
    34   17   18 1    
    35   17   96 1    
    36   17   97 1    
    37   18   19 1    
    38   18   22 1    
    39   18   98 1    
    40   19   20 am   BACKBONE|DICT|INTERRES
    41   19   21 2    
    42   20   99 1    
    43   20  100 1    
    44   22   23 am   BACKBONE|DICT|INTERRES
    45   22  101 1    
    46   23   24 2    
    47   23   25 1    
    48   25   26 1    
    49   25   27 1    
    50   25  102 1    
    51   26  103 1    
    52   26  104 1    
    53   26  105 1    
    54   27   28 am   BACKBONE|DICT|INTERRES
    55   27  106 1    
    56   28   29 2    
    57   28   30 1    
    58   30   31 1    
    59   30   32 1    
    60   30  107 1    
    61   31  108 1    
    62   31  109 1    
    63   31  110 1    
    64   32   33 am   BACKBONE|DICT|INTERRES
    65   32  111 1    
    66   33   34 2    
    67   33   35 1    
    68   35   36 1    
    69   35   37 1    
    70   35  112 1    
    71   36  113 1    
    72   36  114 1    
    73   36  115 1    
    74   37   38 am   BACKBONE|DICT|INTERRES
    75   37  116 1    
    76   38   39 2    
    77   38   40 1    
    78   40   41 1    
    79   40   42 1    
    80   40  117 1    
    81   41  118 1    
    82   41  119 1    
    83   41  120 1    
    84   42   43 am   BACKBONE|DICT|INTERRES
    85   42  121 1    
    86   43   44 2    
    87   43   45 1    
    88   45   46 1    
    89   45   47 1    
    90   45  122 1    
    91   46  123 1    
    92   46  124 1    
    93   46  125 1    
    94   47   48 am   BACKBONE|DICT|INTERRES
    95   47  126 1    
    96   48   49 2    
    97   48   50 1    
    98   50   51 1    
    99   50   52 1    
   100   50  127 1    
   101   51  128 1    
   102   51  129 1    
   103   51  130 1    
   104   52   53 am   BACKBONE|DICT|INTERRES
   105   52  131 1    
   106   53   54 2    
   107   53   55 1    
   108   55   56 1    
   109   55   59 1    
   110   55  132 1    
   111   56   57 1    
   112   56  133 1    
   113   56  134 1    
   114   57   58 1    
   115   58  135 1    
   116   58  136 1    
   117   59   60 am   BACKBONE|DICT|INTERRES
   118   59  137 1    
   119   60   61 2    
   120   60   62 1    
   121   62   63 1    
   122   62   64 1    
   123   62  138 1    
   124   63  139 1    
   125   63  140 1    
   126   63  141 1    
   127   64   65 am   BACKBONE|DICT|INTERRES
   128   64  142 1    
   129   65   66 2    
   130   65   67 1    
   131   67   68 1    
   132   67   69 1    
   133   67  143 1    
   134   68  144 1    
   135   68  145 1    
   136   68  146 1    
   137   69   70 am   BACKBONE|DICT|INTERRES
   138   69  147 1    
   139   70   71 2    
   140   70   72 1    
   141   72   73 1    
   142   72   74 1    
   143   72  148 1    
   144   73  149 1    
   145   73  150 1    
   146   73  151 1    
   147   74   75 am   BACKBONE|DICT|INTERRES
   148   74  152 1    
   149   75   76 2    
   150   75   77 1    
   151   77   78 1    
   152   77   79 1    
   153   77  153 1    
   154   78  154 1    
   155   78  155 1    
   156   78  156 1    
   157   79   80 am   BACKBONE|DICT|INTERRES
   158   79  157 1    
   159   80   81 2    
@<TRIPOS>SUBSTRUCTURE
     1 UNK         1 GROUP             0       ****    0 ROOT    
