@<TRIPOS>MOLECULE
3R207
157   159    1
SMALL
USER_CHARGES


@<TRIPOS>ATOM
      1 CA        -48.1445  -28.9361    1.8627 C.3       0 UNK        -0.1975 
      2 C         -47.7178  -29.7652    3.0718 C.2       0 UNK         0.4852 
      3 O         -46.8083  -30.5833    2.9466 O.2       0 UNK        -0.5216 
      4 N         -48.3337  -29.6075    4.2533 N.am      1 UNK        -0.4461 
      5 CA        -49.4037  -28.6572    4.5909 C.3       1 UNK         0.0864 
      6 C6        -49.9964  -28.9414    5.9915 C.3       14 UNK        -0.0898 
      7 S7        -50.7564  -30.5939    6.1205 S.3       14 UNK        -0.2598 
      8 C8        -52.4456  -30.1817    6.6697 C.3       14 UNK         0.0286 
      9 C9        -52.4550  -29.4712    8.0178 C.ar      14 UNK        -0.0844 
     10 C10       -52.8761  -28.1416    8.1157 C.ar      14 UNK        -0.0881 
     11 C11       -52.8749  -27.4831    9.3490 C.ar      14 UNK        -0.0643 
     12 C12       -52.4596  -28.1705   10.4946 C.ar      14 UNK        -0.0930 
     13 C13       -52.0430  -29.5021   10.4110 C.ar      14 UNK        -0.0827 
     14 C14       -52.0404  -30.1442    9.1694 C.ar      14 UNK        -0.1249 
     15 C15       -51.5658  -30.2454   11.6495 C.3       14 UNK         0.0141 
     16 S16       -52.6339  -31.6734   12.0297 S.3       14 UNK        -0.2313 
     17 C17       -53.4368  -31.2038   13.5976 C.3       14 UNK        -0.0915 
     18 CA        -54.9263  -30.8102   13.4155 C.3       13 UNK         0.0968 
     19 C         -55.6966  -30.8878   14.7677 C.2       13 UNK         0.5732 
     20 N         -56.2673  -29.8037   15.2789 N.am      13 UNK        -0.7310 
     21 O         -55.7894  -31.9606   15.3597 O.2       13 UNK        -0.5035 
     22 N         -55.0630  -29.5231   12.7144 N.am      13 UNK        -0.4233 
     23 C         -56.1532  -29.1235   12.0505 C.2       13 UNK         0.4989 
     24 O         -57.1554  -29.8228   11.8918 O.2       13 UNK        -0.4996 
     25 CA        -56.1296  -27.6768   11.5208 C.3       12 UNK         0.0216 
     26 CB        -57.2598  -27.3924   10.5144 C.3       12 UNK        -0.1964 
     27 N         -56.2053  -26.7047   12.6165 N.am      12 UNK        -0.4276 
     28 C         -55.1925  -26.3876   13.4322 C.2       12 UNK         0.5020 
     29 O         -54.0543  -26.8500   13.3136 O.2       12 UNK        -0.5489 
     30 CA        -55.5125  -25.4418   14.5972 C.3       11 UNK         0.0294 
     31 CB        -56.3902  -26.1566   15.6469 C.3       11 UNK        -0.2019 
     32 N         -54.2474  -25.0207   15.1915 N.am      11 UNK        -0.4493 
     33 C         -54.0598  -24.1120   16.1564 C.2       11 UNK         0.4932 
     34 O         -54.9713  -23.4432   16.6464 O.2       11 UNK        -0.5029 
     35 CA        -52.6117  -23.8964   16.6467 C.3       10 UNK         0.0280 
     36 CB        -52.5319  -23.5225   18.1421 C.3       10 UNK        -0.1976 
     37 N         -51.7122  -25.0111   16.3206 N.am      10 UNK        -0.4242 
     38 C         -51.7404  -26.2640   16.7989 C.2       10 UNK         0.5072 
     39 O         -52.5075  -26.6514   17.6810 O.2       10 UNK        -0.5224 
     40 CA        -50.7675  -27.2741   16.1652 C.3       9 UNK         0.0343 
     41 CB        -51.4657  -28.0611   15.0480 C.3       9 UNK        -0.2003 
     42 N         -49.5471  -26.6649   15.6301 N.am      9 UNK        -0.4272 
     43 C         -48.5334  -26.2310   16.3923 C.2       9 UNK         0.4988 
     44 O         -48.5152  -26.3116   17.6213 O.2       9 UNK        -0.5108 
     45 CA        -47.3347  -25.6025   15.6637 C.3       8 UNK         0.0248 
     46 CB        -46.4509  -26.6912   15.0334 C.3       8 UNK        -0.2001 
     47 N         -47.7333  -24.6298   14.6435 N.am      8 UNK        -0.4140 
     48 C         -48.3335  -23.4590   14.9067 C.2       8 UNK         0.5028 
     49 O         -48.5820  -23.0541   16.0427 O.2       8 UNK        -0.5428 
     50 CA        -48.7452  -22.5959   13.7021 C.3       7 UNK         0.0264 
     51 CB        -47.5468  -21.7933   13.1720 C.3       7 UNK        -0.1988 
     52 N         -49.3368  -23.3747   12.6128 N.am      7 UNK        -0.4454 
     53 C         -50.4816  -24.0673   12.7030 C.2       7 UNK         0.5027 
     54 O         -51.1851  -24.0969   13.7102 O.2       7 UNK        -0.5083 
     55 CA        -50.8931  -24.9003   11.4777 C.3       6 UNK         0.0844 
     56 C56       -51.6136  -24.0193   10.4278 C.3       14 UNK        -0.0967 
     57 S57       -52.0235  -24.8971    8.8814 S.3       14 UNK        -0.2604 
     58 C58       -53.3342  -26.0342    9.4309 C.3       14 UNK         0.0134 
     59 N         -49.7552  -25.6347   10.9272 N.am      6 UNK        -0.4116 
     60 C         -49.0851  -26.6063   11.5600 C.2       5 UNK         0.5034 
     61 O         -49.3588  -27.0211   12.6869 O.2       5 UNK        -0.5045 
     62 CA        -47.8631  -27.1658   10.8189 C.3       5 UNK         0.0224 
     63 CB        -48.3005  -28.1750    9.7439 C.3       5 UNK        -0.1978 
     64 N         -47.0650  -26.0955   10.2099 N.am      5 UNK        -0.4737 
     65 C         -46.3763  -25.1847   10.9172 C.2       4 UNK         0.5027 
     66 O         -46.3066  -25.1895   12.1452 O.2       4 UNK        -0.5211 
     67 CA        -45.6862  -24.0494   10.1393 C.3       4 UNK         0.0297 
     68 CB        -44.2723  -24.4744    9.7137 C.3       4 UNK        -0.1993 
     69 N         -46.4374  -23.6096    8.9627 N.am      4 UNK        -0.4486 
     70 C         -47.6861  -23.1222    8.9794 C.2       3 UNK         0.4961 
     71 O         -48.3158  -22.8969   10.0121 O.2       3 UNK        -0.5105 
     72 CA        -48.3710  -22.8877    7.6199 C.3       3 UNK         0.0299 
     73 CB        -48.3460  -21.3937    7.2616 C.3       3 UNK        -0.1972 
     74 N         -47.8141  -23.6660    6.5040 N.am      3 UNK        -0.4305 
     75 C         -47.7422  -25.0036    6.4515 C.2       2 UNK         0.5006 
     76 O         -48.0688  -25.7472    7.3807 O.2       2 UNK        -0.5106 
     77 CA        -47.1394  -25.6063    5.1715 C.3       2 UNK         0.0296 
     78 CB        -45.6094  -25.6986    5.2939 C.3       2 UNK        -0.2002 
     79 N         -47.6789  -26.9435    4.9285 N.am      2 UNK        -0.4032 
     80 C         -48.9381  -27.1889    4.5403 C.2       1 UNK         0.5000 
     81 O         -49.7225  -26.3176    4.1610 O.2       1 UNK        -0.5238 
     82 H82       -47.7809  -29.3948    0.9434 H         1 UNK         0.0889 
     83 H83       -47.7266  -27.9315    1.9197 H         1 UNK         0.0889 
     84 H84       -49.2280  -28.8638    1.7808 H         1 UNK         0.0889 
     85 H85       -48.0519  -30.2080    5.0151 H         1 UNK         0.3028 
     86 H86       -50.2068  -28.7721    3.8607 H         1 UNK         0.0864 
     87 H87       -50.7428  -28.1852    6.2407 H         1 UNK         0.0720 
     88 H88       -49.2271  -28.8641    6.7623 H         1 UNK         0.0720 
     89 H89       -53.0265  -31.1018    6.7477 H         1 UNK         0.0814 
     90 H90       -52.9329  -29.5760    5.9040 H         1 UNK         0.0814 
     91 H91       -53.1953  -27.6096    7.2298 H         1 UNK         0.1469 
     92 H92       -52.4582  -27.6715   11.4523 H         1 UNK         0.1381 
     93 H93       -51.7100  -31.1716    9.0982 H         1 UNK         0.1206 
     94 H94       -50.5521  -30.6068   11.4722 H         1 UNK         0.0813 
     95 H95       -51.4981  -29.5707   12.5022 H         1 UNK         0.0813 
     96 H96       -52.8820  -30.4076   14.0919 H         1 UNK         0.0638 
     97 H97       -53.3454  -32.0740   14.2503 H         1 UNK         0.0638 
     98 H98       -55.3892  -31.5733   12.7867 H         1 UNK         0.0568 
     99 H99       -56.7672  -29.8766   16.1507 H         1 UNK         0.3450 
    100 H100      -56.2122  -28.9247   14.7949 H         1 UNK         0.3450 
    101 H101      -54.3225  -28.8455   12.8567 H         1 UNK         0.2987 
    102 H102      -55.1852  -27.5447   10.9951 H         1 UNK         0.0766 
    103 H103      -57.1737  -26.3895   10.0957 H         1 UNK         0.0798 
    104 H104      -58.2455  -27.4822   10.9728 H         1 UNK         0.0798 
    105 H105      -57.2225  -28.0937    9.6797 H         1 UNK         0.0798 
    106 H106      -57.1154  -26.3037   12.7952 H         1 UNK         0.3198 
    107 H107      -56.0304  -24.5642   14.2054 H         1 UNK         0.0843 
    108 H108      -55.8583  -26.9867   16.1134 H         1 UNK         0.0831 
    109 H109      -57.3041  -26.5552   15.2053 H         1 UNK         0.0831 
    110 H110      -56.6988  -25.4769   16.4410 H         1 UNK         0.0831 
    111 H111      -53.4445  -25.4990   14.7973 H         1 UNK         0.3133 
    112 H112      -52.2330  -23.0440   16.0812 H         1 UNK         0.0566 
    113 H113      -51.4988  -23.3805   18.4599 H         1 UNK         0.0814 
    114 H114      -53.0616  -22.5900   18.3400 H         1 UNK         0.0814 
    115 H115      -52.9782  -24.2877   18.7774 H         1 UNK         0.0814 
    116 H116      -51.0979  -24.8224   15.5338 H         1 UNK         0.3091 
    117 H117      -50.4852  -27.9828   16.9468 H         1 UNK         0.0702 
    118 H118      -50.8544  -28.9035   14.7254 H         1 UNK         0.0785 
    119 H119      -51.6586  -27.4350   14.1766 H         1 UNK         0.0785 
    120 H120      -52.4238  -28.4587   15.3856 H         1 UNK         0.0785 
    121 H121      -49.4658  -26.6115   14.6179 H         1 UNK         0.2998 
    122 H122      -46.7359  -25.0740   16.4085 H         1 UNK         0.0697 
    123 H123      -46.9712  -27.2246   14.2369 H         1 UNK         0.0825 
    124 H124      -46.1464  -27.4285   15.7774 H         1 UNK         0.0825 
    125 H125      -45.5415  -26.2651   14.6093 H         1 UNK         0.0825 
    126 H126      -47.4980  -24.8576   13.6812 H         1 UNK         0.3029 
    127 H127      -49.5024  -21.8886   14.0475 H         1 UNK         0.0897 
    128 H128      -47.8386  -21.1395   12.3497 H         1 UNK         0.0792 
    129 H129      -47.1232  -21.1626   13.9547 H         1 UNK         0.0792 
    130 H130      -46.7513  -22.4468   12.8136 H         1 UNK         0.0792 
    131 H131      -48.8530  -23.3510   11.7164 H         1 UNK         0.3086 
    132 H132      -51.6080  -25.6407   11.8375 H         1 UNK         0.0583 
    133 H133      -52.5318  -23.6029   10.8470 H         1 UNK         0.1020 
    134 H134      -50.9955  -23.1612   10.1568 H         1 UNK         0.1020 
    135 H135      -53.6520  -25.7872   10.4448 H         1 UNK         0.0694 
    136 H136      -54.2115  -25.8934    8.7978 H         1 UNK         0.0694 
    137 H137      -49.4500  -25.3591   10.0050 H         1 UNK         0.2989 
    138 H138      -47.2382  -27.6857   11.5485 H         1 UNK         0.1055 
    139 H139      -48.8429  -29.0089   10.1913 H         1 UNK         0.0806 
    140 H140      -47.4435  -28.5909    9.2142 H         1 UNK         0.0806 
    141 H141      -48.9636  -27.7213    9.0060 H         1 UNK         0.0806 
    142 H142      -47.1359  -25.9899    9.2025 H         1 UNK         0.3061 
    143 H143      -45.5983  -23.1938   10.8113 H         1 UNK         0.0734 
    144 H144      -43.7348  -23.6525    9.2404 H         1 UNK         0.0832 
    145 H145      -43.6843  -24.7880   10.5776 H         1 UNK         0.0832 
    146 H146      -44.2940  -25.3110    9.0139 H         1 UNK         0.0832 
    147 H147      -46.0022  -23.7554    8.0642 H         1 UNK         0.3156 
    148 H148      -49.4134  -23.1922    7.7352 H         1 UNK         0.0589 
    149 H149      -47.3292  -21.0339    7.0993 H         1 UNK         0.0808 
    150 H150      -48.7799  -20.7930    8.0626 H         1 UNK         0.0808 
    151 H151      -48.9242  -21.1906    6.3600 H         1 UNK         0.0808 
    152 H152      -47.5009  -23.1360    5.7028 H         1 UNK         0.3098 
    153 H153      -47.3913  -24.9678    4.3219 H         1 UNK         0.0720 
    154 H154      -45.1656  -24.7120    5.4338 H         1 UNK         0.0791 
    155 H155      -45.1652  -26.1254    4.3944 H         1 UNK         0.0791 
    156 H156      -45.3074  -26.3154    6.1418 H         1 UNK         0.0791 
    157 H157      -47.1185  -27.7216    5.2437 H         1 UNK         0.3028 
@<TRIPOS>BOND
     1    1    2 1    
     2    1   82 1    
     3    1   83 1    
     4    1   84 1    
     5    2    3 2    
     6    2    4 am   BACKBONE|DICT|INTERRES
     7    4    5 1    
     8    4   85 1    
     9    5    6 1    
    10    5   80 1    
    11    5   86 1    
    12    6    7 1    
    13    6   87 1    
    14    6   88 1    
    15    7    8 1    
    16    8    9 1    
    17    8   89 1    
    18    8   90 1    
    19    9   10 ar   
    20    9   14 ar   
    21   10   11 ar   
    22   10   91 1    
    23   11   12 ar   
    24   11   58 1    
    25   12   13 ar   
    26   12   92 1    
    27   13   14 ar   
    28   13   15 1    
    29   14   93 1    
    30   15   16 1    
    31   15   94 1    
    32   15   95 1    
    33   16   17 1    
    34   17   18 1    
    35   17   96 1    
    36   17   97 1    
    37   18   19 1    
    38   18   22 1    
    39   18   98 1    
    40   19   20 am   BACKBONE|DICT|INTERRES
    41   19   21 2    
    42   20   99 1    
    43   20  100 1    
    44   22   23 am   BACKBONE|DICT|INTERRES
    45   22  101 1    
    46   23   24 2    
    47   23   25 1    
    48   25   26 1    
    49   25   27 1    
    50   25  102 1    
    51   26  103 1    
    52   26  104 1    
    53   26  105 1    
    54   27   28 am   BACKBONE|DICT|INTERRES
    55   27  106 1    
    56   28   29 2    
    57   28   30 1    
    58   30   31 1    
    59   30   32 1    
    60   30  107 1    
    61   31  108 1    
    62   31  109 1    
    63   31  110 1    
    64   32   33 am   BACKBONE|DICT|INTERRES
    65   32  111 1    
    66   33   34 2    
    67   33   35 1    
    68   35   36 1    
    69   35   37 1    
    70   35  112 1    
    71   36  113 1    
    72   36  114 1    
    73   36  115 1    
    74   37   38 am   BACKBONE|DICT|INTERRES
    75   37  116 1    
    76   38   39 2    
    77   38   40 1    
    78   40   41 1    
    79   40   42 1    
    80   40  117 1    
    81   41  118 1    
    82   41  119 1    
    83   41  120 1    
    84   42   43 am   BACKBONE|DICT|INTERRES
    85   42  121 1    
    86   43   44 2    
    87   43   45 1    
    88   45   46 1    
    89   45   47 1    
    90   45  122 1    
    91   46  123 1    
    92   46  124 1    
    93   46  125 1    
    94   47   48 am   BACKBONE|DICT|INTERRES
    95   47  126 1    
    96   48   49 2    
    97   48   50 1    
    98   50   51 1    
    99   50   52 1    
   100   50  127 1    
   101   51  128 1    
   102   51  129 1    
   103   51  130 1    
   104   52   53 am   BACKBONE|DICT|INTERRES
   105   52  131 1    
   106   53   54 2    
   107   53   55 1    
   108   55   56 1    
   109   55   59 1    
   110   55  132 1    
   111   56   57 1    
   112   56  133 1    
   113   56  134 1    
   114   57   58 1    
   115   58  135 1    
   116   58  136 1    
   117   59   60 am   BACKBONE|DICT|INTERRES
   118   59  137 1    
   119   60   61 2    
   120   60   62 1    
   121   62   63 1    
   122   62   64 1    
   123   62  138 1    
   124   63  139 1    
   125   63  140 1    
   126   63  141 1    
   127   64   65 am   BACKBONE|DICT|INTERRES
   128   64  142 1    
   129   65   66 2    
   130   65   67 1    
   131   67   68 1    
   132   67   69 1    
   133   67  143 1    
   134   68  144 1    
   135   68  145 1    
   136   68  146 1    
   137   69   70 am   BACKBONE|DICT|INTERRES
   138   69  147 1    
   139   70   71 2    
   140   70   72 1    
   141   72   73 1    
   142   72   74 1    
   143   72  148 1    
   144   73  149 1    
   145   73  150 1    
   146   73  151 1    
   147   74   75 am   BACKBONE|DICT|INTERRES
   148   74  152 1    
   149   75   76 2    
   150   75   77 1    
   151   77   78 1    
   152   77   79 1    
   153   77  153 1    
   154   78  154 1    
   155   78  155 1    
   156   78  156 1    
   157   79   80 am   BACKBONE|DICT|INTERRES
   158   79  157 1    
   159   80   81 2    
@<TRIPOS>SUBSTRUCTURE
     1 UNK         1 GROUP             0       ****    0 ROOT    
