@<TRIPOS>MOLECULE
3R207
157   159    1
SMALL
USER_CHARGES


@<TRIPOS>ATOM
      1 CA        -47.3418  -29.6604    1.8812 C.3       0 UNK        -0.1975 
      2 C         -47.5639  -28.8670    3.1609 C.2       0 UNK         0.4852 
      3 O         -47.6604  -27.6399    3.1085 O.2       0 UNK        -0.5216 
      4 N         -47.6536  -29.5599    4.3036 N.am      1 UNK        -0.4461 
      5 CA        -47.7925  -28.9650    5.6373 C.3       1 UNK         0.0864 
      6 C6        -48.5618  -29.9111    6.6003 C.3       14 UNK        -0.0898 
      7 S7        -49.6278  -29.0003    7.7739 S.3       14 UNK        -0.2598 
      8 C8        -51.2572  -29.2860    7.0166 C.3       14 UNK         0.0286 
      9 C9        -52.3963  -28.7878    7.8932 C.ar      14 UNK        -0.0844 
     10 C10       -53.0154  -27.5634    7.6255 C.ar      14 UNK        -0.0881 
     11 C11       -54.1151  -27.1451    8.3817 C.ar      14 UNK        -0.0643 
     12 C12       -54.5885  -27.9602    9.4135 C.ar      14 UNK        -0.0930 
     13 C13       -53.9764  -29.1886    9.6993 C.ar      14 UNK        -0.0827 
     14 C14       -52.8764  -29.5883    8.9342 C.ar      14 UNK        -0.1249 
     15 C15       -54.5172  -30.1473   10.7623 C.3       14 UNK         0.0141 
     16 S16       -55.5223  -29.3599   12.0649 S.3       14 UNK        -0.2313 
     17 C17       -56.2711  -30.8135   12.8834 C.3       14 UNK        -0.0915 
     18 CA        -55.9889  -30.8979   14.4086 C.3       13 UNK         0.0968 
     19 C         -54.6233  -31.5669   14.7411 C.2       13 UNK         0.5732 
     20 N         -53.7039  -30.9129   15.4415 N.am      13 UNK        -0.7310 
     21 O         -54.4038  -32.7193   14.3753 O.2       13 UNK        -0.5035 
     22 N         -56.2181  -29.6018   15.0566 N.am      13 UNK        -0.4233 
     23 C         -56.5638  -29.4054   16.3319 C.2       13 UNK         0.4989 
     24 O         -56.7997  -30.3186   17.1245 O.2       13 UNK        -0.4996 
     25 CA        -56.6613  -27.9430   16.7992 C.3       12 UNK         0.0216 
     26 CB        -56.0675  -27.7626   18.2084 C.3       12 UNK        -0.1964 
     27 N         -55.9608  -27.0383   15.8828 N.am      12 UNK        -0.4276 
     28 C         -56.5098  -26.0284   15.1919 C.2       12 UNK         0.5020 
     29 O         -57.7206  -25.8003   15.1694 O.2       12 UNK        -0.5489 
     30 CA        -55.5435  -25.1141   14.3980 C.3       11 UNK         0.0294 
     31 CB        -56.0724  -23.6727   14.2499 C.3       11 UNK        -0.2019 
     32 N         -54.1735  -25.1094   14.9300 N.am      11 UNK        -0.4493 
     33 C         -53.7923  -24.8317   16.1885 C.2       11 UNK         0.4932 
     34 O         -54.5328  -24.3194   17.0288 O.2       11 UNK        -0.5029 
     35 CA        -52.3653  -25.2472   16.6009 C.3       10 UNK         0.0280 
     36 CB        -52.3157  -25.7752   18.0498 C.3       10 UNK        -0.1976 
     37 N         -51.7218  -26.2095   15.6953 N.am      10 UNK        -0.4242 
     38 C         -52.1355  -27.4383   15.3351 C.2       10 UNK         0.5072 
     39 O         -53.1842  -27.9510   15.7372 O.2       10 UNK        -0.5224 
     40 CA        -51.2674  -28.2042   14.3126 C.3       9 UNK         0.0343 
     41 CB        -52.1060  -28.6747   13.1122 C.3       9 UNK        -0.2003 
     42 N         -50.1688  -27.3867   13.7979 N.am      9 UNK        -0.4272 
     43 C         -48.9380  -27.3061   14.3205 C.2       9 UNK         0.4988 
     44 O         -48.5364  -28.0055   15.2500 O.2       9 UNK        -0.5108 
     45 CA        -48.0166  -26.2224   13.7302 C.3       8 UNK         0.0248 
     46 CB        -47.1367  -26.8158   12.6221 C.3       8 UNK        -0.2001 
     47 N         -48.7694  -25.0698   13.2141 N.am      8 UNK        -0.4140 
     48 C         -49.4250  -24.2048   14.0068 C.2       8 UNK         0.5028 
     49 O         -49.3702  -24.2466   15.2352 O.2       8 UNK        -0.5428 
     50 CA        -50.3542  -23.1675   13.3528 C.3       7 UNK         0.0264 
     51 CB        -49.6784  -21.7903   13.2840 C.3       7 UNK        -0.1988 
     52 N         -50.8225  -23.5626   12.0233 N.am      7 UNK        -0.4454 
     53 C         -51.6968  -24.5563   11.7942 C.2       7 UNK         0.5027 
     54 O         -52.2231  -25.2123   12.6948 O.2       7 UNK        -0.5083 
     55 CA        -52.0265  -24.8949   10.3238 C.3       6 UNK         0.0844 
     56 C56       -53.3970  -24.2819    9.9322 C.3       14 UNK        -0.0967 
     57 S57       -53.7621  -24.3852    8.1433 S.3       14 UNK        -0.2604 
     58 C58       -54.8399  -25.8473    8.0465 C.3       14 UNK         0.0134 
     59 N         -50.9668  -24.5187    9.3819 N.am      6 UNK        -0.4116 
     60 C         -49.7002  -24.9504    9.3857 C.2       5 UNK         0.5034 
     61 O         -49.2286  -25.6840   10.2566 O.2       5 UNK        -0.5045 
     62 CA        -48.7907  -24.4568    8.2433 C.3       5 UNK         0.0224 
     63 CB        -49.4684  -23.4761    7.2589 C.3       5 UNK        -0.1978 
     64 N         -47.5407  -23.8810    8.7500 N.am      5 UNK        -0.4737 
     65 C         -47.4019  -22.8927    9.6482 C.2       4 UNK         0.5027 
     66 O         -48.3544  -22.2894   10.1435 O.2       4 UNK        -0.5211 
     67 CA        -45.9718  -22.5240   10.0954 C.3       4 UNK         0.0297 
     68 CB        -45.8160  -22.7077   11.6152 C.3       4 UNK        -0.1993 
     69 N         -44.9406  -23.3182    9.4205 N.am      4 UNK        -0.4486 
     70 C         -44.3476  -22.9925    8.2632 C.2       3 UNK         0.4961 
     71 O         -44.5337  -21.9304    7.6695 O.2       3 UNK        -0.5105 
     72 CA        -43.4118  -24.0523    7.6455 C.3       3 UNK         0.0299 
     73 CB        -41.9646  -23.8308    8.1138 C.3       3 UNK        -0.1972 
     74 N         -43.8158  -25.4353    7.9380 N.am      3 UNK        -0.4305 
     75 C         -44.9795  -25.9802    7.5565 C.2       2 UNK         0.5006 
     76 O         -45.8215  -25.3812    6.8843 O.2       2 UNK        -0.5106 
     77 CA        -45.2903  -27.3853    8.0961 C.3       2 UNK         0.0296 
     78 CB        -45.6113  -27.3144    9.5974 C.3       2 UNK        -0.2002 
     79 N         -46.4461  -27.9659    7.4137 N.am      2 UNK        -0.4032 
     80 C         -46.4193  -28.5404    6.2066 C.2       1 UNK         0.5000 
     81 O         -45.3788  -28.7503    5.5742 O.2       1 UNK        -0.5238 
     82 H82       -47.2937  -30.7329    2.0688 H         1 UNK         0.0889 
     83 H83       -46.4076  -29.3566    1.4097 H         1 UNK         0.0889 
     84 H84       -48.1543  -29.4754    1.1791 H         1 UNK         0.0889 
     85 H85       -47.5235  -30.5613    4.2836 H         1 UNK         0.3028 
     86 H86       -48.3751  -28.0477    5.5221 H         1 UNK         0.0864 
     87 H87       -49.1921  -30.5977    6.0328 H         1 UNK         0.0720 
     88 H88       -47.8835  -30.5558    7.1634 H         1 UNK         0.0720 
     89 H89       -51.2874  -28.8030    6.0385 H         1 UNK         0.0814 
     90 H90       -51.3921  -30.3534    6.8343 H         1 UNK         0.0814 
     91 H91       -52.6596  -26.9442    6.8133 H         1 UNK         0.1469 
     92 H92       -55.4582  -27.6428    9.9703 H         1 UNK         0.1381 
     93 H93       -52.4073  -30.5435    9.1284 H         1 UNK         0.1206 
     94 H94       -53.6917  -30.6772   11.2403 H         1 UNK         0.0813 
     95 H95       -55.1226  -30.9002   10.2560 H         1 UNK         0.0813 
     96 H96       -57.3484  -30.7384   12.7285 H         1 UNK         0.0638 
     97 H97       -55.9732  -31.7325   12.3755 H         1 UNK         0.0638 
     98 H98       -56.7300  -31.5879   14.8164 H         1 UNK         0.0568 
     99 H99       -52.8387  -31.3783   15.6605 H         1 UNK         0.3450 
    100 H100      -53.8362  -29.9452   15.7063 H         1 UNK         0.3450 
    101 H101      -56.0382  -28.7958   14.4767 H         1 UNK         0.2987 
    102 H102      -57.7238  -27.6957   16.8396 H         1 UNK         0.0766 
    103 H103      -56.6124  -28.3535   18.9457 H         1 UNK         0.0798 
    104 H104      -56.1168  -26.7214   18.5284 H         1 UNK         0.0798 
    105 H105      -55.0228  -28.0742   18.2452 H         1 UNK         0.0798 
    106 H106      -54.9539  -27.1789   15.8195 H         1 UNK         0.3198 
    107 H107      -55.4760  -25.5464   13.3983 H         1 UNK         0.0843 
    108 H108      -56.2230  -23.1962   15.2190 H         1 UNK         0.0831 
    109 H109      -57.0301  -23.6579   13.7283 H         1 UNK         0.0831 
    110 H110      -55.3826  -23.0549   13.6749 H         1 UNK         0.0831 
    111 H111      -53.4600  -25.4459   14.2890 H         1 UNK         0.3133 
    112 H112      -51.7647  -24.3380   16.5576 H         1 UNK         0.0566 
    113 H113      -52.9401  -26.6597   18.1782 H         1 UNK         0.0814 
    114 H114      -52.6671  -25.0233   18.7573 H         1 UNK         0.0814 
    115 H115      -51.2986  -26.0381   18.3405 H         1 UNK         0.0814 
    116 H116      -50.8497  -25.8820   15.3000 H         1 UNK         0.3091 
    117 H117      -50.8662  -29.0846   14.8183 H         1 UNK         0.0702 
    118 H118      -51.4950  -29.2036   12.3807 H         1 UNK         0.0785 
    119 H119      -52.5938  -27.8446   12.6005 H         1 UNK         0.0785 
    120 H120      -52.8890  -29.3610   13.4266 H         1 UNK         0.0785 
    121 H121      -50.4093  -26.7597   13.0421 H         1 UNK         0.2998 
    122 H122      -47.3615  -25.8702   14.5301 H         1 UNK         0.0697 
    123 H123      -46.4638  -26.0679   12.2055 H         1 UNK         0.0825 
    124 H124      -47.7360  -27.2270   11.8092 H         1 UNK         0.0825 
    125 H125      -46.5181  -27.6267   13.0090 H         1 UNK         0.0825 
    126 H126      -48.8832  -25.0113   12.2071 H         1 UNK         0.3029 
    127 H127      -51.2315  -23.0743   13.9973 H         1 UNK         0.0897 
    128 H128      -49.3853  -21.4509   14.2785 H         1 UNK         0.0792 
    129 H129      -50.3494  -21.0375   12.8700 H         1 UNK         0.0792 
    130 H130      -48.7786  -21.8109   12.6715 H         1 UNK         0.0792 
    131 H131      -50.4024  -23.0876   11.2338 H         1 UNK         0.3086 
    132 H132      -52.1159  -25.9819   10.2662 H         1 UNK         0.0583 
    133 H133      -54.1999  -24.7605   10.4967 H         1 UNK         0.1020 
    134 H134      -53.4336  -23.2242   10.2018 H         1 UNK         0.1020 
    135 H135      -55.7022  -25.6962    8.6978 H         1 UNK         0.0694 
    136 H136      -55.2343  -25.9215    7.0323 H         1 UNK         0.0694 
    137 H137      -51.2620  -23.9172    8.6267 H         1 UNK         0.2989 
    138 H138      -48.5135  -25.3496    7.6805 H         1 UNK         0.1055 
    139 H139      -49.7867  -22.5546    7.7484 H         1 UNK         0.0806 
    140 H140      -50.3412  -23.9255    6.7829 H         1 UNK         0.0806 
    141 H141      -48.7832  -23.1989    6.4575 H         1 UNK         0.0806 
    142 H142      -46.7016  -24.2909    8.3563 H         1 UNK         0.3061 
    143 H143      -45.8234  -21.4667    9.8656 H         1 UNK         0.0734 
    144 H144      -46.0405  -23.7276   11.9271 H         1 UNK         0.0832 
    145 H145      -44.8041  -22.4697   11.9434 H         1 UNK         0.0832 
    146 H146      -46.4897  -22.0457   12.1592 H         1 UNK         0.0832 
    147 H147      -44.7087  -24.2067    9.8395 H         1 UNK         0.3156 
    148 H148      -43.4421  -23.9225    6.5616 H         1 UNK         0.0589 
    149 H149      -41.2764  -24.5142    7.6159 H         1 UNK         0.0808 
    150 H150      -41.8602  -23.9721    9.1903 H         1 UNK         0.0808 
    151 H151      -41.6320  -22.8171    7.8852 H         1 UNK         0.0808 
    152 H152      -43.1747  -25.9887    8.4894 H         1 UNK         0.3098 
    153 H153      -44.4187  -28.0252    7.9423 H         1 UNK         0.0720 
    154 H154      -44.7610  -26.9477   10.1732 H         1 UNK         0.0791 
    155 H155      -45.8658  -28.2971    9.9956 H         1 UNK         0.0791 
    156 H156      -46.4532  -26.6480    9.7905 H         1 UNK         0.0791 
    157 H157      -47.3438  -27.8451    7.8620 H         1 UNK         0.3028 
@<TRIPOS>BOND
     1    1    2 1    
     2    1   82 1    
     3    1   83 1    
     4    1   84 1    
     5    2    3 2    
     6    2    4 am   BACKBONE|DICT|INTERRES
     7    4    5 1    
     8    4   85 1    
     9    5    6 1    
    10    5   80 1    
    11    5   86 1    
    12    6    7 1    
    13    6   87 1    
    14    6   88 1    
    15    7    8 1    
    16    8    9 1    
    17    8   89 1    
    18    8   90 1    
    19    9   10 ar   
    20    9   14 ar   
    21   10   11 ar   
    22   10   91 1    
    23   11   12 ar   
    24   11   58 1    
    25   12   13 ar   
    26   12   92 1    
    27   13   14 ar   
    28   13   15 1    
    29   14   93 1    
    30   15   16 1    
    31   15   94 1    
    32   15   95 1    
    33   16   17 1    
    34   17   18 1    
    35   17   96 1    
    36   17   97 1    
    37   18   19 1    
    38   18   22 1    
    39   18   98 1    
    40   19   20 am   BACKBONE|DICT|INTERRES
    41   19   21 2    
    42   20   99 1    
    43   20  100 1    
    44   22   23 am   BACKBONE|DICT|INTERRES
    45   22  101 1    
    46   23   24 2    
    47   23   25 1    
    48   25   26 1    
    49   25   27 1    
    50   25  102 1    
    51   26  103 1    
    52   26  104 1    
    53   26  105 1    
    54   27   28 am   BACKBONE|DICT|INTERRES
    55   27  106 1    
    56   28   29 2    
    57   28   30 1    
    58   30   31 1    
    59   30   32 1    
    60   30  107 1    
    61   31  108 1    
    62   31  109 1    
    63   31  110 1    
    64   32   33 am   BACKBONE|DICT|INTERRES
    65   32  111 1    
    66   33   34 2    
    67   33   35 1    
    68   35   36 1    
    69   35   37 1    
    70   35  112 1    
    71   36  113 1    
    72   36  114 1    
    73   36  115 1    
    74   37   38 am   BACKBONE|DICT|INTERRES
    75   37  116 1    
    76   38   39 2    
    77   38   40 1    
    78   40   41 1    
    79   40   42 1    
    80   40  117 1    
    81   41  118 1    
    82   41  119 1    
    83   41  120 1    
    84   42   43 am   BACKBONE|DICT|INTERRES
    85   42  121 1    
    86   43   44 2    
    87   43   45 1    
    88   45   46 1    
    89   45   47 1    
    90   45  122 1    
    91   46  123 1    
    92   46  124 1    
    93   46  125 1    
    94   47   48 am   BACKBONE|DICT|INTERRES
    95   47  126 1    
    96   48   49 2    
    97   48   50 1    
    98   50   51 1    
    99   50   52 1    
   100   50  127 1    
   101   51  128 1    
   102   51  129 1    
   103   51  130 1    
   104   52   53 am   BACKBONE|DICT|INTERRES
   105   52  131 1    
   106   53   54 2    
   107   53   55 1    
   108   55   56 1    
   109   55   59 1    
   110   55  132 1    
   111   56   57 1    
   112   56  133 1    
   113   56  134 1    
   114   57   58 1    
   115   58  135 1    
   116   58  136 1    
   117   59   60 am   BACKBONE|DICT|INTERRES
   118   59  137 1    
   119   60   61 2    
   120   60   62 1    
   121   62   63 1    
   122   62   64 1    
   123   62  138 1    
   124   63  139 1    
   125   63  140 1    
   126   63  141 1    
   127   64   65 am   BACKBONE|DICT|INTERRES
   128   64  142 1    
   129   65   66 2    
   130   65   67 1    
   131   67   68 1    
   132   67   69 1    
   133   67  143 1    
   134   68  144 1    
   135   68  145 1    
   136   68  146 1    
   137   69   70 am   BACKBONE|DICT|INTERRES
   138   69  147 1    
   139   70   71 2    
   140   70   72 1    
   141   72   73 1    
   142   72   74 1    
   143   72  148 1    
   144   73  149 1    
   145   73  150 1    
   146   73  151 1    
   147   74   75 am   BACKBONE|DICT|INTERRES
   148   74  152 1    
   149   75   76 2    
   150   75   77 1    
   151   77   78 1    
   152   77   79 1    
   153   77  153 1    
   154   78  154 1    
   155   78  155 1    
   156   78  156 1    
   157   79   80 am   BACKBONE|DICT|INTERRES
   158   79  157 1    
   159   80   81 2    
@<TRIPOS>SUBSTRUCTURE
     1 UNK         1 GROUP             0       ****    0 ROOT    
