@<TRIPOS>MOLECULE
3R207
157   159    1
SMALL
USER_CHARGES


@<TRIPOS>ATOM
      1 CA        -47.2069  -32.6552    4.7254 C.3       0 UNK        -0.1975 
      2 C         -47.3660  -31.2002    4.3089 C.2       0 UNK         0.4852 
      3 O         -46.6762  -30.7467    3.3940 O.2       0 UNK        -0.5216 
      4 N         -48.2761  -30.4707    4.9658 N.am      1 UNK        -0.4461 
      5 CA        -48.5231  -29.0434    4.7404 C.3       1 UNK         0.0864 
      6 C6        -49.8549  -28.5857    5.3796 C.3       14 UNK        -0.0898 
      7 S7        -51.3171  -29.2764    4.5377 S.3       14 UNK        -0.2598 
      8 C8        -52.2722  -29.9666    5.9342 C.3       14 UNK         0.0286 
      9 C9        -52.5098  -28.9853    7.0825 C.ar      14 UNK        -0.0844 
     10 C10       -52.8165  -27.6392    6.8456 C.ar      14 UNK        -0.0881 
     11 C11       -52.9922  -26.7488    7.9088 C.ar      14 UNK        -0.0643 
     12 C12       -52.9150  -27.2302    9.2184 C.ar      14 UNK        -0.0930 
     13 C13       -52.6083  -28.5686    9.4786 C.ar      14 UNK        -0.0827 
     14 C14       -52.4028  -29.4381    8.4014 C.ar      14 UNK        -0.1249 
     15 C15       -52.4132  -29.0176   10.9269 C.3       14 UNK         0.0141 
     16 S16       -52.9084  -30.7365   11.2805 S.3       14 UNK        -0.2313 
     17 C17       -54.7309  -30.6262   11.3174 C.3       14 UNK        -0.0915 
     18 CA        -55.3186  -29.8531   12.5338 C.3       13 UNK         0.0968 
     19 C         -56.8640  -30.0229   12.6044 C.2       13 UNK         0.5732 
     20 N         -57.4219  -30.6112   13.6553 N.am      13 UNK        -0.7310 
     21 O         -57.5692  -29.6100   11.6873 O.2       13 UNK        -0.5035 
     22 N         -54.5890  -30.1328   13.7836 N.am      13 UNK        -0.4233 
     23 C         -54.6015  -29.3389   14.8600 C.2       13 UNK         0.4989 
     24 O         -55.3609  -28.3775   14.9917 O.2       13 UNK        -0.4996 
     25 CA        -53.5584  -29.6354   15.9477 C.3       12 UNK         0.0216 
     26 CB        -52.1308  -29.6898   15.3567 C.3       12 UNK        -0.1964 
     27 N         -53.6440  -28.5942   16.9733 N.am      12 UNK        -0.4276 
     28 C         -53.1157  -28.6491   18.2018 C.2       12 UNK         0.5020 
     29 O         -52.4968  -29.6256   18.6294 O.2       12 UNK        -0.5489 
     30 CA        -53.3060  -27.4128   19.1004 C.3       11 UNK         0.0294 
     31 CB        -52.3138  -27.3652   20.2797 C.3       11 UNK        -0.2019 
     32 N         -53.2043  -26.1770   18.3218 N.am      11 UNK        -0.4493 
     33 C         -53.9035  -25.0568   18.5612 C.2       11 UNK         0.4932 
     34 O         -54.6938  -24.9353   19.4977 O.2       11 UNK        -0.5029 
     35 CA        -53.7076  -23.8661   17.5970 C.3       10 UNK         0.0280 
     36 CB        -52.6994  -22.8640   18.1813 C.3       10 UNK        -0.1976 
     37 N         -53.2599  -24.2699   16.2631 N.am      10 UNK        -0.4242 
     38 C         -53.9589  -25.0494   15.4268 C.2       10 UNK         0.5072 
     39 O         -55.1481  -25.3160   15.5975 O.2       10 UNK        -0.5224 
     40 CA        -53.2124  -25.6805   14.2324 C.3       9 UNK         0.0343 
     41 CB        -53.8246  -25.2154   12.9042 C.3       9 UNK        -0.2003 
     42 N         -51.7581  -25.4732   14.2050 N.am      9 UNK        -0.4272 
     43 C         -50.8782  -25.8695   15.1384 C.2       9 UNK         0.4988 
     44 O         -51.2073  -26.4416   16.1784 O.2       9 UNK        -0.5108 
     45 CA        -49.3895  -25.5483   14.9079 C.3       8 UNK         0.0248 
     46 CB        -48.6209  -26.8268   14.5376 C.3       8 UNK        -0.2001 
     47 N         -49.1423  -24.5139   13.8956 N.am      8 UNK        -0.4140 
     48 C         -49.4748  -23.2195   14.0227 C.2       8 UNK         0.5028 
     49 O         -50.0061  -22.7484   15.0292 O.2       8 UNK        -0.5428 
     50 CA        -49.2096  -22.3072   12.8107 C.3       7 UNK         0.0264 
     51 CB        -47.7370  -21.8699   12.7635 C.3       7 UNK        -0.1988 
     52 N         -49.5801  -22.9469   11.5450 N.am      7 UNK        -0.4454 
     53 C         -50.8413  -23.2158   11.1760 C.2       7 UNK         0.5027 
     54 O         -51.8224  -22.8186   11.8027 O.2       7 UNK        -0.5083 
     55 CA        -51.0606  -24.1262    9.9490 C.3       6 UNK         0.0844 
     56 C56       -51.3860  -23.3310    8.6647 C.3       14 UNK        -0.0967 
     57 S57       -51.6986  -24.3939    7.2062 S.3       14 UNK        -0.2604 
     58 C58       -53.2453  -25.2698    7.6339 C.3       14 UNK         0.0134 
     59 N         -49.9700  -25.0851    9.7666 N.am      6 UNK        -0.4116 
     60 C         -49.7625  -26.1403   10.5637 C.2       5 UNK         0.5034 
     61 O         -50.4657  -26.4133   11.5355 O.2       5 UNK        -0.5045 
     62 CA        -48.5362  -27.0069   10.2479 C.3       5 UNK         0.0224 
     63 CB        -48.8351  -27.9726    9.0921 C.3       5 UNK        -0.1978 
     64 N         -47.3657  -26.1894    9.9216 N.am      5 UNK        -0.4737 
     65 C         -46.7199  -25.4260   10.8153 C.2       4 UNK         0.5027 
     66 O         -47.0262  -25.3657   12.0053 O.2       4 UNK        -0.5211 
     67 CA        -45.5702  -24.5479   10.2920 C.3       4 UNK         0.0297 
     68 CB        -44.2524  -25.3380   10.2827 C.3       4 UNK        -0.1993 
     69 N         -45.8205  -23.9979    8.9578 N.am      4 UNK        -0.4486 
     70 C         -46.8381  -23.1848    8.6400 C.2       3 UNK         0.4961 
     71 O         -47.6663  -22.7754    9.4517 O.2       3 UNK        -0.5105 
     72 CA        -46.9846  -22.7900    7.1609 C.3       3 UNK         0.0299 
     73 CB        -46.2960  -21.4418    6.8969 C.3       3 UNK        -0.1972 
     74 N         -46.4774  -23.7929    6.2165 N.am      3 UNK        -0.4305 
     75 C         -46.9396  -25.0464    6.1069 C.2       2 UNK         0.5006 
     76 O         -47.8148  -25.5137    6.8395 O.2       2 UNK        -0.5106 
     77 CA        -46.3016  -25.8966    4.9931 C.3       2 UNK         0.0296 
     78 CB        -44.8618  -26.3214    5.3533 C.3       2 UNK        -0.2002 
     79 N         -47.1445  -27.0385    4.6129 N.am      2 UNK        -0.4032 
     80 C         -47.3686  -28.1784    5.2855 C.2       1 UNK         0.5000 
     81 O         -46.7628  -28.5334    6.3009 O.2       1 UNK        -0.5238 
     82 H82       -47.8874  -32.9252    5.5328 H         1 UNK         0.0889 
     83 H83       -46.1880  -32.8382    5.0655 H         1 UNK         0.0889 
     84 H84       -47.4075  -33.3120    3.8794 H         1 UNK         0.0889 
     85 H85       -48.7989  -30.8890    5.7209 H         1 UNK         0.3028 
     86 H86       -48.5840  -28.8831    3.6614 H         1 UNK         0.0864 
     87 H87       -49.8708  -28.8561    6.4361 H         1 UNK         0.0720 
     88 H88       -49.9566  -27.4985    5.3474 H         1 UNK         0.0720 
     89 H89       -51.7491  -30.8535    6.2950 H         1 UNK         0.0814 
     90 H90       -53.2384  -30.3097    5.5628 H         1 UNK         0.0814 
     91 H91       -52.8862  -27.2722    5.8309 H         1 UNK         0.1469 
     92 H92       -53.0623  -26.5551   10.0448 H         1 UNK         0.1381 
     93 H93       -52.1420  -30.4704    8.5888 H         1 UNK         0.1206 
     94 H94       -51.3533  -28.9269   11.1641 H         1 UNK         0.0813 
     95 H95       -52.9294  -28.3466   11.6143 H         1 UNK         0.0813 
     96 H96       -55.1047  -31.6515   11.3096 H         1 UNK         0.0638 
     97 H97       -55.0683  -30.1758   10.3821 H         1 UNK         0.0638 
     98 H98       -55.1663  -28.7920   12.3289 H         1 UNK         0.0568 
     99 H99       -56.8515  -30.9437   14.4154 H         1 UNK         0.3450 
    100 H100      -58.4235  -30.7120   13.6917 H         1 UNK         0.3450 
    101 H101      -53.9475  -30.9109   13.7467 H         1 UNK         0.2987 
    102 H102      -53.8065  -30.5968   16.4015 H         1 UNK         0.0766 
    103 H103      -52.0131  -30.5268   14.6682 H         1 UNK         0.0798 
    104 H104      -51.3759  -29.8146   16.1327 H         1 UNK         0.0798 
    105 H105      -51.8885  -28.7804   14.8065 H         1 UNK         0.0798 
    106 H106      -54.2146  -27.8001   16.7046 H         1 UNK         0.3198 
    107 H107      -54.3154  -27.4976   19.5085 H         1 UNK         0.0843 
    108 H108      -52.4979  -26.5032   20.9208 H         1 UNK         0.0831 
    109 H109      -51.2823  -27.3099   19.9303 H         1 UNK         0.0831 
    110 H110      -52.4020  -28.2544   20.9048 H         1 UNK         0.0831 
    111 H111      -52.5522  -26.2041   17.5389 H         1 UNK         0.3133 
    112 H112      -54.6710  -23.3637   17.4899 H         1 UNK         0.0566 
    113 H113      -52.6005  -21.9833   17.5462 H         1 UNK         0.0814 
    114 H114      -51.7095  -23.3078   18.2959 H         1 UNK         0.0814 
    115 H115      -53.0182  -22.5185   19.1657 H         1 UNK         0.0814 
    116 H116      -52.2949  -24.0787   16.0313 H         1 UNK         0.3091 
    117 H117      -53.3597  -26.7572   14.3033 H         1 UNK         0.0702 
    118 H118      -53.2830  -25.6263   12.0554 H         1 UNK         0.0785 
    119 H119      -53.8201  -24.1289   12.8183 H         1 UNK         0.0785 
    120 H120      -54.8616  -25.5430   12.8189 H         1 UNK         0.0785 
    121 H121      -51.3843  -25.0409   13.3714 H         1 UNK         0.2998 
    122 H122      -48.9933  -25.1807   15.8566 H         1 UNK         0.0697 
    123 H123      -48.9636  -27.2440   13.5909 H         1 UNK         0.0825 
    124 H124      -48.7533  -27.5972   15.2987 H         1 UNK         0.0825 
    125 H125      -47.5509  -26.6368   14.4525 H         1 UNK         0.0825 
    126 H126      -48.6479  -24.8118   13.0595 H         1 UNK         0.3029 
    127 H127      -49.8240  -21.4118   12.9288 H         1 UNK         0.0897 
    128 H128      -47.0640  -22.7201   12.6542 H         1 UNK         0.0792 
    129 H129      -47.4566  -21.3481   13.6794 H         1 UNK         0.0792 
    130 H130      -47.5523  -21.1893   11.9320 H         1 UNK         0.0792 
    131 H131      -48.8228  -23.1982   10.9144 H         1 UNK         0.3086 
    132 H132      -51.9533  -24.6998   10.1884 H         1 UNK         0.0583 
    133 H133      -52.2582  -22.6929    8.8205 H         1 UNK         0.1020 
    134 H134      -50.5604  -22.6598    8.4197 H         1 UNK         0.1020 
    135 H135      -53.7297  -24.7933    8.4873 H         1 UNK         0.0694 
    136 H136      -53.9422  -25.1732    6.8001 H         1 UNK         0.0694 
    137 H137      -49.3527  -24.9340    8.9807 H         1 UNK         0.2989 
    138 H138      -48.3051  -27.5970   11.1374 H         1 UNK         0.1055 
    139 H139      -49.1167  -27.4375    8.1849 H         1 UNK         0.0806 
    140 H140      -47.9720  -28.5961    8.8588 H         1 UNK         0.0806 
    141 H141      -49.6587  -28.6408    9.3429 H         1 UNK         0.0806 
    142 H142      -47.0991  -26.1416    8.9457 H         1 UNK         0.3061 
    143 H143      -45.4597  -23.7067   10.9793 H         1 UNK         0.0734 
    144 H144      -44.2886  -26.1788    9.5886 H         1 UNK         0.0832 
    145 H145      -43.4105  -24.7048   10.0020 H         1 UNK         0.0832 
    146 H146      -44.0348  -25.7423   11.2724 H         1 UNK         0.0832 
    147 H147      -45.1923  -24.2810    8.2203 H         1 UNK         0.3156 
    148 H148      -48.0525  -22.6702    6.9654 H         1 UNK         0.0589 
    149 H149      -46.4790  -21.0935    5.8802 H         1 UNK         0.0808 
    150 H150      -46.6736  -20.6726    7.5725 H         1 UNK         0.0808 
    151 H151      -45.2169  -21.5025    7.0439 H         1 UNK         0.0808 
    152 H152      -45.7565  -23.4856    5.5788 H         1 UNK         0.3098 
    153 H153      -46.2495  -25.2688    4.1020 H         1 UNK         0.0720 
    154 H154      -44.2030  -25.4553    5.4226 H         1 UNK         0.0791 
    155 H155      -44.4424  -26.9844    4.5964 H         1 UNK         0.0791 
    156 H156      -44.8136  -26.8361    6.3135 H         1 UNK         0.0791 
    157 H157      -47.7261  -26.8661    3.8046 H         1 UNK         0.3028 
@<TRIPOS>BOND
     1    1    2 1    
     2    1   82 1    
     3    1   83 1    
     4    1   84 1    
     5    2    3 2    
     6    2    4 am   BACKBONE|DICT|INTERRES
     7    4    5 1    
     8    4   85 1    
     9    5    6 1    
    10    5   80 1    
    11    5   86 1    
    12    6    7 1    
    13    6   87 1    
    14    6   88 1    
    15    7    8 1    
    16    8    9 1    
    17    8   89 1    
    18    8   90 1    
    19    9   10 ar   
    20    9   14 ar   
    21   10   11 ar   
    22   10   91 1    
    23   11   12 ar   
    24   11   58 1    
    25   12   13 ar   
    26   12   92 1    
    27   13   14 ar   
    28   13   15 1    
    29   14   93 1    
    30   15   16 1    
    31   15   94 1    
    32   15   95 1    
    33   16   17 1    
    34   17   18 1    
    35   17   96 1    
    36   17   97 1    
    37   18   19 1    
    38   18   22 1    
    39   18   98 1    
    40   19   20 am   BACKBONE|DICT|INTERRES
    41   19   21 2    
    42   20   99 1    
    43   20  100 1    
    44   22   23 am   BACKBONE|DICT|INTERRES
    45   22  101 1    
    46   23   24 2    
    47   23   25 1    
    48   25   26 1    
    49   25   27 1    
    50   25  102 1    
    51   26  103 1    
    52   26  104 1    
    53   26  105 1    
    54   27   28 am   BACKBONE|DICT|INTERRES
    55   27  106 1    
    56   28   29 2    
    57   28   30 1    
    58   30   31 1    
    59   30   32 1    
    60   30  107 1    
    61   31  108 1    
    62   31  109 1    
    63   31  110 1    
    64   32   33 am   BACKBONE|DICT|INTERRES
    65   32  111 1    
    66   33   34 2    
    67   33   35 1    
    68   35   36 1    
    69   35   37 1    
    70   35  112 1    
    71   36  113 1    
    72   36  114 1    
    73   36  115 1    
    74   37   38 am   BACKBONE|DICT|INTERRES
    75   37  116 1    
    76   38   39 2    
    77   38   40 1    
    78   40   41 1    
    79   40   42 1    
    80   40  117 1    
    81   41  118 1    
    82   41  119 1    
    83   41  120 1    
    84   42   43 am   BACKBONE|DICT|INTERRES
    85   42  121 1    
    86   43   44 2    
    87   43   45 1    
    88   45   46 1    
    89   45   47 1    
    90   45  122 1    
    91   46  123 1    
    92   46  124 1    
    93   46  125 1    
    94   47   48 am   BACKBONE|DICT|INTERRES
    95   47  126 1    
    96   48   49 2    
    97   48   50 1    
    98   50   51 1    
    99   50   52 1    
   100   50  127 1    
   101   51  128 1    
   102   51  129 1    
   103   51  130 1    
   104   52   53 am   BACKBONE|DICT|INTERRES
   105   52  131 1    
   106   53   54 2    
   107   53   55 1    
   108   55   56 1    
   109   55   59 1    
   110   55  132 1    
   111   56   57 1    
   112   56  133 1    
   113   56  134 1    
   114   57   58 1    
   115   58  135 1    
   116   58  136 1    
   117   59   60 am   BACKBONE|DICT|INTERRES
   118   59  137 1    
   119   60   61 2    
   120   60   62 1    
   121   62   63 1    
   122   62   64 1    
   123   62  138 1    
   124   63  139 1    
   125   63  140 1    
   126   63  141 1    
   127   64   65 am   BACKBONE|DICT|INTERRES
   128   64  142 1    
   129   65   66 2    
   130   65   67 1    
   131   67   68 1    
   132   67   69 1    
   133   67  143 1    
   134   68  144 1    
   135   68  145 1    
   136   68  146 1    
   137   69   70 am   BACKBONE|DICT|INTERRES
   138   69  147 1    
   139   70   71 2    
   140   70   72 1    
   141   72   73 1    
   142   72   74 1    
   143   72  148 1    
   144   73  149 1    
   145   73  150 1    
   146   73  151 1    
   147   74   75 am   BACKBONE|DICT|INTERRES
   148   74  152 1    
   149   75   76 2    
   150   75   77 1    
   151   77   78 1    
   152   77   79 1    
   153   77  153 1    
   154   78  154 1    
   155   78  155 1    
   156   78  156 1    
   157   79   80 am   BACKBONE|DICT|INTERRES
   158   79  157 1    
   159   80   81 2    
@<TRIPOS>SUBSTRUCTURE
     1 UNK         1 GROUP             0       ****    0 ROOT    
