@<TRIPOS>MOLECULE
3R207
157   159    1
SMALL
USER_CHARGES


@<TRIPOS>ATOM
      1 CA        -49.3600  -30.8685    8.0328 C.3       0 UNK        -0.1975 
      2 C         -49.6238  -30.2345    6.6755 C.2       0 UNK         0.4852 
      3 O         -49.0179  -30.6400    5.6833 O.2       0 UNK        -0.5216 
      4 N         -50.5229  -29.2418    6.6275 N.am      1 UNK        -0.4461 
      5 CA        -50.8667  -28.4752    5.4234 C.3       1 UNK         0.0864 
      6 C6        -52.1227  -27.5942    5.6386 C.3       14 UNK        -0.0898 
      7 S7        -53.7084  -28.4999    5.7291 S.3       14 UNK        -0.2598 
      8 C8        -53.6466  -29.4747    7.2770 C.3       14 UNK         0.0286 
      9 C9        -53.1407  -28.7368    8.5159 C.ar      14 UNK        -0.0844 
     10 C10       -53.3994  -27.3802    8.7316 C.ar      14 UNK        -0.0881 
     11 C11       -52.8946  -26.7279    9.8595 C.ar      14 UNK        -0.0643 
     12 C12       -52.1823  -27.4579   10.8183 C.ar      14 UNK        -0.0930 
     13 C13       -51.9451  -28.8243   10.6333 C.ar      14 UNK        -0.0827 
     14 C14       -52.4099  -29.4466    9.4711 C.ar      14 UNK        -0.1249 
     15 C15       -51.1593  -29.6244   11.6666 C.3       14 UNK         0.0141 
     16 S16       -52.2283  -30.4045   12.9229 S.3       14 UNK        -0.2313 
     17 C17       -53.0596  -31.7299   11.9629 C.3       14 UNK        -0.0915 
     18 CA        -54.5869  -31.5178   11.7267 C.3       13 UNK         0.0968 
     19 C         -55.4344  -32.1775   12.8493 C.2       13 UNK         0.5732 
     20 N         -55.8650  -33.4166   12.6530 N.am      13 UNK        -0.7310 
     21 O         -55.6641  -31.6005   13.9091 O.2       13 UNK        -0.5035 
     22 N         -54.9035  -30.0999   11.5340 N.am      13 UNK        -0.4233 
     23 C         -56.0782  -29.5698   11.1808 C.2       13 UNK         0.4989 
     24 O         -57.0485  -30.2244   10.7950 O.2       13 UNK        -0.4996 
     25 CA        -56.1588  -28.0358   11.3200 C.3       12 UNK         0.0216 
     26 CB        -57.5560  -27.4585   11.0067 C.3       12 UNK        -0.1964 
     27 N         -55.6674  -27.5994   12.6380 N.am      12 UNK        -0.4276 
     28 C         -56.1920  -27.9123   13.8345 C.2       12 UNK         0.5020 
     29 O         -57.2789  -28.4717   13.9856 O.2       12 UNK        -0.5489 
     30 CA        -55.3616  -27.5781   15.0868 C.3       11 UNK         0.0294 
     31 CB        -54.8661  -28.8683   15.7621 C.3       11 UNK        -0.2019 
     32 N         -54.2007  -26.7204   14.8365 N.am      11 UNK        -0.4493 
     33 C         -54.2370  -25.3823   14.8029 C.2       11 UNK         0.4932 
     34 O         -55.2871  -24.7390   14.8079 O.2       11 UNK        -0.5029 
     35 CA        -52.8882  -24.6289   14.7595 C.3       10 UNK         0.0280 
     36 CB        -52.9149  -23.3846   15.6744 C.3       10 UNK        -0.1976 
     37 N         -51.7002  -25.4568   15.0418 N.am      10 UNK        -0.4242 
     38 C         -51.4074  -26.1020   16.1827 C.2       10 UNK         0.5072 
     39 O         -52.1092  -26.0785   17.1938 O.2       10 UNK        -0.5224 
     40 CA        -50.1367  -26.9596   16.1783 C.3       9 UNK         0.0343 
     41 CB        -50.3730  -28.2588   15.3908 C.3       9 UNK        -0.2003 
     42 N         -48.9851  -26.2522   15.6142 N.am      9 UNK        -0.4272 
     43 C         -48.0724  -25.6062   16.3525 C.2       9 UNK         0.4988 
     44 O         -48.1611  -25.4470   17.5709 O.2       9 UNK        -0.5108 
     45 CA        -46.8203  -25.0964   15.6209 C.3       8 UNK         0.0248 
     46 CB        -46.0006  -26.2676   15.0516 C.3       8 UNK        -0.2001 
     47 N         -47.1214  -24.1396   14.5569 N.am      8 UNK        -0.4140 
     48 C         -47.5361  -22.8807   14.7599 C.2       8 UNK         0.5028 
     49 O         -47.7153  -22.3853   15.8732 O.2       8 UNK        -0.5428 
     50 CA        -47.7875  -22.0221   13.5077 C.3       7 UNK         0.0264 
     51 CB        -46.4688  -21.4514   12.9613 C.3       7 UNK        -0.1988 
     52 N         -48.4847  -22.7628   12.4542 N.am      7 UNK        -0.4454 
     53 C         -49.7592  -23.1654   12.5481 C.2       7 UNK         0.5027 
     54 O         -50.4943  -22.8528   13.4814 O.2       7 UNK        -0.5083 
     55 CA        -50.3133  -24.0937   11.4495 C.3       6 UNK         0.0844 
     56 C56       -51.0406  -23.2859   10.3499 C.3       14 UNK        -0.0967 
     57 S57       -51.8172  -24.3292    9.0711 S.3       14 UNK        -0.2604 
     58 C58       -53.1003  -25.2284   10.0048 C.3       14 UNK         0.0134 
     59 N         -49.2972  -25.0098   10.9270 N.am      6 UNK        -0.4116 
     60 C         -48.7672  -26.0173   11.6346 C.2       5 UNK         0.5034 
     61 O         -49.1227  -26.3157   12.7763 O.2       5 UNK        -0.5045 
     62 CA        -47.6135  -26.7883   10.9780 C.3       5 UNK         0.0224 
     63 CB        -48.1423  -27.8755   10.0278 C.3       5 UNK        -0.1978 
     64 N         -46.7085  -25.8888   10.2584 N.am      5 UNK        -0.4737 
     65 C         -45.8735  -25.0297   10.8607 C.2       4 UNK         0.5027 
     66 O         -45.7634  -24.9334   12.0818 O.2       4 UNK        -0.5211 
     67 CA        -45.0539  -24.0937    9.9559 C.3       4 UNK         0.0297 
     68 CB        -43.7563  -24.7827    9.5058 C.3       4 UNK        -0.1993 
     69 N         -45.7991  -23.6354    8.7814 N.am      4 UNK        -0.4486 
     70 C         -46.8940  -22.8631    8.8286 C.2       3 UNK         0.4961 
     71 O         -47.3668  -22.4080    9.8681 O.2       3 UNK        -0.5105 
     72 CA        -47.6191  -22.6015    7.4976 C.3       3 UNK         0.0299 
     73 CB        -47.0477  -21.3524    6.8089 C.3       3 UNK        -0.1972 
     74 N         -47.5803  -23.7395    6.5714 N.am      3 UNK        -0.4305 
     75 C         -48.0629  -24.9587    6.8456 C.2       2 UNK         0.5006 
     76 O         -48.5568  -25.2768    7.9312 O.2       2 UNK        -0.5106 
     77 CA        -47.9230  -26.0145    5.7472 C.3       2 UNK         0.0296 
     78 CB        -46.5605  -26.7228    5.8405 C.3       2 UNK        -0.2002 
     79 N         -48.9900  -26.9876    5.9357 N.am      2 UNK        -0.4032 
     80 C         -49.6916  -27.5853    4.9662 C.2       1 UNK         0.5000 
     81 O         -49.4590  -27.4509    3.7631 O.2       1 UNK        -0.5238 
     82 H82       -49.8774  -31.8244    8.1096 H         1 UNK         0.0889 
     83 H83       -49.6937  -30.2284    8.8473 H         1 UNK         0.0889 
     84 H84       -48.2929  -31.0453    8.1653 H         1 UNK         0.0889 
     85 H85       -51.0150  -28.9716    7.4688 H         1 UNK         0.3028 
     86 H86       -51.0716  -29.1826    4.6169 H         1 UNK         0.0864 
     87 H87       -52.2396  -26.9041    4.8000 H         1 UNK         0.0720 
     88 H88       -52.0016  -26.9551    6.5135 H         1 UNK         0.0720 
     89 H89       -54.6514  -29.8425    7.4886 H         1 UNK         0.0814 
     90 H90       -53.0391  -30.3613    7.0898 H         1 UNK         0.0814 
     91 H91       -53.9638  -26.8159    8.0021 H         1 UNK         0.1469 
     92 H92       -51.7950  -26.9627   11.6971 H         1 UNK         0.1381 
     93 H93       -52.2106  -30.4959    9.3086 H         1 UNK         0.1206 
     94 H94       -50.5589  -30.3928   11.1781 H         1 UNK         0.0813 
     95 H95       -50.4496  -28.9699   12.1733 H         1 UNK         0.0813 
     96 H96       -52.8678  -32.6786   12.4680 H         1 UNK         0.0638 
     97 H97       -52.5583  -31.8383   11.0033 H         1 UNK         0.0638 
     98 H98       -54.8473  -32.0176   10.7918 H         1 UNK         0.0568 
     99 H99       -56.4013  -33.8666   13.3781 H         1 UNK         0.3450 
    100 H100      -55.6714  -33.9086   11.7947 H         1 UNK         0.3450 
    101 H101      -54.1654  -29.4768   11.8257 H         1 UNK         0.2987 
    102 H102      -55.4723  -27.6252   10.5812 H         1 UNK         0.0766 
    103 H103      -57.5703  -26.3743   11.1169 H         1 UNK         0.0798 
    104 H104      -58.3268  -27.8726   11.6570 H         1 UNK         0.0798 
    105 H105      -57.8459  -27.6845    9.9800 H         1 UNK         0.0798 
    106 H106      -54.7822  -27.1143   12.6421 H         1 UNK         0.3198 
    107 H107      -56.0296  -27.0699   15.7862 H         1 UNK         0.0843 
    108 H108      -54.1958  -29.4328   15.1129 H         1 UNK         0.0831 
    109 H109      -55.7008  -29.5256   16.0101 H         1 UNK         0.0831 
    110 H110      -54.3367  -28.6548   16.6910 H         1 UNK         0.0831 
    111 H111      -53.2977  -27.1704   14.8352 H         1 UNK         0.3133 
    112 H112      -52.7765  -24.2817   13.7321 H         1 UNK         0.0566 
    113 H113      -51.9556  -22.8678   15.6778 H         1 UNK         0.0814 
    114 H114      -53.6647  -22.6675   15.3384 H         1 UNK         0.0814 
    115 H115      -53.1551  -23.6448   16.7056 H         1 UNK         0.0814 
    116 H116      -51.0326  -25.5337   14.2865 H         1 UNK         0.3091 
    117 H117      -49.9242  -27.2414   17.2121 H         1 UNK         0.0702 
    118 H118      -51.2118  -28.8219   15.8029 H         1 UNK         0.0785 
    119 H119      -50.5957  -28.0616   14.3427 H         1 UNK         0.0785 
    120 H120      -49.4987  -28.9087   15.4279 H         1 UNK         0.0785 
    121 H121      -48.8616  -26.3074   14.6052 H         1 UNK         0.2998 
    122 H122      -46.1951  -24.5876   16.3579 H         1 UNK         0.0697 
    123 H123      -46.5318  -26.7878   14.2538 H         1 UNK         0.0825 
    124 H124      -45.7734  -27.0008   15.8266 H         1 UNK         0.0825 
    125 H125      -45.0499  -25.9220   14.6450 H         1 UNK         0.0825 
    126 H126      -46.9235  -24.4400   13.6068 H         1 UNK         0.3029 
    127 H127      -48.4199  -21.1822   13.8041 H         1 UNK         0.0897 
    128 H128      -46.6446  -20.7929   12.1104 H         1 UNK         0.0792 
    129 H129      -45.7886  -22.2396   12.6387 H         1 UNK         0.0792 
    130 H130      -45.9522  -20.8665   13.7233 H         1 UNK         0.0792 
    131 H131      -47.9683  -22.9476   11.5979 H         1 UNK         0.3086 
    132 H132      -51.0594  -24.7128   11.9469 H         1 UNK         0.0583 
    133 H133      -51.8148  -22.6516   10.7868 H         1 UNK         0.1020 
    134 H134      -50.3412  -22.6111    9.8524 H         1 UNK         0.1020 
    135 H135      -53.1093  -24.9391   11.0554 H         1 UNK         0.0694 
    136 H136      -54.0792  -24.9492    9.6123 H         1 UNK         0.0694 
    137 H137      -48.9917  -24.8666    9.9705 H         1 UNK         0.2989 
    138 H138      -47.0441  -27.2777   11.7713 H         1 UNK         0.1055 
    139 H139      -48.6551  -28.6554   10.5889 H         1 UNK         0.0806 
    140 H140      -47.3327  -28.3569    9.4792 H         1 UNK         0.0806 
    141 H141      -48.8533  -27.4800    9.3023 H         1 UNK         0.0806 
    142 H142      -46.8124  -25.8467    9.2537 H         1 UNK         0.3061 
    143 H143      -44.7865  -23.2144   10.5457 H         1 UNK         0.0734 
    144 H144      -43.1238  -24.1042    8.9331 H         1 UNK         0.0832 
    145 H145      -43.1744  -25.1153   10.3667 H         1 UNK         0.0832 
    146 H146      -43.9550  -25.6602    8.8891 H         1 UNK         0.0832 
    147 H147      -45.4821  -23.9599    7.8798 H         1 UNK         0.3156 
    148 H148      -48.6684  -22.4105    7.7327 H         1 UNK         0.0589 
    149 H149      -46.0065  -21.4914    6.5149 H         1 UNK         0.0808 
    150 H150      -47.6183  -21.0942    5.9166 H         1 UNK         0.0808 
    151 H151      -47.0853  -20.4891    7.4751 H         1 UNK         0.0808 
    152 H152      -47.1797  -23.5681    5.6598 H         1 UNK         0.3098 
    153 H153      -48.0245  -25.5273    4.7750 H         1 UNK         0.0720 
    154 H154      -46.4211  -27.2043    6.8095 H         1 UNK         0.0791 
    155 H155      -45.7391  -26.0190    5.7010 H         1 UNK         0.0791 
    156 H156      -46.4628  -27.4899    5.0719 H         1 UNK         0.0791 
    157 H157      -49.2893  -27.0895    6.8968 H         1 UNK         0.3028 
@<TRIPOS>BOND
     1    1    2 1    
     2    1   82 1    
     3    1   83 1    
     4    1   84 1    
     5    2    3 2    
     6    2    4 am   BACKBONE|DICT|INTERRES
     7    4    5 1    
     8    4   85 1    
     9    5    6 1    
    10    5   80 1    
    11    5   86 1    
    12    6    7 1    
    13    6   87 1    
    14    6   88 1    
    15    7    8 1    
    16    8    9 1    
    17    8   89 1    
    18    8   90 1    
    19    9   10 ar   
    20    9   14 ar   
    21   10   11 ar   
    22   10   91 1    
    23   11   12 ar   
    24   11   58 1    
    25   12   13 ar   
    26   12   92 1    
    27   13   14 ar   
    28   13   15 1    
    29   14   93 1    
    30   15   16 1    
    31   15   94 1    
    32   15   95 1    
    33   16   17 1    
    34   17   18 1    
    35   17   96 1    
    36   17   97 1    
    37   18   19 1    
    38   18   22 1    
    39   18   98 1    
    40   19   20 am   BACKBONE|DICT|INTERRES
    41   19   21 2    
    42   20   99 1    
    43   20  100 1    
    44   22   23 am   BACKBONE|DICT|INTERRES
    45   22  101 1    
    46   23   24 2    
    47   23   25 1    
    48   25   26 1    
    49   25   27 1    
    50   25  102 1    
    51   26  103 1    
    52   26  104 1    
    53   26  105 1    
    54   27   28 am   BACKBONE|DICT|INTERRES
    55   27  106 1    
    56   28   29 2    
    57   28   30 1    
    58   30   31 1    
    59   30   32 1    
    60   30  107 1    
    61   31  108 1    
    62   31  109 1    
    63   31  110 1    
    64   32   33 am   BACKBONE|DICT|INTERRES
    65   32  111 1    
    66   33   34 2    
    67   33   35 1    
    68   35   36 1    
    69   35   37 1    
    70   35  112 1    
    71   36  113 1    
    72   36  114 1    
    73   36  115 1    
    74   37   38 am   BACKBONE|DICT|INTERRES
    75   37  116 1    
    76   38   39 2    
    77   38   40 1    
    78   40   41 1    
    79   40   42 1    
    80   40  117 1    
    81   41  118 1    
    82   41  119 1    
    83   41  120 1    
    84   42   43 am   BACKBONE|DICT|INTERRES
    85   42  121 1    
    86   43   44 2    
    87   43   45 1    
    88   45   46 1    
    89   45   47 1    
    90   45  122 1    
    91   46  123 1    
    92   46  124 1    
    93   46  125 1    
    94   47   48 am   BACKBONE|DICT|INTERRES
    95   47  126 1    
    96   48   49 2    
    97   48   50 1    
    98   50   51 1    
    99   50   52 1    
   100   50  127 1    
   101   51  128 1    
   102   51  129 1    
   103   51  130 1    
   104   52   53 am   BACKBONE|DICT|INTERRES
   105   52  131 1    
   106   53   54 2    
   107   53   55 1    
   108   55   56 1    
   109   55   59 1    
   110   55  132 1    
   111   56   57 1    
   112   56  133 1    
   113   56  134 1    
   114   57   58 1    
   115   58  135 1    
   116   58  136 1    
   117   59   60 am   BACKBONE|DICT|INTERRES
   118   59  137 1    
   119   60   61 2    
   120   60   62 1    
   121   62   63 1    
   122   62   64 1    
   123   62  138 1    
   124   63  139 1    
   125   63  140 1    
   126   63  141 1    
   127   64   65 am   BACKBONE|DICT|INTERRES
   128   64  142 1    
   129   65   66 2    
   130   65   67 1    
   131   67   68 1    
   132   67   69 1    
   133   67  143 1    
   134   68  144 1    
   135   68  145 1    
   136   68  146 1    
   137   69   70 am   BACKBONE|DICT|INTERRES
   138   69  147 1    
   139   70   71 2    
   140   70   72 1    
   141   72   73 1    
   142   72   74 1    
   143   72  148 1    
   144   73  149 1    
   145   73  150 1    
   146   73  151 1    
   147   74   75 am   BACKBONE|DICT|INTERRES
   148   74  152 1    
   149   75   76 2    
   150   75   77 1    
   151   77   78 1    
   152   77   79 1    
   153   77  153 1    
   154   78  154 1    
   155   78  155 1    
   156   78  156 1    
   157   79   80 am   BACKBONE|DICT|INTERRES
   158   79  157 1    
   159   80   81 2    
@<TRIPOS>SUBSTRUCTURE
     1 UNK         1 GROUP             0       ****    0 ROOT    
