@<TRIPOS>MOLECULE
3R207
157   159    1
SMALL
USER_CHARGES


@<TRIPOS>ATOM
      1 CA        -47.7673  -30.9564   11.2323 C.3       0 UNK        -0.1975 
      2 C         -47.5129  -30.7079    9.7525 C.2       0 UNK         0.4852 
      3 O         -46.5436  -31.2263    9.1993 O.2       0 UNK        -0.5216 
      4 N         -48.3702  -29.9024    9.1122 N.am      1 UNK        -0.4461 
      5 CA        -48.3336  -29.5669    7.6798 C.3       1 UNK         0.0864 
      6 C6        -49.7157  -29.0605    7.1891 C.3       14 UNK        -0.0898 
      7 S7        -50.9794  -30.3694    7.2798 S.3       14 UNK        -0.2598 
      8 C8        -52.3078  -29.6556    6.2611 C.3       14 UNK         0.0286 
      9 C9        -53.1372  -28.6439    7.0383 C.ar      14 UNK        -0.0844 
     10 C10       -52.9721  -27.2709    6.8312 C.ar      14 UNK        -0.0881 
     11 C11       -53.7640  -26.3461    7.5227 C.ar      14 UNK        -0.0643 
     12 C12       -54.7274  -26.8116    8.4270 C.ar      14 UNK        -0.0930 
     13 C13       -54.9030  -28.1839    8.6420 C.ar      14 UNK        -0.0827 
     14 C14       -54.1030  -29.0917    7.9431 C.ar      14 UNK        -0.1249 
     15 C15       -55.9838  -28.7017    9.5855 C.3       14 UNK         0.0141 
     16 S16       -55.7748  -28.0955   11.2873 S.3       14 UNK        -0.2313 
     17 C17       -56.9071  -29.1914   12.2141 C.3       14 UNK        -0.0915 
     18 CA        -56.2151  -30.0184   13.3346 C.3       13 UNK         0.0968 
     19 C         -55.2306  -31.0884   12.7847 C.2       13 UNK         0.5732 
     20 N         -53.9608  -31.0899   13.1695 N.am      13 UNK        -0.7310 
     21 O         -55.6378  -31.9579   12.0177 O.2       13 UNK        -0.5035 
     22 N         -55.6509  -29.1501   14.3835 N.am      13 UNK        -0.4233 
     23 C         -56.2173  -28.9161   15.5738 C.2       13 UNK         0.4989 
     24 O         -57.2527  -29.4671   15.9543 O.2       13 UNK        -0.4996 
     25 CA        -55.5509  -27.8574   16.4765 C.3       12 UNK         0.0216 
     26 CB        -56.0843  -27.8695   17.9261 C.3       12 UNK        -0.1964 
     27 N         -54.0838  -27.8772   16.4580 N.am      12 UNK        -0.4276 
     28 C         -53.2622  -28.8417   16.9004 C.2       12 UNK         0.5020 
     29 O         -53.6590  -29.9058   17.3779 O.2       12 UNK        -0.5489 
     30 CA        -51.7383  -28.5929   16.8091 C.3       11 UNK         0.0294 
     31 CB        -51.0354  -29.7343   16.0532 C.3       11 UNK        -0.2019 
     32 N         -51.3789  -27.3177   16.1789 N.am      11 UNK        -0.4493 
     33 C         -51.3781  -26.1209   16.7838 C.2       11 UNK         0.4932 
     34 O         -51.5895  -25.9619   17.9857 O.2       11 UNK        -0.5029 
     35 CA        -51.1724  -24.8863   15.8814 C.3       10 UNK         0.0280 
     36 CB        -49.6792  -24.5644   15.7144 C.3       10 UNK        -0.1976 
     37 N         -51.8038  -25.0405   14.5650 N.am      10 UNK        -0.4242 
     38 C         -53.1242  -25.1914   14.3780 C.2       10 UNK         0.5072 
     39 O         -53.9560  -25.0982   15.2799 O.2       10 UNK        -0.5224 
     40 CA        -53.5939  -25.6068   12.9775 C.3       9 UNK         0.0343 
     41 CB        -53.8647  -24.3829   12.0895 C.3       9 UNK        -0.2003 
     42 N         -52.6389  -26.5101   12.3304 N.am      9 UNK        -0.4272 
     43 C         -52.4598  -27.7900   12.6889 C.2       9 UNK         0.4988 
     44 O         -53.0994  -28.3374   13.5847 O.2       9 UNK        -0.5108 
     45 CA        -51.3673  -28.5925   11.9630 C.3       8 UNK         0.0248 
     46 CB        -51.9136  -29.1756   10.6531 C.3       8 UNK        -0.2001 
     47 N         -50.1651  -27.8035   11.6941 N.am      8 UNK        -0.4140 
     48 C         -49.3625  -27.3021   12.6447 C.2       8 UNK         0.5028 
     49 O         -49.4810  -27.5624   13.8410 O.2       8 UNK        -0.5428 
     50 CA        -48.2952  -26.2862   12.1890 C.3       7 UNK         0.0264 
     51 CB        -46.9389  -26.9744   11.9935 C.3       7 UNK        -0.1988 
     52 N         -48.6624  -25.5511   10.9691 N.am      7 UNK        -0.4454 
     53 C         -49.7567  -24.7839   10.8665 C.2       7 UNK         0.5027 
     54 O         -50.5248  -24.5814   11.8081 O.2       7 UNK        -0.5083 
     55 CA        -50.0850  -24.2276    9.4702 C.3       6 UNK         0.0844 
     56 C56       -51.5897  -24.4056    9.1297 C.3       14 UNK        -0.0967 
     57 S57       -51.9180  -24.2236    7.3507 S.3       14 UNK        -0.2604 
     58 C58       -53.6309  -24.8483    7.2510 C.3       14 UNK         0.0134 
     59 N         -49.5760  -22.8597    9.3465 N.am      6 UNK        -0.4116 
     60 C         -49.9695  -21.7667   10.0204 C.2       5 UNK         0.5034 
     61 O         -50.9796  -21.7022   10.7224 O.2       5 UNK        -0.5045 
     62 CA        -49.0502  -20.5330    9.8894 C.3       5 UNK         0.0224 
     63 CB        -49.2758  -19.4922   11.0072 C.3       5 UNK        -0.1978 
     64 N         -47.6269  -20.8935    9.7939 N.am      5 UNK        -0.4737 
     65 C         -46.8892  -21.5781   10.6817 C.2       4 UNK         0.5027 
     66 O         -47.3029  -21.9514   11.7796 O.2       4 UNK        -0.5211 
     67 CA        -45.4646  -21.9542   10.2245 C.3       4 UNK         0.0297 
     68 CB        -44.6526  -22.6499   11.3334 C.3       4 UNK        -0.1993 
     69 N         -45.4973  -22.8303    9.0494 N.am      4 UNK        -0.4486 
     70 C         -45.7734  -22.4555    7.7941 C.2       3 UNK         0.4961 
     71 O         -45.9826  -21.2824    7.4800 O.2       3 UNK        -0.5105 
     72 CA        -45.8662  -23.5483    6.7082 C.3       3 UNK         0.0299 
     73 CB        -45.1395  -23.1161    5.4215 C.3       3 UNK        -0.1972 
     74 N         -45.3791  -24.8780    7.0944 N.am      3 UNK        -0.4305 
     75 C         -45.9765  -25.7316    7.9343 C.2       2 UNK         0.5006 
     76 O         -46.9534  -25.4497    8.6349 O.2       2 UNK        -0.5106 
     77 CA        -45.3444  -27.1273    8.0341 C.3       2 UNK         0.0296 
     78 CB        -44.3141  -27.1869    9.1726 C.3       2 UNK        -0.2002 
     79 N         -46.3753  -28.1442    8.2423 N.am      2 UNK        -0.4032 
     80 C         -47.2106  -28.5765    7.2863 C.2       1 UNK         0.5000 
     81 O         -47.1201  -28.2176    6.1099 O.2       1 UNK        -0.5238 
     82 H82       -46.9342  -30.5799   11.8254 H         1 UNK         0.0889 
     83 H83       -47.8636  -32.0253   11.4208 H         1 UNK         0.0889 
     84 H84       -48.6783  -30.4697   11.5802 H         1 UNK         0.0889 
     85 H85       -49.1688  -29.5454    9.6125 H         1 UNK         0.3028 
     86 H86       -48.1064  -30.4861    7.1348 H         1 UNK         0.0864 
     87 H87       -50.0483  -28.1980    7.7697 H         1 UNK         0.0720 
     88 H88       -49.6635  -28.7300    6.1499 H         1 UNK         0.0720 
     89 H89       -52.9573  -30.4638    5.9217 H         1 UNK         0.0814 
     90 H90       -51.8895  -29.2089    5.3580 H         1 UNK         0.0814 
     91 H91       -52.2370  -26.9190    6.1203 H         1 UNK         0.1469 
     92 H92       -55.3565  -26.1084    8.9554 H         1 UNK         0.1381 
     93 H93       -54.2340  -30.1545    8.0951 H         1 UNK         0.1206 
     94 H94       -55.9813  -29.7930    9.5994 H         1 UNK         0.0813 
     95 H95       -56.9631  -28.3977    9.2139 H         1 UNK         0.0813 
     96 H96       -57.6846  -28.5654   12.6540 H         1 UNK         0.0638 
     97 H97       -57.4288  -29.8553   11.5228 H         1 UNK         0.0638 
     98 H98       -57.0004  -30.6258   13.7873 H         1 UNK         0.0568 
     99 H99       -53.6003  -30.3290   13.7279 H         1 UNK         0.3450 
    100 H100      -53.3435  -31.8052   12.8223 H         1 UNK         0.3450 
    101 H101      -54.7714  -28.6958   14.1447 H         1 UNK         0.2987 
    102 H102      -55.8346  -26.8972   16.0440 H         1 UNK         0.0766 
    103 H103      -55.8994  -28.8246   18.4185 H         1 UNK         0.0798 
    104 H104      -55.6198  -27.0867   18.5258 H         1 UNK         0.0798 
    105 H105      -57.1609  -27.6960   17.9493 H         1 UNK         0.0798 
    106 H106      -53.6589  -27.0455   16.0650 H         1 UNK         0.3198 
    107 H107      -51.3591  -28.5888   17.8332 H         1 UNK         0.0843 
    108 H108      -51.2034  -30.6933   16.5449 H         1 UNK         0.0831 
    109 H109      -49.9573  -29.5776   16.0105 H         1 UNK         0.0831 
    110 H110      -51.3993  -29.8262   15.0306 H         1 UNK         0.0831 
    111 H111      -51.1118  -27.3620   15.2011 H         1 UNK         0.3133 
    112 H112      -51.6468  -24.0341   16.3724 H         1 UNK         0.0566 
    113 H113      -49.5270  -23.6953   15.0737 H         1 UNK         0.0814 
    114 H114      -49.2226  -24.3405   16.6793 H         1 UNK         0.0814 
    115 H115      -49.1279  -25.3998   15.2846 H         1 UNK         0.0814 
    116 H116      -51.1976  -25.0772   13.7524 H         1 UNK         0.3091 
    117 H117      -54.5375  -26.1422   13.0982 H         1 UNK         0.0702 
    118 H118      -54.1893  -24.6807   11.0923 H         1 UNK         0.0785 
    119 H119      -52.9848  -23.7476   11.9870 H         1 UNK         0.0785 
    120 H120      -54.6566  -23.7665   12.5165 H         1 UNK         0.0785 
    121 H121      -52.0072  -26.0878   11.6653 H         1 UNK         0.2998 
    122 H122      -51.0875  -29.4246   12.6121 H         1 UNK         0.0697 
    123 H123      -52.0856  -28.4018    9.9041 H         1 UNK         0.0825 
    124 H124      -52.8666  -29.6821   10.8145 H         1 UNK         0.0825 
    125 H125      -51.2324  -29.9131   10.2320 H         1 UNK         0.0825 
    126 H126      -50.0094  -27.5080   10.7432 H         1 UNK         0.3029 
    127 H127      -48.1892  -25.5527   12.9911 H         1 UNK         0.0897 
    128 H128      -46.1548  -26.2379   11.8203 H         1 UNK         0.0792 
    129 H129      -46.6554  -27.5414   12.8816 H         1 UNK         0.0792 
    130 H130      -46.9538  -27.6676   11.1533 H         1 UNK         0.0792 
    131 H131      -48.0435  -25.6319   10.1638 H         1 UNK         0.3086 
    132 H132      -49.5220  -24.8227    8.7496 H         1 UNK         0.0583 
    133 H133      -51.9306  -25.4004    9.4221 H         1 UNK         0.1020 
    134 H134      -52.2126  -23.7004    9.6800 H         1 UNK         0.1020 
    135 H135      -54.2517  -24.2726    7.9396 H         1 UNK         0.0694 
    136 H136      -54.0153  -24.6452    6.2507 H         1 UNK         0.0694 
    137 H137      -48.7293  -22.7750    8.8052 H         1 UNK         0.2989 
    138 H138      -49.3152  -20.0613    8.9416 H         1 UNK         0.1055 
    139 H139      -48.6209  -18.6296   10.8851 H         1 UNK         0.0806 
    140 H140      -49.0944  -19.9147   11.9961 H         1 UNK         0.0806 
    141 H141      -50.3018  -19.1222   10.9963 H         1 UNK         0.0806 
    142 H142      -47.1756  -20.6855    8.9057 H         1 UNK         0.3061 
    143 H143      -44.9487  -21.0282    9.9612 H         1 UNK         0.0734 
    144 H144      -44.5833  -22.0184   12.2202 H         1 UNK         0.0832 
    145 H145      -45.1095  -23.5922   11.6394 H         1 UNK         0.0832 
    146 H146      -43.6339  -22.8605   11.0075 H         1 UNK         0.0832 
    147 H147      -45.4220  -23.8220    9.2258 H         1 UNK         0.3156 
    148 H148      -46.9272  -23.6490    6.4704 H         1 UNK         0.0589 
    149 H149      -44.0705  -22.9798    5.5897 H         1 UNK         0.0808 
    150 H150      -45.2645  -23.8522    4.6270 H         1 UNK         0.0808 
    151 H151      -45.5320  -22.1717    5.0417 H         1 UNK         0.0808 
    152 H152      -44.5518  -25.1955    6.6089 H         1 UNK         0.3098 
    153 H153      -44.8288  -27.3499    7.0970 H         1 UNK         0.0720 
    154 H154      -43.8633  -28.1769    9.2467 H         1 UNK         0.0791 
    155 H155      -44.7544  -26.9480   10.1385 H         1 UNK         0.0791 
    156 H156      -43.5036  -26.4769    9.0030 H         1 UNK         0.0791 
    157 H157      -46.4993  -28.4931    9.1792 H         1 UNK         0.3028 
@<TRIPOS>BOND
     1    1    2 1    
     2    1   82 1    
     3    1   83 1    
     4    1   84 1    
     5    2    3 2    
     6    2    4 am   BACKBONE|DICT|INTERRES
     7    4    5 1    
     8    4   85 1    
     9    5    6 1    
    10    5   80 1    
    11    5   86 1    
    12    6    7 1    
    13    6   87 1    
    14    6   88 1    
    15    7    8 1    
    16    8    9 1    
    17    8   89 1    
    18    8   90 1    
    19    9   10 ar   
    20    9   14 ar   
    21   10   11 ar   
    22   10   91 1    
    23   11   12 ar   
    24   11   58 1    
    25   12   13 ar   
    26   12   92 1    
    27   13   14 ar   
    28   13   15 1    
    29   14   93 1    
    30   15   16 1    
    31   15   94 1    
    32   15   95 1    
    33   16   17 1    
    34   17   18 1    
    35   17   96 1    
    36   17   97 1    
    37   18   19 1    
    38   18   22 1    
    39   18   98 1    
    40   19   20 am   BACKBONE|DICT|INTERRES
    41   19   21 2    
    42   20   99 1    
    43   20  100 1    
    44   22   23 am   BACKBONE|DICT|INTERRES
    45   22  101 1    
    46   23   24 2    
    47   23   25 1    
    48   25   26 1    
    49   25   27 1    
    50   25  102 1    
    51   26  103 1    
    52   26  104 1    
    53   26  105 1    
    54   27   28 am   BACKBONE|DICT|INTERRES
    55   27  106 1    
    56   28   29 2    
    57   28   30 1    
    58   30   31 1    
    59   30   32 1    
    60   30  107 1    
    61   31  108 1    
    62   31  109 1    
    63   31  110 1    
    64   32   33 am   BACKBONE|DICT|INTERRES
    65   32  111 1    
    66   33   34 2    
    67   33   35 1    
    68   35   36 1    
    69   35   37 1    
    70   35  112 1    
    71   36  113 1    
    72   36  114 1    
    73   36  115 1    
    74   37   38 am   BACKBONE|DICT|INTERRES
    75   37  116 1    
    76   38   39 2    
    77   38   40 1    
    78   40   41 1    
    79   40   42 1    
    80   40  117 1    
    81   41  118 1    
    82   41  119 1    
    83   41  120 1    
    84   42   43 am   BACKBONE|DICT|INTERRES
    85   42  121 1    
    86   43   44 2    
    87   43   45 1    
    88   45   46 1    
    89   45   47 1    
    90   45  122 1    
    91   46  123 1    
    92   46  124 1    
    93   46  125 1    
    94   47   48 am   BACKBONE|DICT|INTERRES
    95   47  126 1    
    96   48   49 2    
    97   48   50 1    
    98   50   51 1    
    99   50   52 1    
   100   50  127 1    
   101   51  128 1    
   102   51  129 1    
   103   51  130 1    
   104   52   53 am   BACKBONE|DICT|INTERRES
   105   52  131 1    
   106   53   54 2    
   107   53   55 1    
   108   55   56 1    
   109   55   59 1    
   110   55  132 1    
   111   56   57 1    
   112   56  133 1    
   113   56  134 1    
   114   57   58 1    
   115   58  135 1    
   116   58  136 1    
   117   59   60 am   BACKBONE|DICT|INTERRES
   118   59  137 1    
   119   60   61 2    
   120   60   62 1    
   121   62   63 1    
   122   62   64 1    
   123   62  138 1    
   124   63  139 1    
   125   63  140 1    
   126   63  141 1    
   127   64   65 am   BACKBONE|DICT|INTERRES
   128   64  142 1    
   129   65   66 2    
   130   65   67 1    
   131   67   68 1    
   132   67   69 1    
   133   67  143 1    
   134   68  144 1    
   135   68  145 1    
   136   68  146 1    
   137   69   70 am   BACKBONE|DICT|INTERRES
   138   69  147 1    
   139   70   71 2    
   140   70   72 1    
   141   72   73 1    
   142   72   74 1    
   143   72  148 1    
   144   73  149 1    
   145   73  150 1    
   146   73  151 1    
   147   74   75 am   BACKBONE|DICT|INTERRES
   148   74  152 1    
   149   75   76 2    
   150   75   77 1    
   151   77   78 1    
   152   77   79 1    
   153   77  153 1    
   154   78  154 1    
   155   78  155 1    
   156   78  156 1    
   157   79   80 am   BACKBONE|DICT|INTERRES
   158   79  157 1    
   159   80   81 2    
@<TRIPOS>SUBSTRUCTURE
     1 UNK         1 GROUP             0       ****    0 ROOT    
