@<TRIPOS>MOLECULE
3R207
157   159    1
SMALL
USER_CHARGES


@<TRIPOS>ATOM
      1 CA        -53.1329  -25.5051    2.1792 C.3       0 UNK        -0.1975 
      2 C         -52.9856  -25.7209    3.6782 C.2       0 UNK         0.4852 
      3 O         -53.3067  -24.8245    4.4586 O.2       0 UNK        -0.5216 
      4 N         -52.5019  -26.9033    4.0851 N.am      1 UNK        -0.4461 
      5 CA        -52.2910  -27.2863    5.4872 C.3       1 UNK         0.0864 
      6 C6        -52.0821  -28.8191    5.6208 C.3       14 UNK        -0.0898 
      7 S7        -52.4023  -29.4584    7.3021 S.3       14 UNK        -0.2598 
      8 C8        -50.6969  -29.7394    7.9044 C.3       14 UNK         0.0286 
      9 C9        -50.5646  -30.1724    9.3687 C.ar      14 UNK        -0.0844 
     10 C10       -49.3264  -30.6521    9.8122 C.ar      14 UNK        -0.0881 
     11 C11       -49.1369  -31.0419   11.1425 C.ar      14 UNK        -0.0643 
     12 C12       -50.2052  -30.9615   12.0395 C.ar      14 UNK        -0.0930 
     13 C13       -51.4495  -30.4860   11.6164 C.ar      14 UNK        -0.0827 
     14 C14       -51.6171  -30.0794   10.2888 C.ar      14 UNK        -0.1249 
     15 C15       -52.6084  -30.3813   12.5962 C.3       14 UNK         0.0141 
     16 S16       -54.0538  -31.3501   12.0601 S.3       14 UNK        -0.2313 
     17 C17       -55.3896  -30.5333   12.9978 C.3       14 UNK        -0.0915 
     18 CA        -56.1253  -29.4598   12.1490 C.3       13 UNK         0.0968 
     19 C         -57.4336  -28.9647   12.8322 C.2       13 UNK         0.5732 
     20 N         -57.6891  -27.6656   12.9466 N.am      13 UNK        -0.7310 
     21 O         -58.2555  -29.7792   13.2465 O.2       13 UNK        -0.5035 
     22 N         -55.2198  -28.3601   11.7919 N.am      13 UNK        -0.4233 
     23 C         -55.0479  -27.8545   10.5649 C.2       13 UNK         0.4989 
     24 O         -55.6126  -28.2928    9.5613 O.2       13 UNK        -0.4996 
     25 CA        -54.0746  -26.6613   10.4327 C.3       12 UNK         0.0216 
     26 CB        -54.4118  -25.7476    9.2369 C.3       12 UNK        -0.1964 
     27 N         -53.9180  -25.8615   11.6562 N.am      12 UNK        -0.4276 
     28 C         -54.8724  -25.2761   12.3913 C.2       12 UNK         0.5020 
     29 O         -56.0749  -25.3303   12.1224 O.2       12 UNK        -0.5489 
     30 CA        -54.3949  -24.5678   13.6778 C.3       11 UNK         0.0294 
     31 CB        -55.5712  -24.0580   14.5360 C.3       11 UNK        -0.2019 
     32 N         -53.4899  -25.3730   14.5166 N.am      11 UNK        -0.4493 
     33 C         -53.6661  -26.6357   14.9391 C.2       11 UNK         0.4932 
     34 O         -54.5860  -27.3601   14.5571 O.2       11 UNK        -0.5029 
     35 CA        -52.6621  -27.1907   15.9693 C.3       10 UNK         0.0280 
     36 CB        -52.3636  -28.6823   15.7471 C.3       10 UNK        -0.1976 
     37 N         -51.3922  -26.4596   15.9955 N.am      10 UNK        -0.4242 
     38 C         -51.0434  -25.5580   16.9231 C.2       10 UNK         0.5072 
     39 O         -51.7794  -25.1942   17.8411 O.2       10 UNK        -0.5224 
     40 CA        -49.6359  -24.9464   16.8027 C.3       9 UNK         0.0343 
     41 CB        -48.5727  -25.9138   17.3479 C.3       9 UNK        -0.2003 
     42 N         -49.2847  -24.5582   15.4354 N.am      9 UNK        -0.4272 
     43 C         -49.9237  -23.6228   14.7171 C.2       9 UNK         0.4988 
     44 O         -50.8845  -22.9718   15.1278 O.2       9 UNK        -0.5108 
     45 CA        -49.4256  -23.4057   13.2810 C.3       8 UNK         0.0248 
     46 CB        -48.1569  -22.5390   13.2595 C.3       8 UNK        -0.2001 
     47 N         -49.1920  -24.6836   12.6051 N.am      8 UNK        -0.4140 
     48 C         -50.1850  -25.4893   12.2048 C.2       8 UNK         0.5028 
     49 O         -51.3712  -25.1783   12.2583 O.2       8 UNK        -0.5428 
     50 CA        -49.8154  -26.8809   11.6797 C.3       7 UNK         0.0264 
     51 CB        -49.6610  -26.8504   10.1597 C.3       7 UNK        -0.1988 
     52 N         -48.5980  -27.4069   12.2856 N.am      7 UNK        -0.4454 
     53 C         -48.5356  -27.8611   13.5437 C.2       7 UNK         0.5027 
     54 O         -49.4892  -27.8441   14.3219 O.2       7 UNK        -0.5083 
     55 CA        -47.1677  -28.3683   14.0383 C.3       6 UNK         0.0844 
     56 C56       -46.9798  -29.8787   13.7386 C.3       14 UNK        -0.0967 
     57 S57       -46.5976  -30.2594   11.9874 S.3       14 UNK        -0.2604 
     58 C58       -47.7867  -31.5836   11.5934 C.3       14 UNK         0.0134 
     59 N         -46.0452  -27.5602   13.5510 N.am      6 UNK        -0.4116 
     60 C         -45.8988  -26.2374   13.7082 C.2       5 UNK         0.5034 
     61 O         -46.6895  -25.5314   14.3384 O.2       5 UNK        -0.5045 
     62 CA        -44.6957  -25.5718   13.0089 C.3       5 UNK         0.0224 
     63 CB        -43.7173  -26.5695   12.3458 C.3       5 UNK        -0.1978 
     64 N         -45.1140  -24.5576   12.0300 N.am      5 UNK        -0.4737 
     65 C         -45.9619  -24.7293   11.0061 C.2       4 UNK         0.5027 
     66 O         -46.5476  -25.7865   10.7581 O.2       4 UNK        -0.5211 
     67 CA        -46.1872  -23.5158   10.0985 C.3       4 UNK         0.0297 
     68 CB        -45.1114  -23.4466    9.0018 C.3       4 UNK        -0.1993 
     69 N         -47.5022  -23.6401    9.4784 N.am      4 UNK        -0.4486 
     70 C         -48.3410  -22.6349    9.2019 C.2       3 UNK         0.4961 
     71 O         -48.0841  -21.4520    9.4325 O.2       3 UNK        -0.5105 
     72 CA        -49.6941  -23.0230    8.5660 C.3       3 UNK         0.0299 
     73 CB        -50.4289  -21.8232    7.9328 C.3       3 UNK        -0.1972 
     74 N         -49.5888  -24.1292    7.6059 N.am      3 UNK        -0.4305 
     75 C         -48.8426  -24.1957    6.4949 C.2       2 UNK         0.5006 
     76 O         -48.1561  -23.2667    6.0684 O.2       2 UNK        -0.5106 
     77 CA        -48.8163  -25.5434    5.7457 C.3       2 UNK         0.0296 
     78 CB        -47.9702  -26.5737    6.5214 C.3       2 UNK        -0.2002 
     79 N         -50.1180  -26.1196    5.3676 N.am      2 UNK        -0.4032 
     80 C         -51.1363  -26.5069    6.1536 C.2       1 UNK         0.5000 
     81 O         -51.1861  -26.2958    7.3631 O.2       1 UNK        -0.5238 
     82 H82       -52.5324  -24.6529    1.8620 H         1 UNK         0.0889 
     83 H83       -54.1739  -25.2995    1.9309 H         1 UNK         0.0889 
     84 H84       -52.8141  -26.3763    1.6073 H         1 UNK         0.0889 
     85 H85       -52.2688  -27.6046    3.3956 H         1 UNK         0.3028 
     86 H86       -53.2033  -27.0220    6.0273 H         1 UNK         0.0864 
     87 H87       -51.0865  -29.1165    5.2852 H         1 UNK         0.0720 
     88 H88       -52.7798  -29.3409    4.9638 H         1 UNK         0.0720 
     89 H89       -50.1208  -28.8246    7.7670 H         1 UNK         0.0814 
     90 H90       -50.2342  -30.4954    7.2682 H         1 UNK         0.0814 
     91 H91       -48.4987  -30.7183    9.1191 H         1 UNK         0.1469 
     92 H92       -50.0668  -31.2688   13.0668 H         1 UNK         0.1381 
     93 H93       -52.5809  -29.6987    9.9839 H         1 UNK         0.1206 
     94 H94       -52.8747  -29.3299   12.7013 H         1 UNK         0.0813 
     95 H95       -52.3142  -30.7349   13.5848 H         1 UNK         0.0813 
     96 H96       -56.0813  -31.3178   13.3094 H         1 UNK         0.0638 
     97 H97       -54.9901  -30.0990   13.9160 H         1 UNK         0.0638 
     98 H98       -56.4646  -29.9530   11.2367 H         1 UNK         0.0568 
     99 H99       -58.5470  -27.3742   13.3856 H         1 UNK         0.3450 
    100 H100      -57.0374  -26.9652   12.6050 H         1 UNK         0.3450 
    101 H101      -54.7905  -27.8930   12.5833 H         1 UNK         0.2987 
    102 H102      -53.0959  -27.1024   10.2379 H         1 UNK         0.0766 
    103 H103      -55.3974  -25.2934    9.3430 H         1 UNK         0.0798 
    104 H104      -53.6790  -24.9471    9.1334 H         1 UNK         0.0798 
    105 H105      -54.4049  -26.3072    8.3006 H         1 UNK         0.0798 
    106 H106      -52.9516  -25.7025   11.9563 H         1 UNK         0.3198 
    107 H107      -53.8196  -23.7001   13.3506 H         1 UNK         0.0843 
    108 H108      -56.2114  -23.3845   13.9648 H         1 UNK         0.0831 
    109 H109      -55.2179  -23.5062   15.4070 H         1 UNK         0.0831 
    110 H110      -56.1950  -24.8802   14.8893 H         1 UNK         0.0831 
    111 H111      -52.6660  -24.8881   14.8466 H         1 UNK         0.3133 
    112 H112      -53.1564  -27.1070   16.9390 H         1 UNK         0.0566 
    113 H113      -51.7373  -29.0809   16.5452 H         1 UNK         0.0814 
    114 H114      -53.2760  -29.2795   15.7260 H         1 UNK         0.0814 
    115 H115      -51.8381  -28.8392   14.8078 H         1 UNK         0.0814 
    116 H116      -50.7025  -26.7400   15.3011 H         1 UNK         0.3091 
    117 H117      -49.6157  -24.0421   17.4145 H         1 UNK         0.0702 
    118 H118      -47.5805  -25.4623   17.3323 H         1 UNK         0.0785 
    119 H119      -48.5286  -26.8356   16.7671 H         1 UNK         0.0785 
    120 H120      -48.7885  -26.1889   18.3812 H         1 UNK         0.0785 
    121 H121      -48.4751  -25.0143   15.0248 H         1 UNK         0.2998 
    122 H122      -50.2046  -22.8655   12.7381 H         1 UNK         0.0697 
    123 H123      -47.3021  -23.0448   13.7078 H         1 UNK         0.0825 
    124 H124      -48.3114  -21.6116   13.8128 H         1 UNK         0.0825 
    125 H125      -47.8916  -22.2584   12.2421 H         1 UNK         0.0825 
    126 H126      -48.2426  -25.0296   12.5687 H         1 UNK         0.3029 
    127 H127      -50.6327  -27.5640   11.9229 H         1 UNK         0.0897 
    128 H128      -49.0409  -26.0226    9.8226 H         1 UNK         0.0792 
    129 H129      -50.6424  -26.7417    9.7036 H         1 UNK         0.0792 
    130 H130      -49.2200  -27.7701    9.7805 H         1 UNK         0.0792 
    131 H131      -47.7571  -27.3892   11.7200 H         1 UNK         0.3086 
    132 H132      -47.1759  -28.2530   15.1240 H         1 UNK         0.0583 
    133 H133      -46.1543  -30.2611   14.3408 H         1 UNK         0.1020 
    134 H134      -47.8548  -30.4438   14.0657 H         1 UNK         0.1020 
    135 H135      -47.3648  -32.1971   10.7959 H         1 UNK         0.0694 
    136 H136      -47.9010  -32.2494   12.4503 H         1 UNK         0.0694 
    137 H137      -45.3721  -28.0506   12.9803 H         1 UNK         0.2989 
    138 H138      -44.1509  -25.0454   13.7945 H         1 UNK         0.1055 
    139 H139      -43.3320  -27.2906   13.0682 H         1 UNK         0.0806 
    140 H140      -42.8536  -26.0484   11.9322 H         1 UNK         0.0806 
    141 H141      -44.1820  -27.1249   11.5297 H         1 UNK         0.0806 
    142 H142      -44.7084  -23.6409   12.1616 H         1 UNK         0.3061 
    143 H143      -46.1422  -22.6103   10.7065 H         1 UNK         0.0734 
    144 H144      -45.2663  -22.5863    8.3502 H         1 UNK         0.0832 
    145 H145      -44.1144  -23.3517    9.4337 H         1 UNK         0.0832 
    146 H146      -45.1148  -24.3418    8.3784 H         1 UNK         0.0832 
    147 H147      -47.7908  -24.5943    9.3096 H         1 UNK         0.3156 
    148 H148      -50.3144  -23.3934    9.3839 H         1 UNK         0.0589 
    149 H149      -49.8431  -21.3666    7.1343 H         1 UNK         0.0808 
    150 H150      -51.3899  -22.1233    7.5148 H         1 UNK         0.0808 
    151 H151      -50.6271  -21.0490    8.6749 H         1 UNK         0.0808 
    152 H152      -50.1709  -24.9472    7.7944 H         1 UNK         0.3098 
    153 H153      -48.3022  -25.3546    4.8017 H         1 UNK         0.0720 
    154 H154      -47.8136  -27.4785    5.9341 H         1 UNK         0.0791 
    155 H155      -48.4393  -26.8653    7.4607 H         1 UNK         0.0791 
    156 H156      -46.9853  -26.1709    6.7627 H         1 UNK         0.0791 
    157 H157      -50.2251  -26.2997    4.3794 H         1 UNK         0.3028 
@<TRIPOS>BOND
     1    1    2 1    
     2    1   82 1    
     3    1   83 1    
     4    1   84 1    
     5    2    3 2    
     6    2    4 am   BACKBONE|DICT|INTERRES
     7    4    5 1    
     8    4   85 1    
     9    5    6 1    
    10    5   80 1    
    11    5   86 1    
    12    6    7 1    
    13    6   87 1    
    14    6   88 1    
    15    7    8 1    
    16    8    9 1    
    17    8   89 1    
    18    8   90 1    
    19    9   10 ar   
    20    9   14 ar   
    21   10   11 ar   
    22   10   91 1    
    23   11   12 ar   
    24   11   58 1    
    25   12   13 ar   
    26   12   92 1    
    27   13   14 ar   
    28   13   15 1    
    29   14   93 1    
    30   15   16 1    
    31   15   94 1    
    32   15   95 1    
    33   16   17 1    
    34   17   18 1    
    35   17   96 1    
    36   17   97 1    
    37   18   19 1    
    38   18   22 1    
    39   18   98 1    
    40   19   20 am   BACKBONE|DICT|INTERRES
    41   19   21 2    
    42   20   99 1    
    43   20  100 1    
    44   22   23 am   BACKBONE|DICT|INTERRES
    45   22  101 1    
    46   23   24 2    
    47   23   25 1    
    48   25   26 1    
    49   25   27 1    
    50   25  102 1    
    51   26  103 1    
    52   26  104 1    
    53   26  105 1    
    54   27   28 am   BACKBONE|DICT|INTERRES
    55   27  106 1    
    56   28   29 2    
    57   28   30 1    
    58   30   31 1    
    59   30   32 1    
    60   30  107 1    
    61   31  108 1    
    62   31  109 1    
    63   31  110 1    
    64   32   33 am   BACKBONE|DICT|INTERRES
    65   32  111 1    
    66   33   34 2    
    67   33   35 1    
    68   35   36 1    
    69   35   37 1    
    70   35  112 1    
    71   36  113 1    
    72   36  114 1    
    73   36  115 1    
    74   37   38 am   BACKBONE|DICT|INTERRES
    75   37  116 1    
    76   38   39 2    
    77   38   40 1    
    78   40   41 1    
    79   40   42 1    
    80   40  117 1    
    81   41  118 1    
    82   41  119 1    
    83   41  120 1    
    84   42   43 am   BACKBONE|DICT|INTERRES
    85   42  121 1    
    86   43   44 2    
    87   43   45 1    
    88   45   46 1    
    89   45   47 1    
    90   45  122 1    
    91   46  123 1    
    92   46  124 1    
    93   46  125 1    
    94   47   48 am   BACKBONE|DICT|INTERRES
    95   47  126 1    
    96   48   49 2    
    97   48   50 1    
    98   50   51 1    
    99   50   52 1    
   100   50  127 1    
   101   51  128 1    
   102   51  129 1    
   103   51  130 1    
   104   52   53 am   BACKBONE|DICT|INTERRES
   105   52  131 1    
   106   53   54 2    
   107   53   55 1    
   108   55   56 1    
   109   55   59 1    
   110   55  132 1    
   111   56   57 1    
   112   56  133 1    
   113   56  134 1    
   114   57   58 1    
   115   58  135 1    
   116   58  136 1    
   117   59   60 am   BACKBONE|DICT|INTERRES
   118   59  137 1    
   119   60   61 2    
   120   60   62 1    
   121   62   63 1    
   122   62   64 1    
   123   62  138 1    
   124   63  139 1    
   125   63  140 1    
   126   63  141 1    
   127   64   65 am   BACKBONE|DICT|INTERRES
   128   64  142 1    
   129   65   66 2    
   130   65   67 1    
   131   67   68 1    
   132   67   69 1    
   133   67  143 1    
   134   68  144 1    
   135   68  145 1    
   136   68  146 1    
   137   69   70 am   BACKBONE|DICT|INTERRES
   138   69  147 1    
   139   70   71 2    
   140   70   72 1    
   141   72   73 1    
   142   72   74 1    
   143   72  148 1    
   144   73  149 1    
   145   73  150 1    
   146   73  151 1    
   147   74   75 am   BACKBONE|DICT|INTERRES
   148   74  152 1    
   149   75   76 2    
   150   75   77 1    
   151   77   78 1    
   152   77   79 1    
   153   77  153 1    
   154   78  154 1    
   155   78  155 1    
   156   78  156 1    
   157   79   80 am   BACKBONE|DICT|INTERRES
   158   79  157 1    
   159   80   81 2    
@<TRIPOS>SUBSTRUCTURE
     1 UNK         1 GROUP             0       ****    0 ROOT    
