@<TRIPOS>MOLECULE
3R207
157   159    1
SMALL
USER_CHARGES


@<TRIPOS>ATOM
      1 CA        -46.8684  -27.8149    5.8846 C.3       0 UNK        -0.1975 
      2 C         -47.7520  -28.7283    6.7305 C.2       0 UNK         0.4852 
      3 O         -47.2797  -29.7729    7.1731 O.2       0 UNK        -0.5216 
      4 N         -49.0265  -28.3996    6.9863 N.am      1 UNK        -0.4461 
      5 CA        -49.7392  -27.1586    6.6572 C.3       1 UNK         0.0864 
      6 C6        -51.2185  -27.2431    7.0991 C.3       14 UNK        -0.0898 
      7 S7        -52.1805  -28.5553    6.2766 S.3       14 UNK        -0.2598 
      8 C8        -53.7825  -27.7209    6.0006 C.3       14 UNK         0.0286 
      9 C9        -54.4685  -27.3476    7.3102 C.ar      14 UNK        -0.0844 
     10 C10       -54.2642  -26.0873    7.8773 C.ar      14 UNK        -0.0881 
     11 C11       -54.8356  -25.7604    9.1074 C.ar      14 UNK        -0.0643 
     12 C12       -55.6682  -26.6820    9.7469 C.ar      14 UNK        -0.0930 
     13 C13       -55.9130  -27.9412    9.1791 C.ar      14 UNK        -0.0827 
     14 C14       -55.3012  -28.2627    7.9614 C.ar      14 UNK        -0.1249 
     15 C15       -56.8014  -28.9991    9.8392 C.3       14 UNK         0.0141 
     16 S16       -57.4122  -28.5952   11.5160 S.3       14 UNK        -0.2313 
     17 C17       -57.4813  -30.2446   12.2960 C.3       14 UNK        -0.0915 
     18 CA        -56.3760  -30.4426   13.3767 C.3       13 UNK         0.0968 
     19 C         -56.5216  -31.7857   14.1564 C.2       13 UNK         0.5732 
     20 N         -55.4418  -32.4353   14.5792 N.am      13 UNK        -0.7310 
     21 O         -57.6354  -32.2361   14.4159 O.2       13 UNK        -0.5035 
     22 N         -55.0157  -30.1737   12.8838 N.am      13 UNK        -0.4233 
     23 C         -54.3658  -30.8525   11.9268 C.2       13 UNK         0.4989 
     24 O         -54.8571  -31.7729   11.2727 O.2       13 UNK        -0.4996 
     25 CA        -52.9015  -30.4518   11.6644 C.3       12 UNK         0.0216 
     26 CB        -52.8488  -29.3900   10.5513 C.3       12 UNK        -0.1964 
     27 N         -52.1982  -29.9458   12.8490 N.am      12 UNK        -0.4276 
     28 C         -52.0999  -30.5554   14.0410 C.2       12 UNK         0.5020 
     29 O         -52.5207  -31.6898   14.2727 O.2       12 UNK        -0.5489 
     30 CA        -51.4917  -29.7294   15.1888 C.3       11 UNK         0.0294 
     31 CB        -49.9867  -30.0125   15.3186 C.3       11 UNK        -0.2019 
     32 N         -51.7008  -28.2860   15.0334 N.am      11 UNK        -0.4493 
     33 C         -52.8884  -27.6640   14.9976 C.2       11 UNK         0.4932 
     34 O         -53.9648  -28.2479   15.1383 O.2       11 UNK        -0.5029 
     35 CA        -52.8654  -26.1508   14.6957 C.3       10 UNK         0.0280 
     36 CB        -54.1431  -25.4276   15.1689 C.3       10 UNK        -0.1976 
     37 N         -51.6625  -25.4552   15.1779 N.am      10 UNK        -0.4242 
     38 C         -51.2297  -25.3614   16.4451 C.2       10 UNK         0.5072 
     39 O         -51.7954  -25.8725   17.4122 O.2       10 UNK        -0.5224 
     40 CA        -49.9276  -24.5716   16.6736 C.3       9 UNK         0.0343 
     41 CB        -48.7153  -25.5130   16.5775 C.3       9 UNK        -0.2003 
     42 N         -49.7286  -23.4441   15.7563 N.am      9 UNK        -0.4272 
     43 C         -50.5065  -22.3569   15.6627 C.2       9 UNK         0.4988 
     44 O         -51.5226  -22.1903   16.3374 O.2       9 UNK        -0.5108 
     45 CA        -50.1044  -21.2634   14.6500 C.3       8 UNK         0.0248 
     46 CB        -49.3252  -20.1301   15.3461 C.3       8 UNK        -0.2001 
     47 N         -49.3988  -21.7401   13.4486 N.am      8 UNK        -0.4140 
     48 C         -48.1820  -22.2932   13.3413 C.2       8 UNK         0.5028 
     49 O         -47.4402  -22.5056   14.3017 O.2       8 UNK        -0.5428 
     50 CA        -47.7846  -22.7829   11.9366 C.3       7 UNK         0.0264 
     51 CB        -46.2804  -23.0938   11.8286 C.3       7 UNK        -0.1988 
     52 N         -48.5612  -23.9807   11.6013 N.am      7 UNK        -0.4454 
     53 C         -49.8434  -23.9547   11.2025 C.2       7 UNK         0.5027 
     54 O         -50.4299  -22.9059   10.9297 O.2       7 UNK        -0.5083 
     55 CA        -50.6086  -25.2924   11.1639 C.3       6 UNK         0.0844 
     56 C56       -51.8739  -25.2837   10.2662 C.3       14 UNK        -0.0967 
     57 S57       -53.3332  -24.5935   11.1226 S.3       14 UNK        -0.2604 
     58 C58       -54.5276  -24.4201    9.7580 C.3       14 UNK         0.0134 
     59 N         -49.7044  -26.4019   10.8589 N.am      6 UNK        -0.4116 
     60 C         -49.5980  -27.5157   11.5906 C.2       5 UNK         0.5034 
     61 O         -50.3443  -27.7780   12.5324 O.2       5 UNK        -0.5045 
     62 CA        -48.4719  -28.5098   11.2490 C.3       5 UNK         0.0224 
     63 CB        -49.0332  -29.7402   10.5213 C.3       5 UNK        -0.1978 
     64 N         -47.3453  -27.9648   10.4807 N.am      5 UNK        -0.4737 
     65 C         -46.5435  -26.9701   10.8852 C.2       4 UNK         0.5027 
     66 O         -46.7490  -26.3043   11.8992 O.2       4 UNK        -0.5211 
     67 CA        -45.3075  -26.6735   10.0283 C.3       4 UNK         0.0297 
     68 CB        -44.6662  -27.9412    9.4242 C.3       4 UNK        -0.1993 
     69 N         -45.6285  -25.7120    8.9736 N.am      4 UNK        -0.4486 
     70 C         -44.7331  -24.8695    8.4345 C.2       3 UNK         0.4961 
     71 O         -43.5665  -24.7890    8.8222 O.2       3 UNK        -0.5105 
     72 CA        -45.1641  -23.9811    7.2494 C.3       3 UNK         0.0299 
     73 CB        -44.4477  -24.4211    5.9606 C.3       3 UNK        -0.1972 
     74 N         -46.6059  -23.9728    7.0043 N.am      3 UNK        -0.4305 
     75 C         -47.4915  -23.2255    7.6753 C.2       2 UNK         0.5006 
     76 O         -47.1800  -22.4054    8.5376 O.2       2 UNK        -0.5106 
     77 CA        -48.9813  -23.4284    7.3358 C.3       2 UNK         0.0296 
     78 CB        -49.4722  -22.3141    6.3975 C.3       2 UNK        -0.2002 
     79 N         -49.3313  -24.7346    6.7559 N.am      2 UNK        -0.4032 
     80 C         -49.1056  -25.9233    7.3331 C.2       1 UNK         0.5000 
     81 O         -48.4630  -26.0561    8.3773 O.2       1 UNK        -0.5238 
     82 H82       -46.0975  -28.4007    5.3841 H         1 UNK         0.0889 
     83 H83       -46.3697  -27.0839    6.5182 H         1 UNK         0.0889 
     84 H84       -47.4299  -27.2932    5.1113 H         1 UNK         0.0889 
     85 H85       -49.5803  -29.0624    7.5071 H         1 UNK         0.3028 
     86 H86       -49.7044  -27.0215    5.5749 H         1 UNK         0.0864 
     87 H87       -51.2912  -27.4090    8.1749 H         1 UNK         0.0720 
     88 H88       -51.7054  -26.2906    6.8953 H         1 UNK         0.0720 
     89 H89       -54.4287  -28.3836    5.4232 H         1 UNK         0.0814 
     90 H90       -53.6311  -26.8346    5.3824 H         1 UNK         0.0814 
     91 H91       -53.6387  -25.3626    7.3767 H         1 UNK         0.1469 
     92 H92       -56.1029  -26.4060   10.6963 H         1 UNK         0.1381 
     93 H93       -55.4636  -29.2378    7.5221 H         1 UNK         0.1206 
     94 H94       -57.6631  -29.1875    9.1978 H         1 UNK         0.0813 
     95 H95       -56.2390  -29.9315    9.8742 H         1 UNK         0.0813 
     96 H96       -58.4697  -30.3375   12.7490 H         1 UNK         0.0638 
     97 H97       -57.4303  -31.0256   11.5362 H         1 UNK         0.0638 
     98 H98       -56.5438  -29.6800   14.1378 H         1 UNK         0.0568 
     99 H99       -55.5580  -33.2947   15.0913 H         1 UNK         0.3450 
    100 H100      -54.5085  -32.0869   14.3878 H         1 UNK         0.3450 
    101 H101      -54.5135  -29.4600   13.3969 H         1 UNK         0.2987 
    102 H102      -52.3701  -31.3428   11.3249 H         1 UNK         0.0766 
    103 H103      -53.3433  -29.7472    9.6469 H         1 UNK         0.0798 
    104 H104      -51.8273  -29.1391   10.2745 H         1 UNK         0.0798 
    105 H105      -53.3488  -28.4674   10.8500 H         1 UNK         0.0798 
    106 H106      -51.7480  -29.0377   12.7611 H         1 UNK         0.3198 
    107 H107      -51.9849  -30.0379   16.1129 H         1 UNK         0.0843 
    108 H108      -49.4393  -29.7065   14.4262 H         1 UNK         0.0831 
    109 H109      -49.8024  -31.0778   15.4647 H         1 UNK         0.0831 
    110 H110      -49.5564  -29.4902   16.1733 H         1 UNK         0.0831 
    111 H111      -50.8816  -27.7384   14.8090 H         1 UNK         0.3133 
    112 H112      -52.8366  -26.0791   13.6090 H         1 UNK         0.0566 
    113 H113      -54.1166  -24.3689   14.9109 H         1 UNK         0.0814 
    114 H114      -55.0311  -25.8511   14.6978 H         1 UNK         0.0814 
    115 H115      -54.2764  -25.5079   16.2481 H         1 UNK         0.0814 
    116 H116      -51.1092  -24.9934   14.4721 H         1 UNK         0.3091 
    117 H117      -49.9667  -24.1657   17.6866 H         1 UNK         0.0702 
    118 H118      -48.8190  -26.3567   17.2616 H         1 UNK         0.0785 
    119 H119      -47.7915  -24.9970   16.8401 H         1 UNK         0.0785 
    120 H120      -48.5967  -25.9198   15.5721 H         1 UNK         0.0785 
    121 H121      -48.8631  -23.4287   15.2238 H         1 UNK         0.2998 
    122 H122      -51.0385  -20.8360   14.2818 H         1 UNK         0.0697 
    123 H123      -48.3814  -20.4801   15.7653 H         1 UNK         0.0825 
    124 H124      -49.9052  -19.7076   16.1677 H         1 UNK         0.0825 
    125 H125      -49.1046  -19.3170   14.6546 H         1 UNK         0.0825 
    126 H126      -49.9472  -21.7121   12.5943 H         1 UNK         0.3029 
    127 H127      -48.0103  -21.9893   11.2204 H         1 UNK         0.0897 
    128 H128      -46.0191  -23.4405   10.8296 H         1 UNK         0.0792 
    129 H129      -45.9677  -23.8589   12.5399 H         1 UNK         0.0792 
    130 H130      -45.6851  -22.2022   12.0281 H         1 UNK         0.0792 
    131 H131      -48.1166  -24.8704   11.8135 H         1 UNK         0.3086 
    132 H132      -50.9453  -25.4141   12.1942 H         1 UNK         0.0583 
    133 H133      -51.6978  -24.7553    9.3275 H         1 UNK         0.1020 
    134 H134      -52.1387  -26.3064    9.9977 H         1 UNK         0.1020 
    135 H135      -55.4487  -23.9836   10.1465 H         1 UNK         0.0694 
    136 H136      -54.1370  -23.7111    9.0263 H         1 UNK         0.0694 
    137 H137      -49.0786  -26.2741   10.0651 H         1 UNK         0.2989 
    138 H138      -48.0647  -28.8452   12.2053 H         1 UNK         0.1055 
    139 H139      -49.4936  -29.4718    9.5714 H         1 UNK         0.0806 
    140 H140      -49.7915  -30.2392   11.1258 H         1 UNK         0.0806 
    141 H141      -48.2534  -30.4751   10.3200 H         1 UNK         0.0806 
    142 H142      -47.1217  -28.4371    9.6162 H         1 UNK         0.3061 
    143 H143      -44.5795  -26.2243   10.7079 H         1 UNK         0.0734 
    144 H144      -43.6902  -27.7180    8.9930 H         1 UNK         0.0832 
    145 H145      -44.5099  -28.7052   10.1872 H         1 UNK         0.0832 
    146 H146      -45.2783  -28.3796    8.6365 H         1 UNK         0.0832 
    147 H147      -46.5980  -25.6952    8.6657 H         1 UNK         0.3156 
    148 H148      -44.8431  -22.9625    7.4784 H         1 UNK         0.0589 
    149 H149      -44.7088  -25.4407    5.6762 H         1 UNK         0.0808 
    150 H150      -44.6938  -23.7650    5.1254 H         1 UNK         0.0808 
    151 H151      -43.3643  -24.3874    6.0848 H         1 UNK         0.0808 
    152 H152      -46.9507  -24.5946    6.2892 H         1 UNK         0.3098 
    153 H153      -49.5297  -23.3390    8.2749 H         1 UNK         0.0720 
    154 H154      -49.2542  -21.3290    6.8130 H         1 UNK         0.0791 
    155 H155      -50.5508  -22.3660    6.2476 H         1 UNK         0.0791 
    156 H156      -48.9919  -22.3686    5.4197 H         1 UNK         0.0791 
    157 H157      -49.8584  -24.7058    5.8942 H         1 UNK         0.3028 
@<TRIPOS>BOND
     1    1    2 1    
     2    1   82 1    
     3    1   83 1    
     4    1   84 1    
     5    2    3 2    
     6    2    4 am   BACKBONE|DICT|INTERRES
     7    4    5 1    
     8    4   85 1    
     9    5    6 1    
    10    5   80 1    
    11    5   86 1    
    12    6    7 1    
    13    6   87 1    
    14    6   88 1    
    15    7    8 1    
    16    8    9 1    
    17    8   89 1    
    18    8   90 1    
    19    9   10 ar   
    20    9   14 ar   
    21   10   11 ar   
    22   10   91 1    
    23   11   12 ar   
    24   11   58 1    
    25   12   13 ar   
    26   12   92 1    
    27   13   14 ar   
    28   13   15 1    
    29   14   93 1    
    30   15   16 1    
    31   15   94 1    
    32   15   95 1    
    33   16   17 1    
    34   17   18 1    
    35   17   96 1    
    36   17   97 1    
    37   18   19 1    
    38   18   22 1    
    39   18   98 1    
    40   19   20 am   BACKBONE|DICT|INTERRES
    41   19   21 2    
    42   20   99 1    
    43   20  100 1    
    44   22   23 am   BACKBONE|DICT|INTERRES
    45   22  101 1    
    46   23   24 2    
    47   23   25 1    
    48   25   26 1    
    49   25   27 1    
    50   25  102 1    
    51   26  103 1    
    52   26  104 1    
    53   26  105 1    
    54   27   28 am   BACKBONE|DICT|INTERRES
    55   27  106 1    
    56   28   29 2    
    57   28   30 1    
    58   30   31 1    
    59   30   32 1    
    60   30  107 1    
    61   31  108 1    
    62   31  109 1    
    63   31  110 1    
    64   32   33 am   BACKBONE|DICT|INTERRES
    65   32  111 1    
    66   33   34 2    
    67   33   35 1    
    68   35   36 1    
    69   35   37 1    
    70   35  112 1    
    71   36  113 1    
    72   36  114 1    
    73   36  115 1    
    74   37   38 am   BACKBONE|DICT|INTERRES
    75   37  116 1    
    76   38   39 2    
    77   38   40 1    
    78   40   41 1    
    79   40   42 1    
    80   40  117 1    
    81   41  118 1    
    82   41  119 1    
    83   41  120 1    
    84   42   43 am   BACKBONE|DICT|INTERRES
    85   42  121 1    
    86   43   44 2    
    87   43   45 1    
    88   45   46 1    
    89   45   47 1    
    90   45  122 1    
    91   46  123 1    
    92   46  124 1    
    93   46  125 1    
    94   47   48 am   BACKBONE|DICT|INTERRES
    95   47  126 1    
    96   48   49 2    
    97   48   50 1    
    98   50   51 1    
    99   50   52 1    
   100   50  127 1    
   101   51  128 1    
   102   51  129 1    
   103   51  130 1    
   104   52   53 am   BACKBONE|DICT|INTERRES
   105   52  131 1    
   106   53   54 2    
   107   53   55 1    
   108   55   56 1    
   109   55   59 1    
   110   55  132 1    
   111   56   57 1    
   112   56  133 1    
   113   56  134 1    
   114   57   58 1    
   115   58  135 1    
   116   58  136 1    
   117   59   60 am   BACKBONE|DICT|INTERRES
   118   59  137 1    
   119   60   61 2    
   120   60   62 1    
   121   62   63 1    
   122   62   64 1    
   123   62  138 1    
   124   63  139 1    
   125   63  140 1    
   126   63  141 1    
   127   64   65 am   BACKBONE|DICT|INTERRES
   128   64  142 1    
   129   65   66 2    
   130   65   67 1    
   131   67   68 1    
   132   67   69 1    
   133   67  143 1    
   134   68  144 1    
   135   68  145 1    
   136   68  146 1    
   137   69   70 am   BACKBONE|DICT|INTERRES
   138   69  147 1    
   139   70   71 2    
   140   70   72 1    
   141   72   73 1    
   142   72   74 1    
   143   72  148 1    
   144   73  149 1    
   145   73  150 1    
   146   73  151 1    
   147   74   75 am   BACKBONE|DICT|INTERRES
   148   74  152 1    
   149   75   76 2    
   150   75   77 1    
   151   77   78 1    
   152   77   79 1    
   153   77  153 1    
   154   78  154 1    
   155   78  155 1    
   156   78  156 1    
   157   79   80 am   BACKBONE|DICT|INTERRES
   158   79  157 1    
   159   80   81 2    
@<TRIPOS>SUBSTRUCTURE
     1 UNK         1 GROUP             0       ****    0 ROOT    
