@<TRIPOS>MOLECULE
3R207
157   159    1
SMALL
USER_CHARGES


@<TRIPOS>ATOM
      1 CA        -44.9913  -28.4940    7.2957 C.3       0 UNK        -0.1975 
      2 C         -46.1315  -27.7832    6.5803 C.2       0 UNK         0.4852 
      3 O         -46.0600  -26.5706    6.3769 O.2       0 UNK        -0.5216 
      4 N         -47.1713  -28.5348    6.1945 N.am      1 UNK        -0.4461 
      5 CA        -48.3392  -28.0676    5.4393 C.3       1 UNK         0.0864 
      6 C6        -49.1723  -29.2473    4.8757 C.3       14 UNK        -0.0898 
      7 S7        -49.6845  -30.4859    6.1171 S.3       14 UNK        -0.2598 
      8 C8        -51.4717  -30.1643    6.3080 C.3       14 UNK         0.0286 
      9 C9        -51.8013  -29.4953    7.6365 C.ar      14 UNK        -0.0844 
     10 C10       -52.4585  -28.2618    7.6779 C.ar      14 UNK        -0.0881 
     11 C11       -52.8072  -27.6762    8.9011 C.ar      14 UNK        -0.0643 
     12 C12       -52.4874  -28.3439   10.0912 C.ar      14 UNK        -0.0930 
     13 C13       -51.8183  -29.5729   10.0641 C.ar      14 UNK        -0.0827 
     14 C14       -51.4872  -30.1419    8.8333 C.ar      14 UNK        -0.1249 
     15 C15       -51.4160  -30.2971   11.3448 C.3       14 UNK         0.0141 
     16 S16       -52.7401  -30.4415   12.5878 S.3       14 UNK        -0.2313 
     17 C17       -54.1234  -31.2240   11.6810 C.3       14 UNK        -0.0915 
     18 CA        -55.4968  -30.5927   12.0397 C.3       13 UNK         0.0968 
     19 C         -55.9581  -31.0081   13.4685 C.2       13 UNK         0.5732 
     20 N         -55.8437  -30.1468   14.4742 N.am      13 UNK        -0.7310 
     21 O         -56.4342  -32.1247   13.6599 O.2       13 UNK        -0.5035 
     22 N         -55.4864  -29.1419   11.8145 N.am      13 UNK        -0.4233 
     23 C         -56.5640  -28.3527   11.7875 C.2       13 UNK         0.4989 
     24 O         -57.7268  -28.7614   11.7955 O.2       13 UNK        -0.4996 
     25 CA        -56.2812  -26.8412   11.7977 C.3       12 UNK         0.0216 
     26 CB        -57.2370  -26.0716   10.8693 C.3       12 UNK        -0.1964 
     27 N         -56.3605  -26.2847   13.1512 N.am      12 UNK        -0.4276 
     28 C         -55.5298  -26.5883   14.1572 C.2       12 UNK         0.5020 
     29 O         -54.6042  -27.3988   14.0662 O.2       12 UNK        -0.5489 
     30 CA        -55.7944  -25.9070   15.5067 C.3       11 UNK         0.0294 
     31 CB        -56.4522  -26.8927   16.4855 C.3       11 UNK        -0.2019 
     32 N         -54.5280  -25.4456   16.0702 N.am      11 UNK        -0.4493 
     33 C         -53.9405  -24.2811   15.7744 C.2       11 UNK         0.4932 
     34 O         -54.4811  -23.3947   15.1119 O.2       11 UNK        -0.5029 
     35 CA        -52.5028  -24.0673   16.2805 C.3       10 UNK         0.0280 
     36 CB        -52.4700  -23.6717   17.7697 C.3       10 UNK        -0.1976 
     37 N         -51.6064  -25.1910   15.9800 N.am      10 UNK        -0.4242 
     38 C         -51.5888  -26.4258   16.5012 C.2       10 UNK         0.5072 
     39 O         -52.3464  -26.8052   17.3960 O.2       10 UNK        -0.5224 
     40 CA        -50.5859  -27.4250   15.9000 C.3       9 UNK         0.0343 
     41 CB        -51.2497  -28.2096   14.7615 C.3       9 UNK        -0.2003 
     42 N         -49.3551  -26.8061   15.4010 N.am      9 UNK        -0.4272 
     43 C         -48.3883  -26.3036   16.1821 C.2       9 UNK         0.4988 
     44 O         -48.4230  -26.3204   17.4132 O.2       9 UNK        -0.5108 
     45 CA        -47.1752  -25.6754   15.4732 C.3       8 UNK         0.0248 
     46 CB        -46.2008  -26.7611   14.9879 C.3       8 UNK        -0.2001 
     47 N         -47.5579  -24.8146   14.3518 N.am      8 UNK        -0.4140 
     48 C         -48.2146  -23.6523   14.4840 C.2       8 UNK         0.5028 
     49 O         -48.5023  -23.1446   15.5684 O.2       8 UNK        -0.5428 
     50 CA        -48.6505  -22.9444   13.1902 C.3       7 UNK         0.0264 
     51 CB        -47.4995  -22.1025   12.6170 C.3       7 UNK        -0.1988 
     52 N         -49.1431  -23.8700   12.1671 N.am      7 UNK        -0.4454 
     53 C         -50.2220  -24.6547   12.3020 C.2       7 UNK         0.5027 
     54 O         -50.9419  -24.6495   13.2990 O.2       7 UNK        -0.5083 
     55 CA        -50.5142  -25.6539   11.1657 C.3       6 UNK         0.0844 
     56 C56       -51.2959  -25.0126    9.9930 C.3       14 UNK        -0.0967 
     57 S57       -53.0956  -25.1783   10.2271 S.3       14 UNK        -0.2604 
     58 C58       -53.5647  -26.3467    8.9009 C.3       14 UNK         0.0134 
     59 N         -49.3073  -26.3357   10.7054 N.am      6 UNK        -0.4116 
     60 C         -48.5748  -27.1710   11.4507 C.2       5 UNK         0.5034 
     61 O         -48.8463  -27.4872   12.6086 O.2       5 UNK        -0.5045 
     62 CA        -47.2874  -27.6958   10.8039 C.3       5 UNK         0.0224 
     63 CB        -47.5826  -28.9104    9.9085 C.3       5 UNK        -0.1978 
     64 N         -46.5880  -26.6439   10.0532 N.am      5 UNK        -0.4737 
     65 C         -45.9876  -25.6012   10.6468 C.2       4 UNK         0.5027 
     66 O         -45.9580  -25.4378   11.8669 O.2       4 UNK        -0.5211 
     67 CA        -45.3353  -24.5473    9.7370 C.3       4 UNK         0.0297 
     68 CB        -43.9456  -25.0114    9.2734 C.3       4 UNK        -0.1993 
     69 N         -46.1388  -24.1625    8.5727 N.am      4 UNK        -0.4486 
     70 C         -47.3563  -23.6062    8.6250 C.2       3 UNK         0.4961 
     71 O         -48.0059  -23.4794    9.6609 O.2       3 UNK        -0.5105 
     72 CA        -47.9788  -23.1257    7.3107 C.3       3 UNK         0.0299 
     73 CB        -46.9715  -22.9197    6.1592 C.3       3 UNK        -0.1972 
     74 N         -48.9747  -24.1138    6.9400 N.am      3 UNK        -0.4305 
     75 C         -50.0627  -23.9367    6.1894 C.2       2 UNK         0.5006 
     76 O         -50.4000  -22.8517    5.7130 O.2       2 UNK        -0.5106 
     77 CA        -50.8890  -25.2114    5.9070 C.3       2 UNK         0.0296 
     78 CB        -52.0219  -24.9777    4.8909 C.3       2 UNK        -0.2002 
     79 N         -50.0529  -26.3264    5.4457 N.am      2 UNK        -0.4032 
     80 C         -49.2095  -27.0462    6.2021 C.2       1 UNK         0.5000 
     81 O         -49.0817  -26.8787    7.4209 O.2       1 UNK        -0.5238 
     82 H82       -44.0558  -28.3256    6.7631 H         1 UNK         0.0889 
     83 H83       -45.1557  -29.5699    7.3541 H         1 UNK         0.0889 
     84 H84       -44.8760  -28.1141    8.3093 H         1 UNK         0.0889 
     85 H85       -47.1938  -29.5154    6.4356 H         1 UNK         0.3028 
     86 H86       -47.9365  -27.5251    4.5808 H         1 UNK         0.0864 
     87 H87       -50.0370  -28.8912    4.3140 H         1 UNK         0.0720 
     88 H88       -48.5665  -29.7785    4.1398 H         1 UNK         0.0720 
     89 H89       -51.9972  -31.1193    6.2663 H         1 UNK         0.0814 
     90 H90       -51.8521  -29.5794    5.4701 H         1 UNK         0.0814 
     91 H91       -52.7141  -27.7635    6.7530 H         1 UNK         0.1469 
     92 H92       -52.7556  -27.9079   11.0423 H         1 UNK         0.1381 
     93 H93       -50.9770  -31.0950    8.8008 H         1 UNK         0.1206 
     94 H94       -51.0530  -31.3015   11.1219 H         1 UNK         0.0813 
     95 H95       -50.5781  -29.7624   11.7939 H         1 UNK         0.0813 
     96 H96       -53.9557  -31.1315   10.6077 H         1 UNK         0.0638 
     97 H97       -54.1181  -32.2957   11.8874 H         1 UNK         0.0638 
     98 H98       -56.2337  -31.0137   11.3533 H         1 UNK         0.0568 
     99 H99       -55.4020  -29.2463   14.3229 H         1 UNK         0.3450 
    100 H100      -56.1429  -30.4201   15.3958 H         1 UNK         0.3450 
    101 H101      -54.5784  -28.7098   11.9049 H         1 UNK         0.2987 
    102 H102      -55.2653  -26.6832   11.4342 H         1 UNK         0.0766 
    103 H103      -56.9630  -25.0183   10.8048 H         1 UNK         0.0798 
    104 H104      -58.2715  -26.1309   11.2103 H         1 UNK         0.0798 
    105 H105      -57.2044  -26.4754    9.8565 H         1 UNK         0.0798 
    106 H106      -57.1172  -25.6390   13.3255 H         1 UNK         0.3198 
    107 H107      -56.4642  -25.0560   15.3645 H         1 UNK         0.0843 
    108 H108      -55.8177  -27.7604   16.6721 H         1 UNK         0.0831 
    109 H109      -57.4005  -27.2609   16.0916 H         1 UNK         0.0831 
    110 H110      -56.6609  -26.4187   17.4447 H         1 UNK         0.0831 
    111 H111      -53.9725  -26.1295   16.5768 H         1 UNK         0.3133 
    112 H112      -52.0954  -23.2270   15.7159 H         1 UNK         0.0566 
    113 H113      -51.4503  -23.4811   18.1049 H         1 UNK         0.0814 
    114 H114      -53.0438  -22.7599   17.9392 H         1 UNK         0.0814 
    115 H115      -52.8960  -24.4431   18.4115 H         1 UNK         0.0814 
    116 H116      -51.0320  -25.0394   15.1539 H         1 UNK         0.3091 
    117 H117      -50.3148  -28.1326   16.6863 H         1 UNK         0.0702 
    118 H118      -52.1608  -28.7019   15.1049 H         1 UNK         0.0785 
    119 H119      -50.5874  -28.9836   14.3739 H         1 UNK         0.0785 
    120 H120      -51.5285  -27.5599   13.9305 H         1 UNK         0.0785 
    121 H121      -49.2175  -26.8159   14.3938 H         1 UNK         0.2998 
    122 H122      -46.6500  -25.0558   16.2032 H         1 UNK         0.0697 
    123 H123      -46.6534  -27.4056   14.2340 H         1 UNK         0.0825 
    124 H124      -45.8831  -27.3981   15.8143 H         1 UNK         0.0825 
    125 H125      -45.3030  -26.3212   14.5533 H         1 UNK         0.0825 
    126 H126      -47.2983  -25.1280   13.4217 H         1 UNK         0.3029 
    127 H127      -49.4714  -22.2709   13.4456 H         1 UNK         0.0897 
    128 H128      -47.8237  -21.5272   11.7495 H         1 UNK         0.0792 
    129 H129      -46.6589  -22.7253   12.3090 H         1 UNK         0.0792 
    130 H130      -47.1278  -21.3925   13.3570 H         1 UNK         0.0792 
    131 H131      -48.6334  -23.8832   11.2835 H         1 UNK         0.3086 
    132 H132      -51.1295  -26.4365   11.6112 H         1 UNK         0.0583 
    133 H133      -51.0383  -23.9608    9.8509 H         1 UNK         0.1020 
    134 H134      -51.0298  -25.5027    9.0579 H         1 UNK         0.1020 
    135 H135      -54.6300  -26.5607    8.9907 H         1 UNK         0.0694 
    136 H136      -53.4402  -25.8374    7.9446 H         1 UNK         0.0694 
    137 H137      -49.0072  -26.1536    9.7583 H         1 UNK         0.2989 
    138 H138      -46.6316  -28.0279   11.6123 H         1 UNK         0.1055 
    139 H139      -48.1095  -29.6841   10.4688 H         1 UNK         0.0806 
    140 H140      -46.6655  -29.3609    9.5321 H         1 UNK         0.0806 
    141 H141      -48.2112  -28.6529    9.0567 H         1 UNK         0.0806 
    142 H142      -46.6195  -26.6805    9.0438 H         1 UNK         0.3061 
    143 H143      -45.2000  -23.6480   10.3416 H         1 UNK         0.0734 
    144 H144      -43.4084  -24.2083    8.7687 H         1 UNK         0.0832 
    145 H145      -43.3337  -25.3239   10.1210 H         1 UNK         0.0832 
    146 H146      -44.0072  -25.8548    8.5857 H         1 UNK         0.0832 
    147 H147      -45.7171  -24.3009    7.6643 H         1 UNK         0.3156 
    148 H148      -48.4745  -22.1752    7.5183 H         1 UNK         0.0589 
    149 H149      -46.5211  -23.8578    5.8325 H         1 UNK         0.0808 
    150 H150      -47.4592  -22.4744    5.2918 H         1 UNK         0.0808 
    151 H151      -46.1676  -22.2437    6.4538 H         1 UNK         0.0808 
    152 H152      -48.8109  -25.0563    7.2894 H         1 UNK         0.3098 
    153 H153      -51.3531  -25.5048    6.8471 H         1 UNK         0.0720 
    154 H154      -52.6169  -25.8793    4.7440 H         1 UNK         0.0791 
    155 H155      -51.6353  -24.6671    3.9194 H         1 UNK         0.0791 
    156 H156      -52.7020  -24.1978    5.2363 H         1 UNK         0.0791 
    157 H157      -50.0672  -26.4977    4.4505 H         1 UNK         0.3028 
@<TRIPOS>BOND
     1    1    2 1    
     2    1   82 1    
     3    1   83 1    
     4    1   84 1    
     5    2    3 2    
     6    2    4 am   BACKBONE|DICT|INTERRES
     7    4    5 1    
     8    4   85 1    
     9    5    6 1    
    10    5   80 1    
    11    5   86 1    
    12    6    7 1    
    13    6   87 1    
    14    6   88 1    
    15    7    8 1    
    16    8    9 1    
    17    8   89 1    
    18    8   90 1    
    19    9   10 ar   
    20    9   14 ar   
    21   10   11 ar   
    22   10   91 1    
    23   11   12 ar   
    24   11   58 1    
    25   12   13 ar   
    26   12   92 1    
    27   13   14 ar   
    28   13   15 1    
    29   14   93 1    
    30   15   16 1    
    31   15   94 1    
    32   15   95 1    
    33   16   17 1    
    34   17   18 1    
    35   17   96 1    
    36   17   97 1    
    37   18   19 1    
    38   18   22 1    
    39   18   98 1    
    40   19   20 am   BACKBONE|DICT|INTERRES
    41   19   21 2    
    42   20   99 1    
    43   20  100 1    
    44   22   23 am   BACKBONE|DICT|INTERRES
    45   22  101 1    
    46   23   24 2    
    47   23   25 1    
    48   25   26 1    
    49   25   27 1    
    50   25  102 1    
    51   26  103 1    
    52   26  104 1    
    53   26  105 1    
    54   27   28 am   BACKBONE|DICT|INTERRES
    55   27  106 1    
    56   28   29 2    
    57   28   30 1    
    58   30   31 1    
    59   30   32 1    
    60   30  107 1    
    61   31  108 1    
    62   31  109 1    
    63   31  110 1    
    64   32   33 am   BACKBONE|DICT|INTERRES
    65   32  111 1    
    66   33   34 2    
    67   33   35 1    
    68   35   36 1    
    69   35   37 1    
    70   35  112 1    
    71   36  113 1    
    72   36  114 1    
    73   36  115 1    
    74   37   38 am   BACKBONE|DICT|INTERRES
    75   37  116 1    
    76   38   39 2    
    77   38   40 1    
    78   40   41 1    
    79   40   42 1    
    80   40  117 1    
    81   41  118 1    
    82   41  119 1    
    83   41  120 1    
    84   42   43 am   BACKBONE|DICT|INTERRES
    85   42  121 1    
    86   43   44 2    
    87   43   45 1    
    88   45   46 1    
    89   45   47 1    
    90   45  122 1    
    91   46  123 1    
    92   46  124 1    
    93   46  125 1    
    94   47   48 am   BACKBONE|DICT|INTERRES
    95   47  126 1    
    96   48   49 2    
    97   48   50 1    
    98   50   51 1    
    99   50   52 1    
   100   50  127 1    
   101   51  128 1    
   102   51  129 1    
   103   51  130 1    
   104   52   53 am   BACKBONE|DICT|INTERRES
   105   52  131 1    
   106   53   54 2    
   107   53   55 1    
   108   55   56 1    
   109   55   59 1    
   110   55  132 1    
   111   56   57 1    
   112   56  133 1    
   113   56  134 1    
   114   57   58 1    
   115   58  135 1    
   116   58  136 1    
   117   59   60 am   BACKBONE|DICT|INTERRES
   118   59  137 1    
   119   60   61 2    
   120   60   62 1    
   121   62   63 1    
   122   62   64 1    
   123   62  138 1    
   124   63  139 1    
   125   63  140 1    
   126   63  141 1    
   127   64   65 am   BACKBONE|DICT|INTERRES
   128   64  142 1    
   129   65   66 2    
   130   65   67 1    
   131   67   68 1    
   132   67   69 1    
   133   67  143 1    
   134   68  144 1    
   135   68  145 1    
   136   68  146 1    
   137   69   70 am   BACKBONE|DICT|INTERRES
   138   69  147 1    
   139   70   71 2    
   140   70   72 1    
   141   72   73 1    
   142   72   74 1    
   143   72  148 1    
   144   73  149 1    
   145   73  150 1    
   146   73  151 1    
   147   74   75 am   BACKBONE|DICT|INTERRES
   148   74  152 1    
   149   75   76 2    
   150   75   77 1    
   151   77   78 1    
   152   77   79 1    
   153   77  153 1    
   154   78  154 1    
   155   78  155 1    
   156   78  156 1    
   157   79   80 am   BACKBONE|DICT|INTERRES
   158   79  157 1    
   159   80   81 2    
@<TRIPOS>SUBSTRUCTURE
     1 UNK         1 GROUP             0       ****    0 ROOT    
