@<TRIPOS>MOLECULE
3R207
157   159    1
SMALL
USER_CHARGES


@<TRIPOS>ATOM
      1 CA        -47.0098  -30.1083   10.5393 C.3       0 UNK        -0.1975 
      2 C         -47.7286  -29.5105    9.3400 C.2       0 UNK         0.4852 
      3 O         -47.7050  -28.2918    9.1787 O.2       0 UNK        -0.5216 
      4 N         -48.3233  -30.3647    8.4927 N.am      1 UNK        -0.4461 
      5 CA        -49.2123  -30.1321    7.3333 C.3       1 UNK         0.0864 
      6 C6        -50.6888  -29.8862    7.7471 C.3       14 UNK        -0.0898 
      7 S7        -51.1082  -28.2024    8.3276 S.3       14 UNK        -0.2598 
      8 C8        -52.4644  -27.7728    7.1854 C.3       14 UNK         0.0286 
      9 C9        -53.4332  -26.7597    7.7810 C.ar      14 UNK        -0.0844 
     10 C10       -53.5617  -25.4810    7.2279 C.ar      14 UNK        -0.0881 
     11 C11       -54.4984  -24.5750    7.7385 C.ar      14 UNK        -0.0643 
     12 C12       -55.3007  -24.9524    8.8206 C.ar      14 UNK        -0.0930 
     13 C13       -55.1881  -26.2306    9.3747 C.ar      14 UNK        -0.0827 
     14 C14       -54.2545  -27.1285    8.8504 C.ar      14 UNK        -0.1249 
     15 C15       -56.1083  -26.6690   10.5024 C.3       14 UNK         0.0141 
     16 S16       -55.2392  -26.7264   12.0981 S.3       14 UNK        -0.2313 
     17 C17       -56.4448  -27.6615   13.1032 C.3       14 UNK        -0.0915 
     18 CA        -56.0633  -29.1513   13.3208 C.3       13 UNK         0.0968 
     19 C         -56.1591  -29.9869   12.0079 C.2       13 UNK         0.5732 
     20 N         -55.0683  -30.5164   11.4633 N.am      13 UNK        -0.7310 
     21 O         -57.2536  -30.1638   11.4785 O.2       13 UNK        -0.5035 
     22 N         -54.7908  -29.2797   14.0416 N.am      13 UNK        -0.4233 
     23 C         -54.3619  -30.3935   14.6485 C.2       13 UNK         0.4989 
     24 O         -55.0602  -31.3974   14.8025 O.2       13 UNK        -0.4996 
     25 CA        -52.9075  -30.3862   15.1607 C.3       12 UNK         0.0216 
     26 CB        -52.2850  -31.7980   15.2010 C.3       12 UNK        -0.1964 
     27 N         -52.0314  -29.4565   14.4333 N.am      12 UNK        -0.4276 
     28 C         -51.7272  -29.4666   13.1252 C.2       12 UNK         0.5020 
     29 O         -52.1932  -30.2767   12.3226 O.2       12 UNK        -0.5489 
     30 CA        -50.7768  -28.3673   12.6139 C.3       11 UNK         0.0294 
     31 CB        -51.5696  -27.2981   11.8437 C.3       11 UNK        -0.2019 
     32 N         -50.0054  -27.7166   13.6787 N.am      11 UNK        -0.4493 
     33 C         -48.9901  -28.2802   14.3500 C.2       11 UNK         0.4932 
     34 O         -48.5611  -29.4088   14.1114 O.2       11 UNK        -0.5029 
     35 CA        -48.3639  -27.4715   15.4980 C.3       10 UNK         0.0280 
     36 CB        -47.2481  -26.5459   14.9867 C.3       10 UNK        -0.1976 
     37 N         -49.3660  -26.6717   16.2065 N.am      10 UNK        -0.4242 
     38 C         -49.7948  -26.9082   17.4547 C.2       10 UNK         0.5072 
     39 O         -49.3694  -27.8192   18.1664 O.2       10 UNK        -0.5224 
     40 CA        -50.8826  -25.9736   18.0224 C.3       9 UNK         0.0343 
     41 CB        -50.2415  -24.8504   18.8535 C.3       9 UNK        -0.2003 
     42 N         -51.7503  -25.3789   17.0029 N.am      9 UNK        -0.4272 
     43 C         -52.5867  -26.0686   16.2156 C.2       9 UNK         0.4988 
     44 O         -52.7614  -27.2831   16.3020 O.2       9 UNK        -0.5108 
     45 CA        -53.3206  -25.2912   15.1099 C.3       8 UNK         0.0248 
     46 CB        -54.7214  -24.8751   15.5843 C.3       8 UNK        -0.2001 
     47 N         -52.6141  -24.1181   14.5770 N.am      8 UNK        -0.4140 
     48 C         -51.3624  -24.0981   14.0976 C.2       8 UNK         0.5028 
     49 O         -50.5963  -25.0635   14.1334 O.2       8 UNK        -0.5428 
     50 CA        -50.8848  -22.7803   13.4716 C.3       7 UNK         0.0264 
     51 CB        -49.4401  -22.4570   13.8921 C.3       7 UNK        -0.1988 
     52 N         -50.9730  -22.8475   12.0102 N.am      7 UNK        -0.4454 
     53 C         -52.1271  -22.7686   11.3242 C.2       7 UNK         0.5027 
     54 O         -53.2137  -22.5993   11.8813 O.2       7 UNK        -0.5083 
     55 CA        -52.0847  -22.8599    9.7806 C.3       6 UNK         0.0844 
     56 C56       -53.1599  -21.9496    9.1230 C.3       14 UNK        -0.0967 
     57 S57       -53.2378  -22.1178    7.3071 S.3       14 UNK        -0.2604 
     58 C58       -54.6812  -23.2066    7.0922 C.3       14 UNK         0.0134 
     59 N         -50.7355  -22.5851    9.2792 N.am      6 UNK        -0.4116 
     60 C         -50.0731  -23.3261    8.3821 C.2       5 UNK         0.5034 
     61 O         -50.5371  -24.3106    7.8085 O.2       5 UNK        -0.5045 
     62 CA        -48.6088  -22.9431    8.1057 C.3       5 UNK         0.0224 
     63 CB        -48.2802  -21.4505    8.3414 C.3       5 UNK        -0.1978 
     64 N         -47.7191  -23.8225    8.8695 N.am      5 UNK        -0.4737 
     65 C         -47.6908  -23.9651   10.2040 C.2       4 UNK         0.5027 
     66 O         -48.3006  -23.2250   10.9756 O.2       4 UNK        -0.5211 
     67 CA        -46.9203  -25.1599   10.7904 C.3       4 UNK         0.0297 
     68 CB        -47.9077  -26.1053   11.4911 C.3       4 UNK        -0.1993 
     69 N         -46.1764  -25.9223    9.7862 N.am      4 UNK        -0.4486 
     70 C         -44.9855  -25.5635    9.2889 C.2       3 UNK         0.4961 
     71 O         -44.3561  -24.5754    9.6679 O.2       3 UNK        -0.5105 
     72 CA        -44.3987  -26.4391    8.1672 C.3       3 UNK         0.0299 
     73 CB        -43.5089  -27.5416    8.7637 C.3       3 UNK        -0.1972 
     74 N         -45.3988  -27.0522    7.2867 N.am      3 UNK        -0.4305 
     75 C         -46.2756  -26.3916    6.5135 C.2       2 UNK         0.5006 
     76 O         -46.3830  -25.1660    6.4844 O.2       2 UNK        -0.5106 
     77 CA        -47.2085  -27.2549    5.6565 C.3       2 UNK         0.0296 
     78 CB        -46.4522  -27.8406    4.4465 C.3       2 UNK        -0.2002 
     79 N         -47.7813  -28.2980    6.5021 N.am      2 UNK        -0.4032 
     80 C         -48.7356  -29.1800    6.2049 C.2       1 UNK         0.5000 
     81 O         -49.2424  -29.2822    5.0856 O.2       1 UNK        -0.5238 
     82 H82       -47.4426  -29.7210   11.4616 H         1 UNK         0.0889 
     83 H83       -45.9549  -29.8368   10.5189 H         1 UNK         0.0889 
     84 H84       -47.0821  -31.1954   10.5618 H         1 UNK         0.0889 
     85 H85       -48.2109  -31.3473    8.7006 H         1 UNK         0.3028 
     86 H86       -49.2110  -31.1080    6.8445 H         1 UNK         0.0864 
     87 H87       -50.9695  -30.5833    8.5380 H         1 UNK         0.0720 
     88 H88       -51.3317  -30.1457    6.9048 H         1 UNK         0.0720 
     89 H89       -53.0359  -28.6662    6.9311 H         1 UNK         0.0814 
     90 H90       -52.0350  -27.4052    6.2521 H         1 UNK         0.0814 
     91 H91       -52.9385  -25.1884    6.3938 H         1 UNK         0.1469 
     92 H92       -56.0312  -24.2600    9.2158 H         1 UNK         0.1381 
     93 H93       -54.1720  -28.1216    9.2717 H         1 UNK         0.1206 
     94 H94       -56.5115  -27.6536   10.2634 H         1 UNK         0.0813 
     95 H95       -56.9656  -25.9995   10.5870 H         1 UNK         0.0813 
     96 H96       -57.4384  -27.5800   12.6588 H         1 UNK         0.0638 
     97 H97       -56.5206  -27.1632   14.0706 H         1 UNK         0.0638 
     98 H98       -56.8284  -29.5701   13.9771 H         1 UNK         0.0568 
     99 H99       -55.1584  -31.0578   10.6195 H         1 UNK         0.3450 
    100 H100      -54.1512  -30.3820   11.8767 H         1 UNK         0.3450 
    101 H101      -54.1530  -28.5038   13.9529 H         1 UNK         0.2987 
    102 H102      -52.9544  -30.0184   16.1866 H         1 UNK         0.0766 
    103 H103      -52.8500  -32.4585   15.8598 H         1 UNK         0.0798 
    104 H104      -51.2613  -31.7689   15.5746 H         1 UNK         0.0798 
    105 H105      -52.2684  -32.2601   14.2134 H         1 UNK         0.0798 
    106 H106      -51.6652  -28.6964   14.9938 H         1 UNK         0.3198 
    107 H107      -50.0777  -28.8391   11.9198 H         1 UNK         0.0843 
    108 H108      -52.2276  -26.7308   12.4984 H         1 UNK         0.0831 
    109 H109      -52.1961  -27.7506   11.0740 H         1 UNK         0.0831 
    110 H110      -50.9115  -26.5886   11.3440 H         1 UNK         0.0831 
    111 H111      -50.2544  -26.7483   13.8853 H         1 UNK         0.3133 
    112 H112      -47.9039  -28.1927   16.1766 H         1 UNK         0.0566 
    113 H113      -46.6829  -26.1228   15.8171 H         1 UNK         0.0814 
    114 H114      -47.6447  -25.7146   14.4047 H         1 UNK         0.0814 
    115 H115      -46.5406  -27.0876   14.3575 H         1 UNK         0.0814 
    116 H116      -49.7991  -25.9215   15.6747 H         1 UNK         0.3091 
    117 H117      -51.5119  -26.5722   18.6845 H         1 UNK         0.0702 
    118 H118      -50.9981  -24.2316   19.3364 H         1 UNK         0.0785 
    119 H119      -49.6155  -24.2009   18.2400 H         1 UNK         0.0785 
    120 H120      -49.6098  -25.2609   19.6427 H         1 UNK         0.0785 
    121 H121      -51.6696  -24.3833   16.8577 H         1 UNK         0.2998 
    122 H122      -53.4455  -25.9851   14.2799 H         1 UNK         0.0697 
    123 H123      -54.6746  -24.1299   16.3793 H         1 UNK         0.0825 
    124 H124      -55.2740  -25.7325   15.9718 H         1 UNK         0.0825 
    125 H125      -55.3094  -24.4603   14.7652 H         1 UNK         0.0825 
    126 H126      -53.1720  -23.2838   14.4585 H         1 UNK         0.3029 
    127 H127      -51.5216  -21.9666   13.8258 H         1 UNK         0.0897 
    128 H128      -48.7427  -23.2406   13.5932 H         1 UNK         0.0792 
    129 H129      -49.3638  -22.3530   14.9750 H         1 UNK         0.0792 
    130 H130      -49.0978  -21.5215   13.4497 H         1 UNK         0.0792 
    131 H131      -50.0984  -23.0307   11.5214 H         1 UNK         0.3086 
    132 H132      -52.3418  -23.8979    9.5596 H         1 UNK         0.0583 
    133 H133      -54.1502  -22.1613    9.5305 H         1 UNK         0.1020 
    134 H134      -52.9604  -20.9023    9.3566 H         1 UNK         0.1020 
    135 H135      -55.5662  -22.7042    7.4858 H         1 UNK         0.0694 
    136 H136      -54.8597  -23.3416    6.0246 H         1 UNK         0.0694 
    137 H137      -50.2471  -21.8166    9.7157 H         1 UNK         0.2989 
    138 H138      -48.4285  -23.1572    7.0507 H         1 UNK         0.1055 
    139 H139      -48.3605  -21.1548    9.3873 H         1 UNK         0.0806 
    140 H140      -48.9491  -20.8095    7.7655 H         1 UNK         0.0806 
    141 H141      -47.2643  -21.2239    8.0178 H         1 UNK         0.0806 
    142 H142      -47.1875  -24.4794    8.3088 H         1 UNK         0.3061 
    143 H143      -46.2243  -24.7716   11.5368 H         1 UNK         0.0734 
    144 H144      -48.6390  -26.5068   10.7900 H         1 UNK         0.0832 
    145 H145      -47.3960  -26.9462   11.9580 H         1 UNK         0.0832 
    146 H146      -48.4701  -25.5846   12.2664 H         1 UNK         0.0832 
    147 H147      -46.6345  -26.7613    9.4361 H         1 UNK         0.3156 
    148 H148      -43.7724  -25.7948    7.5466 H         1 UNK         0.0589 
    149 H149      -44.0854  -28.2418    9.3698 H         1 UNK         0.0808 
    150 H150      -42.7366  -27.1152    9.4057 H         1 UNK         0.0808 
    151 H151      -43.0006  -28.1092    7.9840 H         1 UNK         0.0808 
    152 H152      -45.3795  -28.0598    7.2269 H         1 UNK         0.3098 
    153 H153      -48.0227  -26.6218    5.2983 H         1 UNK         0.0720 
    154 H154      -45.9549  -27.0523    3.8796 H         1 UNK         0.0791 
    155 H155      -47.1272  -28.3483    3.7580 H         1 UNK         0.0791 
    156 H156      -45.6880  -28.5559    4.7522 H         1 UNK         0.0791 
    157 H157      -47.5608  -28.2313    7.4974 H         1 UNK         0.3028 
@<TRIPOS>BOND
     1    1    2 1    
     2    1   82 1    
     3    1   83 1    
     4    1   84 1    
     5    2    3 2    
     6    2    4 am   BACKBONE|DICT|INTERRES
     7    4    5 1    
     8    4   85 1    
     9    5    6 1    
    10    5   80 1    
    11    5   86 1    
    12    6    7 1    
    13    6   87 1    
    14    6   88 1    
    15    7    8 1    
    16    8    9 1    
    17    8   89 1    
    18    8   90 1    
    19    9   10 ar   
    20    9   14 ar   
    21   10   11 ar   
    22   10   91 1    
    23   11   12 ar   
    24   11   58 1    
    25   12   13 ar   
    26   12   92 1    
    27   13   14 ar   
    28   13   15 1    
    29   14   93 1    
    30   15   16 1    
    31   15   94 1    
    32   15   95 1    
    33   16   17 1    
    34   17   18 1    
    35   17   96 1    
    36   17   97 1    
    37   18   19 1    
    38   18   22 1    
    39   18   98 1    
    40   19   20 am   BACKBONE|DICT|INTERRES
    41   19   21 2    
    42   20   99 1    
    43   20  100 1    
    44   22   23 am   BACKBONE|DICT|INTERRES
    45   22  101 1    
    46   23   24 2    
    47   23   25 1    
    48   25   26 1    
    49   25   27 1    
    50   25  102 1    
    51   26  103 1    
    52   26  104 1    
    53   26  105 1    
    54   27   28 am   BACKBONE|DICT|INTERRES
    55   27  106 1    
    56   28   29 2    
    57   28   30 1    
    58   30   31 1    
    59   30   32 1    
    60   30  107 1    
    61   31  108 1    
    62   31  109 1    
    63   31  110 1    
    64   32   33 am   BACKBONE|DICT|INTERRES
    65   32  111 1    
    66   33   34 2    
    67   33   35 1    
    68   35   36 1    
    69   35   37 1    
    70   35  112 1    
    71   36  113 1    
    72   36  114 1    
    73   36  115 1    
    74   37   38 am   BACKBONE|DICT|INTERRES
    75   37  116 1    
    76   38   39 2    
    77   38   40 1    
    78   40   41 1    
    79   40   42 1    
    80   40  117 1    
    81   41  118 1    
    82   41  119 1    
    83   41  120 1    
    84   42   43 am   BACKBONE|DICT|INTERRES
    85   42  121 1    
    86   43   44 2    
    87   43   45 1    
    88   45   46 1    
    89   45   47 1    
    90   45  122 1    
    91   46  123 1    
    92   46  124 1    
    93   46  125 1    
    94   47   48 am   BACKBONE|DICT|INTERRES
    95   47  126 1    
    96   48   49 2    
    97   48   50 1    
    98   50   51 1    
    99   50   52 1    
   100   50  127 1    
   101   51  128 1    
   102   51  129 1    
   103   51  130 1    
   104   52   53 am   BACKBONE|DICT|INTERRES
   105   52  131 1    
   106   53   54 2    
   107   53   55 1    
   108   55   56 1    
   109   55   59 1    
   110   55  132 1    
   111   56   57 1    
   112   56  133 1    
   113   56  134 1    
   114   57   58 1    
   115   58  135 1    
   116   58  136 1    
   117   59   60 am   BACKBONE|DICT|INTERRES
   118   59  137 1    
   119   60   61 2    
   120   60   62 1    
   121   62   63 1    
   122   62   64 1    
   123   62  138 1    
   124   63  139 1    
   125   63  140 1    
   126   63  141 1    
   127   64   65 am   BACKBONE|DICT|INTERRES
   128   64  142 1    
   129   65   66 2    
   130   65   67 1    
   131   67   68 1    
   132   67   69 1    
   133   67  143 1    
   134   68  144 1    
   135   68  145 1    
   136   68  146 1    
   137   69   70 am   BACKBONE|DICT|INTERRES
   138   69  147 1    
   139   70   71 2    
   140   70   72 1    
   141   72   73 1    
   142   72   74 1    
   143   72  148 1    
   144   73  149 1    
   145   73  150 1    
   146   73  151 1    
   147   74   75 am   BACKBONE|DICT|INTERRES
   148   74  152 1    
   149   75   76 2    
   150   75   77 1    
   151   77   78 1    
   152   77   79 1    
   153   77  153 1    
   154   78  154 1    
   155   78  155 1    
   156   78  156 1    
   157   79   80 am   BACKBONE|DICT|INTERRES
   158   79  157 1    
   159   80   81 2    
@<TRIPOS>SUBSTRUCTURE
     1 UNK         1 GROUP             0       ****    0 ROOT    
