@<TRIPOS>MOLECULE
3R207
157   159    1
SMALL
USER_CHARGES


@<TRIPOS>ATOM
      1 CA        -44.7778  -30.7649    4.6388 C.3       0 UNK        -0.1975 
      2 C         -46.0926  -30.0604    4.3393 C.2       0 UNK         0.4852 
      3 O         -46.3115  -29.6277    3.2074 O.2       0 UNK        -0.5216 
      4 N         -46.9679  -29.9400    5.3464 N.am      1 UNK        -0.4461 
      5 CA        -48.2760  -29.2767    5.2555 C.3       1 UNK         0.0864 
      6 C6        -49.2202  -29.7239    6.4008 C.3       14 UNK        -0.0898 
      7 S7        -48.5411  -29.4164    8.0695 S.3       14 UNK        -0.2598 
      8 C8        -49.7151  -30.3178    9.1399 C.3       14 UNK         0.0286 
      9 C9        -51.0692  -29.6452    9.3824 C.ar      14 UNK        -0.0844 
     10 C10       -51.4574  -28.4535    8.7548 C.ar      14 UNK        -0.0881 
     11 C11       -52.7070  -27.8836    9.0083 C.ar      14 UNK        -0.0643 
     12 C12       -53.5817  -28.5118    9.8977 C.ar      14 UNK        -0.0930 
     13 C13       -53.2094  -29.6956   10.5408 C.ar      14 UNK        -0.0827 
     14 C14       -51.9553  -30.2546   10.2778 C.ar      14 UNK        -0.1249 
     15 C15       -54.1700  -30.3712   11.5085 C.3       14 UNK         0.0141 
     16 S16       -54.3092  -29.4268   13.0560 S.3       14 UNK        -0.2313 
     17 C17       -55.5985  -30.3506   13.9640 C.3       14 UNK        -0.0915 
     18 CA        -57.0265  -30.2890   13.3323 C.3       13 UNK         0.0968 
     19 C         -58.1233  -31.0298   14.1585 C.2       13 UNK         0.5732 
     20 N         -57.7695  -32.0420   14.9402 N.am      13 UNK        -0.7310 
     21 O         -59.3126  -30.7340   14.0513 O.2       13 UNK        -0.5035 
     22 N         -57.4206  -28.9311   12.9224 N.am      13 UNK        -0.4233 
     23 C         -57.6856  -27.8969   13.7296 C.2       13 UNK         0.4989 
     24 O         -57.6923  -27.9447   14.9610 O.2       13 UNK        -0.4996 
     25 CA        -57.9816  -26.5704   13.0103 C.3       12 UNK         0.0216 
     26 CB        -59.4859  -26.4611   12.7099 C.3       12 UNK        -0.1964 
     27 N         -57.5662  -25.3797   13.7629 N.am      12 UNK        -0.4276 
     28 C         -56.3296  -24.9574   14.0760 C.2       12 UNK         0.5020 
     29 O         -56.1632  -23.8828   14.6564 O.2       12 UNK        -0.5489 
     30 CA        -55.0846  -25.7787   13.6595 C.3       11 UNK         0.0294 
     31 CB        -54.6731  -25.4647   12.2147 C.3       11 UNK        -0.2019 
     32 N         -53.9184  -25.5579   14.5191 N.am      11 UNK        -0.4493 
     33 C         -53.8695  -25.7712   15.8419 C.2       11 UNK         0.4932 
     34 O         -54.8060  -26.2114   16.5118 O.2       11 UNK        -0.5029 
     35 CA        -52.5217  -25.4524   16.5117 C.3       10 UNK         0.0280 
     36 CB        -52.5306  -25.6556   18.0421 C.3       10 UNK        -0.1976 
     37 N         -51.4201  -26.1902   15.8879 N.am      10 UNK        -0.4242 
     38 C         -51.2623  -27.5227   15.8157 C.2       10 UNK         0.5072 
     39 O         -52.0325  -28.3377   16.3255 O.2       10 UNK        -0.5224 
     40 CA        -50.0339  -28.0549   15.0514 C.3       9 UNK         0.0343 
     41 CB        -50.4698  -28.6919   13.7195 C.3       9 UNK        -0.2003 
     42 N         -49.0119  -27.0382   14.7871 N.am      9 UNK        -0.4272 
     43 C         -48.2345  -26.4587   15.7128 C.2       9 UNK         0.4988 
     44 O         -48.2306  -26.7797   16.9016 O.2       9 UNK        -0.5108 
     45 CA        -47.3355  -25.2993   15.2438 C.3       8 UNK         0.0248 
     46 CB        -45.9861  -25.8338   14.7400 C.3       8 UNK        -0.2001 
     47 N         -47.9529  -24.4508   14.2154 N.am      8 UNK        -0.4140 
     48 C         -49.0740  -23.7336   14.3917 C.2       8 UNK         0.5028 
     49 O         -49.7059  -23.7032   15.4477 O.2       8 UNK        -0.5428 
     50 CA        -49.6139  -22.9547   13.1801 C.3       7 UNK         0.0264 
     51 CB        -48.7974  -21.6772   12.9286 C.3       7 UNK        -0.1988 
     52 N         -49.6595  -23.7685   11.9645 N.am      7 UNK        -0.4454 
     53 C         -50.4336  -24.8539   11.8087 C.2       7 UNK         0.5027 
     54 O         -51.2437  -25.2381   12.6561 O.2       7 UNK        -0.5083 
     55 CA        -50.2243  -25.6730   10.5142 C.3       6 UNK         0.0844 
     56 C56       -50.9400  -25.0422    9.2909 C.3       14 UNK        -0.0967 
     57 S57       -52.7591  -25.1348    9.3513 S.3       14 UNK        -0.2604 
     58 C58       -53.1109  -26.5901    8.3177 C.3       14 UNK         0.0134 
     59 N         -48.8014  -25.8843   10.2248 N.am      6 UNK        -0.4116 
     60 C         -47.9126  -26.4882   11.0254 C.2       5 UNK         0.5034 
     61 O         -48.2042  -27.0328   12.0866 O.2       5 UNK        -0.5045 
     62 CA        -46.4321  -26.4036   10.6163 C.3       5 UNK         0.0224 
     63 CB        -46.0403  -27.5131    9.6312 C.3       5 UNK        -0.1978 
     64 N         -46.0925  -25.0982   10.0500 N.am      5 UNK        -0.4737 
     65 C         -46.0108  -23.9684   10.7646 C.2       4 UNK         0.5027 
     66 O         -46.1641  -23.9201   11.9843 O.2       4 UNK        -0.5211 
     67 CA        -45.7568  -22.6721    9.9774 C.3       4 UNK         0.0297 
     68 CB        -44.2540  -22.4825    9.7183 C.3       4 UNK        -0.1993 
     69 N         -46.4860  -22.6364    8.7061 N.am      4 UNK        -0.4486 
     70 C         -47.8219  -22.5812    8.6075 C.2       3 UNK         0.4961 
     71 O         -48.5744  -22.5028    9.5780 O.2       3 UNK        -0.5105 
     72 CA        -48.4214  -22.6784    7.1926 C.3       3 UNK         0.0299 
     73 CB        -48.4762  -21.2908    6.5347 C.3       3 UNK        -0.1972 
     74 N         -47.7117  -23.6159    6.3127 N.am      3 UNK        -0.4305 
     75 C         -47.5734  -24.9281    6.5490 C.2       2 UNK         0.5006 
     76 O         -48.0077  -25.4880    7.5564 O.2       2 UNK        -0.5106 
     77 CA        -46.7479  -25.7248    5.5261 C.3       2 UNK         0.0296 
     78 CB        -45.2454  -25.5303    5.7938 C.3       2 UNK        -0.2002 
     79 N         -47.0435  -27.1587    5.5618 N.am      2 UNK        -0.4032 
     80 C         -48.1797  -27.7350    5.1412 C.2       1 UNK         0.5000 
     81 O         -49.1206  -27.1083    4.6487 O.2       1 UNK        -0.5238 
     82 H82       -44.6669  -31.6395    3.9984 H         1 UNK         0.0889 
     83 H83       -44.7184  -31.0948    5.6759 H         1 UNK         0.0889 
     84 H84       -43.9407  -30.0940    4.4478 H         1 UNK         0.0889 
     85 H85       -46.7424  -30.3182    6.2564 H         1 UNK         0.3028 
     86 H86       -48.7360  -29.6101    4.3224 H         1 UNK         0.0864 
     87 H87       -50.1934  -29.2417    6.3018 H         1 UNK         0.0720 
     88 H88       -49.4144  -30.7935    6.3071 H         1 UNK         0.0720 
     89 H89       -49.2300  -30.4615   10.1065 H         1 UNK         0.0814 
     90 H90       -49.8782  -31.3146    8.7278 H         1 UNK         0.0814 
     91 H91       -50.7909  -27.9449    8.0751 H         1 UNK         0.1469 
     92 H92       -54.5484  -28.0717   10.1009 H         1 UNK         0.1381 
     93 H93       -51.6657  -31.1712   10.7737 H         1 UNK         0.1206 
     94 H94       -53.8455  -31.3880   11.7347 H         1 UNK         0.0813 
     95 H95       -55.1474  -30.4533   11.0331 H         1 UNK         0.0813 
     96 H96       -55.2608  -31.3842   14.0503 H         1 UNK         0.0638 
     97 H97       -55.6240  -29.9517   14.9796 H         1 UNK         0.0638 
     98 H98       -56.9877  -30.8543   12.4017 H         1 UNK         0.0568 
     99 H99       -58.4835  -32.5331   15.4551 H         1 UNK         0.3450 
    100 H100      -56.8055  -32.3200   15.0314 H         1 UNK         0.3450 
    101 H101      -57.4930  -28.7936   11.9254 H         1 UNK         0.2987 
    102 H102      -57.4515  -26.5673   12.0576 H         1 UNK         0.0766 
    103 H103      -59.7140  -25.5617   12.1372 H         1 UNK         0.0798 
    104 H104      -60.0792  -26.4368   13.6252 H         1 UNK         0.0798 
    105 H105      -59.8335  -27.3119   12.1219 H         1 UNK         0.0798 
    106 H106      -58.3298  -24.8088   14.0931 H         1 UNK         0.3198 
    107 H107      -55.3003  -26.8387   13.7399 H         1 UNK         0.0843 
    108 H108      -54.3257  -24.4361   12.1103 H         1 UNK         0.0831 
    109 H109      -55.4934  -25.6007   11.5116 H         1 UNK         0.0831 
    110 H110      -53.8657  -26.1242   11.8949 H         1 UNK         0.0831 
    111 H111      -53.0780  -25.2361   14.0536 H         1 UNK         0.3133 
    112 H112      -52.3255  -24.3956   16.3247 H         1 UNK         0.0566 
    113 H113      -51.5688  -25.3906   18.4814 H         1 UNK         0.0814 
    114 H114      -53.2872  -25.0265   18.5123 H         1 UNK         0.0814 
    115 H115      -52.7519  -26.6875   18.3164 H         1 UNK         0.0814 
    116 H116      -50.7206  -25.6087   15.4401 H         1 UNK         0.3091 
    117 H117      -49.5803  -28.8327   15.6688 H         1 UNK         0.0702 
    118 H118      -51.2074  -29.4789   13.8826 H         1 UNK         0.0785 
    119 H119      -50.9230  -27.9592   13.0504 H         1 UNK         0.0785 
    120 H120      -49.6263  -29.1438   13.1977 H         1 UNK         0.0785 
    121 H121      -48.8769  -26.7823   13.8113 H         1 UNK         0.2998 
    122 H122      -47.1435  -24.6643   16.1111 H         1 UNK         0.0697 
    123 H123      -46.1104  -26.4900   13.8790 H         1 UNK         0.0825 
    124 H124      -45.4807  -26.4093   15.5167 H         1 UNK         0.0825 
    125 H125      -45.3181  -25.0221   14.4512 H         1 UNK         0.0825 
    126 H126      -47.4617  -24.3796   13.3273 H         1 UNK         0.3029 
    127 H127      -50.6387  -22.6567   13.4125 H         1 UNK         0.0897 
    128 H128      -49.2237  -21.0896   12.1152 H         1 UNK         0.0792 
    129 H129      -47.7619  -21.8984   12.6709 H         1 UNK         0.0792 
    130 H130      -48.7843  -21.0426   13.8156 H         1 UNK         0.0792 
    131 H131      -49.0687  -23.4731   11.1915 H         1 UNK         0.3086 
    132 H132      -50.6499  -26.6611   10.6952 H         1 UNK         0.0583 
    133 H133      -50.6662  -23.9927    9.1845 H         1 UNK         0.1020 
    134 H134      -50.6040  -25.5218    8.3705 H         1 UNK         0.1020 
    135 H135      -54.1794  -26.6122    8.0985 H         1 UNK         0.0694 
    136 H136      -52.6068  -26.4907    7.3550 H         1 UNK         0.0694 
    137 H137      -48.4684  -25.5421    9.3262 H         1 UNK         0.2989 
    138 H138      -45.8381  -26.5436   11.5216 H         1 UNK         0.1055 
    139 H139      -46.3167  -28.4943   10.0195 H         1 UNK         0.0806 
    140 H140      -44.9644  -27.5255    9.4573 H         1 UNK         0.0806 
    141 H141      -46.5317  -27.3898    8.6670 H         1 UNK         0.0806 
    142 H142      -46.0110  -25.0427    9.0457 H         1 UNK         0.3061 
    143 H143      -46.1057  -21.8385   10.5909 H         1 UNK         0.0734 
    144 H144      -44.0523  -21.5285    9.2308 H         1 UNK         0.0832 
    145 H145      -43.6948  -22.4896   10.6551 H         1 UNK         0.0832 
    146 H146      -43.8457  -23.2751    9.0901 H         1 UNK         0.0832 
    147 H147      -45.9414  -22.6883    7.8578 H         1 UNK         0.3156 
    148 H148      -49.4455  -23.0421    7.2950 H         1 UNK         0.0589 
    149 H149      -49.0179  -20.5828    7.1639 H         1 UNK         0.0808 
    150 H150      -47.4796  -20.8805    6.3670 H         1 UNK         0.0808 
    151 H151      -48.9916  -21.3262    5.5747 H         1 UNK         0.0808 
    152 H152      -47.3142  -23.2304    5.4676 H         1 UNK         0.3098 
    153 H153      -46.9827  -25.3540    4.5262 H         1 UNK         0.0720 
    154 H154      -44.9650  -24.4778    5.7368 H         1 UNK         0.0791 
    155 H155      -44.6410  -26.0612    5.0578 H         1 UNK         0.0791 
    156 H156      -44.9602  -25.8914    6.7830 H         1 UNK         0.0791 
    157 H157      -46.3450  -27.7557    5.9769 H         1 UNK         0.3028 
@<TRIPOS>BOND
     1    1    2 1    
     2    1   82 1    
     3    1   83 1    
     4    1   84 1    
     5    2    3 2    
     6    2    4 am   BACKBONE|DICT|INTERRES
     7    4    5 1    
     8    4   85 1    
     9    5    6 1    
    10    5   80 1    
    11    5   86 1    
    12    6    7 1    
    13    6   87 1    
    14    6   88 1    
    15    7    8 1    
    16    8    9 1    
    17    8   89 1    
    18    8   90 1    
    19    9   10 ar   
    20    9   14 ar   
    21   10   11 ar   
    22   10   91 1    
    23   11   12 ar   
    24   11   58 1    
    25   12   13 ar   
    26   12   92 1    
    27   13   14 ar   
    28   13   15 1    
    29   14   93 1    
    30   15   16 1    
    31   15   94 1    
    32   15   95 1    
    33   16   17 1    
    34   17   18 1    
    35   17   96 1    
    36   17   97 1    
    37   18   19 1    
    38   18   22 1    
    39   18   98 1    
    40   19   20 am   BACKBONE|DICT|INTERRES
    41   19   21 2    
    42   20   99 1    
    43   20  100 1    
    44   22   23 am   BACKBONE|DICT|INTERRES
    45   22  101 1    
    46   23   24 2    
    47   23   25 1    
    48   25   26 1    
    49   25   27 1    
    50   25  102 1    
    51   26  103 1    
    52   26  104 1    
    53   26  105 1    
    54   27   28 am   BACKBONE|DICT|INTERRES
    55   27  106 1    
    56   28   29 2    
    57   28   30 1    
    58   30   31 1    
    59   30   32 1    
    60   30  107 1    
    61   31  108 1    
    62   31  109 1    
    63   31  110 1    
    64   32   33 am   BACKBONE|DICT|INTERRES
    65   32  111 1    
    66   33   34 2    
    67   33   35 1    
    68   35   36 1    
    69   35   37 1    
    70   35  112 1    
    71   36  113 1    
    72   36  114 1    
    73   36  115 1    
    74   37   38 am   BACKBONE|DICT|INTERRES
    75   37  116 1    
    76   38   39 2    
    77   38   40 1    
    78   40   41 1    
    79   40   42 1    
    80   40  117 1    
    81   41  118 1    
    82   41  119 1    
    83   41  120 1    
    84   42   43 am   BACKBONE|DICT|INTERRES
    85   42  121 1    
    86   43   44 2    
    87   43   45 1    
    88   45   46 1    
    89   45   47 1    
    90   45  122 1    
    91   46  123 1    
    92   46  124 1    
    93   46  125 1    
    94   47   48 am   BACKBONE|DICT|INTERRES
    95   47  126 1    
    96   48   49 2    
    97   48   50 1    
    98   50   51 1    
    99   50   52 1    
   100   50  127 1    
   101   51  128 1    
   102   51  129 1    
   103   51  130 1    
   104   52   53 am   BACKBONE|DICT|INTERRES
   105   52  131 1    
   106   53   54 2    
   107   53   55 1    
   108   55   56 1    
   109   55   59 1    
   110   55  132 1    
   111   56   57 1    
   112   56  133 1    
   113   56  134 1    
   114   57   58 1    
   115   58  135 1    
   116   58  136 1    
   117   59   60 am   BACKBONE|DICT|INTERRES
   118   59  137 1    
   119   60   61 2    
   120   60   62 1    
   121   62   63 1    
   122   62   64 1    
   123   62  138 1    
   124   63  139 1    
   125   63  140 1    
   126   63  141 1    
   127   64   65 am   BACKBONE|DICT|INTERRES
   128   64  142 1    
   129   65   66 2    
   130   65   67 1    
   131   67   68 1    
   132   67   69 1    
   133   67  143 1    
   134   68  144 1    
   135   68  145 1    
   136   68  146 1    
   137   69   70 am   BACKBONE|DICT|INTERRES
   138   69  147 1    
   139   70   71 2    
   140   70   72 1    
   141   72   73 1    
   142   72   74 1    
   143   72  148 1    
   144   73  149 1    
   145   73  150 1    
   146   73  151 1    
   147   74   75 am   BACKBONE|DICT|INTERRES
   148   74  152 1    
   149   75   76 2    
   150   75   77 1    
   151   77   78 1    
   152   77   79 1    
   153   77  153 1    
   154   78  154 1    
   155   78  155 1    
   156   78  156 1    
   157   79   80 am   BACKBONE|DICT|INTERRES
   158   79  157 1    
   159   80   81 2    
@<TRIPOS>SUBSTRUCTURE
     1 UNK         1 GROUP             0       ****    0 ROOT    
