@<TRIPOS>MOLECULE
3R207
157   159    1
SMALL
USER_CHARGES


@<TRIPOS>ATOM
      1 CA        -50.7653  -22.6154    2.9940 C.3       0 UNK        -0.1975 
      2 C         -50.5966  -23.3686    4.3053 C.2       0 UNK         0.4852 
      3 O         -49.9157  -22.8799    5.2062 O.2       0 UNK        -0.5216 
      4 N         -51.2148  -24.5523    4.4188 N.am      1 UNK        -0.4461 
      5 CA        -51.1464  -25.4226    5.6000 C.3       1 UNK         0.0864 
      6 C6        -52.3162  -26.4419    5.6002 C.3       14 UNK        -0.0898 
      7 S7        -52.7116  -27.0642    7.2682 S.3       14 UNK        -0.2598 
      8 C8        -52.0147  -28.7454    7.1943 C.3       14 UNK         0.0286 
      9 C9        -51.5444  -29.2380    8.5569 C.ar      14 UNK        -0.0844 
     10 C10       -50.1947  -29.5391    8.7647 C.ar      14 UNK        -0.0881 
     11 C11       -49.7560  -30.0437    9.9924 C.ar      14 UNK        -0.0643 
     12 C12       -50.6786  -30.2319   11.0259 C.ar      14 UNK        -0.0930 
     13 C13       -52.0328  -29.9335   10.8342 C.ar      14 UNK        -0.0827 
     14 C14       -52.4568  -29.4316    9.5984 C.ar      14 UNK        -0.1249 
     15 C15       -53.0211  -30.1213   11.9783 C.3       14 UNK         0.0141 
     16 S16       -54.5129  -31.0524   11.5071 S.3       14 UNK        -0.2313 
     17 C17       -55.4895  -30.9248   13.0456 C.3       14 UNK        -0.0915 
     18 CA        -56.5626  -29.8041   12.9745 C.3       13 UNK         0.0968 
     19 C         -57.5695  -29.8711   14.1602 C.2       13 UNK         0.5732 
     20 N         -57.8916  -28.7735   14.8373 N.am      13 UNK        -0.7310 
     21 O         -58.0969  -30.9402   14.4592 O.2       13 UNK        -0.5035 
     22 N         -55.9384  -28.4816   12.8399 N.am      13 UNK        -0.4233 
     23 C         -56.2385  -27.5715   11.9061 C.2       13 UNK         0.4989 
     24 O         -57.0466  -27.7664   10.9962 O.2       13 UNK        -0.4996 
     25 CA        -55.5090  -26.2137   11.9934 C.3       12 UNK         0.0216 
     26 CB        -56.3521  -25.0514   11.4281 C.3       12 UNK        -0.1964 
     27 N         -55.0095  -25.8800   13.3340 N.am      12 UNK        -0.4276 
     28 C         -55.7154  -25.7599   14.4667 C.2       12 UNK         0.5020 
     29 O         -56.9345  -25.9345   14.5339 O.2       12 UNK        -0.5489 
     30 CA        -54.9065  -25.4470   15.7426 C.3       11 UNK         0.0294 
     31 CB        -55.7597  -25.5567   17.0236 C.3       11 UNK        -0.2019 
     32 N         -53.6851  -26.2524   15.8893 N.am      11 UNK        -0.4493 
     33 C         -53.5767  -27.5907   15.8475 C.2       11 UNK         0.4932 
     34 O         -54.5134  -28.3396   15.5653 O.2       11 UNK        -0.5029 
     35 CA        -52.2025  -28.2120   16.1709 C.3       10 UNK         0.0280 
     36 CB        -51.8665  -29.3770   15.2294 C.3       10 UNK        -0.1976 
     37 N         -51.1019  -27.2479   16.1240 N.am      10 UNK        -0.4242 
     38 C         -50.6408  -26.5528   17.1712 C.2       10 UNK         0.5072 
     39 O         -51.0953  -26.6444   18.3121 O.2       10 UNK        -0.5224 
     40 CA        -49.4930  -25.5662   16.8943 C.3       9 UNK         0.0343 
     41 CB        -48.1407  -26.2963   16.9084 C.3       9 UNK        -0.2003 
     42 N         -49.6440  -24.8298   15.6347 N.am      9 UNK        -0.4272 
     43 C         -50.6606  -23.9982   15.3574 C.2       9 UNK         0.4988 
     44 O         -51.5900  -23.7672   16.1320 O.2       9 UNK        -0.5108 
     45 CA        -50.6625  -23.3381   13.9690 C.3       8 UNK         0.0248 
     46 CB        -49.6118  -22.2189   13.8902 C.3       8 UNK        -0.2001 
     47 N         -50.4451  -24.3000   12.8880 N.am      8 UNK        -0.4140 
     48 C         -51.2614  -25.3247   12.6047 C.2       8 UNK         0.5028 
     49 O         -52.3200  -25.5403   13.1907 O.2       8 UNK        -0.5428 
     50 CA        -50.7985  -26.3058   11.5197 C.3       7 UNK         0.0264 
     51 CB        -51.0397  -25.7307   10.1179 C.3       7 UNK        -0.1988 
     52 N         -49.3918  -26.6721   11.6728 N.am      7 UNK        -0.4454 
     53 C         -48.8848  -27.3139   12.7352 C.2       7 UNK         0.5027 
     54 O         -49.5552  -27.6918   13.6960 O.2       7 UNK        -0.5083 
     55 CA        -47.3594  -27.5102   12.7636 C.3       6 UNK         0.0844 
     56 C56       -46.9172  -28.8467   12.1146 C.3       14 UNK        -0.0967 
     57 S57       -47.1954  -28.9937   10.3139 S.3       14 UNK        -0.2604 
     58 C58       -48.2959  -30.4379   10.1700 C.3       14 UNK         0.0134 
     59 N         -46.6505  -26.3223   12.2655 N.am      6 UNK        -0.4116 
     60 C         -46.6013  -25.1655   12.9513 C.2       5 UNK         0.5034 
     61 O         -47.1161  -25.0088   14.0594 O.2       5 UNK        -0.5045 
     62 CA        -45.9045  -23.9600   12.2920 C.3       5 UNK         0.0224 
     63 CB        -44.3835  -24.0359   12.4967 C.3       5 UNK        -0.1978 
     64 N         -46.1995  -23.8220   10.8656 N.am      5 UNK        -0.4737 
     65 C         -47.4267  -23.6965   10.3460 C.2       4 UNK         0.5027 
     66 O         -48.4357  -23.5501   11.0341 O.2       4 UNK        -0.5211 
     67 CA        -47.5800  -23.7744    8.8148 C.3       4 UNK         0.0297 
     68 CB        -47.8106  -22.3680    8.2404 C.3       4 UNK        -0.1993 
     69 N         -46.5081  -24.4286    8.0479 N.am      4 UNK        -0.4486 
     70 C         -45.9062  -25.5998    8.2997 C.2       3 UNK         0.4961 
     71 O         -46.0187  -26.2278    9.3512 O.2       3 UNK        -0.5105 
     72 CA        -45.0658  -26.1838    7.1515 C.3       3 UNK         0.0299 
     73 CB        -44.0411  -27.2220    7.6450 C.3       3 UNK        -0.1972 
     74 N         -45.9587  -26.8185    6.1828 N.am      3 UNK        -0.4305 
     75 C         -46.6973  -26.1644    5.2768 C.2       2 UNK         0.5006 
     76 O         -46.5804  -24.9577    5.0506 O.2       2 UNK        -0.5106 
     77 CA        -47.7569  -26.9725    4.4991 C.3       2 UNK         0.0296 
     78 CB        -47.8216  -28.4726    4.8744 C.3       2 UNK        -0.2002 
     79 N         -49.0859  -26.3577    4.6131 N.am      2 UNK        -0.4032 
     80 C         -49.7713  -26.1173    5.7449 C.2       1 UNK         0.5000 
     81 O         -49.3634  -26.4167    6.8675 O.2       1 UNK        -0.5238 
     82 H82       -51.3974  -23.1562    2.2900 H         1 UNK         0.0889 
     83 H83       -49.7943  -22.4566    2.5257 H         1 UNK         0.0889 
     84 H84       -51.2185  -21.6416    3.1771 H         1 UNK         0.0889 
     85 H85       -51.7760  -24.8928    3.6503 H         1 UNK         0.3028 
     86 H86       -51.2629  -24.7777    6.4746 H         1 UNK         0.0864 
     87 H87       -52.1320  -27.2676    4.9102 H         1 UNK         0.0720 
     88 H88       -53.2255  -25.9581    5.2397 H         1 UNK         0.0720 
     89 H89       -51.1844  -28.7661    6.4870 H         1 UNK         0.0814 
     90 H90       -52.7691  -29.4283    6.8015 H         1 UNK         0.0814 
     91 H91       -49.4806  -29.3934    7.9657 H         1 UNK         0.1469 
     92 H92       -50.3410  -30.6168   11.9784 H         1 UNK         0.1381 
     93 H93       -53.5005  -29.1943    9.4435 H         1 UNK         0.1206 
     94 H94       -53.3026  -29.1391   12.3583 H         1 UNK         0.0813 
     95 H95       -52.5474  -30.6622   12.7973 H         1 UNK         0.0813 
     96 H96       -54.8263  -30.7708   13.8987 H         1 UNK         0.0638 
     97 H97       -55.9602  -31.8972   13.2004 H         1 UNK         0.0638 
     98 H98       -57.1722  -30.0058   12.0923 H         1 UNK         0.0568 
     99 H99       -58.5516  -28.8444   15.5945 H         1 UNK         0.3450 
    100 H100      -57.4860  -27.8720   14.6087 H         1 UNK         0.3450 
    101 H101      -55.3199  -28.2233   13.6003 H         1 UNK         0.2987 
    102 H102      -54.6231  -26.3142   11.3644 H         1 UNK         0.0766 
    103 H103      -55.8075  -24.1084   11.4743 H         1 UNK         0.0798 
    104 H104      -57.2863  -24.9274   11.9769 H         1 UNK         0.0798 
    105 H105      -56.6087  -25.2231   10.3820 H         1 UNK         0.0798 
    106 H106      -53.9946  -25.7478   13.3910 H         1 UNK         0.3198 
    107 H107      -54.5794  -24.4103   15.6476 H         1 UNK         0.0843 
    108 H108      -56.1395  -26.5691   17.1675 H         1 UNK         0.0831 
    109 H109      -56.6206  -24.8884   16.9803 H         1 UNK         0.0831 
    110 H110      -55.1842  -25.2849   17.9084 H         1 UNK         0.0831 
    111 H111      -52.8401  -25.7211   16.0611 H         1 UNK         0.3133 
    112 H112      -52.2808  -28.6225   17.1795 H         1 UNK         0.0566 
    113 H113      -50.9321  -29.8600   15.5155 H         1 UNK         0.0814 
    114 H114      -52.6433  -30.1424   15.2429 H         1 UNK         0.0814 
    115 H115      -51.7556  -29.0239   14.2058 H         1 UNK         0.0814 
    116 H116      -50.6375  -27.1437   15.2246 H         1 UNK         0.3091 
    117 H117      -49.4897  -24.8320   17.7026 H         1 UNK         0.0702 
    118 H118      -47.3112  -25.5957   16.8103 H         1 UNK         0.0785 
    119 H119      -48.0653  -27.0196   16.0958 H         1 UNK         0.0785 
    120 H120      -47.9979  -26.8385   17.8441 H         1 UNK         0.0785 
    121 H121      -48.9016  -24.9451   14.9506 H         1 UNK         0.2998 
    122 H122      -51.6468  -22.8906   13.8161 H         1 UNK         0.0697 
    123 H123      -48.5980  -22.6060   13.9969 H         1 UNK         0.0825 
    124 H124      -49.7659  -21.4812   14.6787 H         1 UNK         0.0825 
    125 H125      -49.6667  -21.6921   12.9373 H         1 UNK         0.0825 
    126 H126      -49.6211  -24.1579   12.3057 H         1 UNK         0.3029 
    127 H127      -51.3876  -27.2192   11.6204 H         1 UNK         0.0897 
    128 H128      -50.5395  -24.7740    9.9713 H         1 UNK         0.0792 
    129 H129      -52.1045  -25.5706    9.9450 H         1 UNK         0.0792 
    130 H130      -50.6839  -26.4146    9.3472 H         1 UNK         0.0792 
    131 H131      -48.7626  -26.4067   10.9287 H         1 UNK         0.3086 
    132 H132      -47.0940  -27.6018   13.8194 H         1 UNK         0.0583 
    133 H133      -45.8496  -28.9882   12.2893 H         1 UNK         0.1020 
    134 H134      -47.4003  -29.6777   12.6311 H         1 UNK         0.1020 
    135 H135      -47.9838  -31.0153    9.2985 H         1 UNK         0.0694 
    136 H136      -48.1700  -31.1050   11.0236 H         1 UNK         0.0694 
    137 H137      -46.2742  -26.3673   11.3214 H         1 UNK         0.2989 
    138 H138      -46.2733  -23.0605   12.7899 H         1 UNK         0.1055 
    139 H139      -44.1366  -24.1233   13.5559 H         1 UNK         0.0806 
    140 H140      -43.8874  -23.1397   12.1235 H         1 UNK         0.0806 
    141 H141      -43.9494  -24.8977   11.9881 H         1 UNK         0.0806 
    142 H142      -45.4359  -23.9758   10.2232 H         1 UNK         0.3061 
    143 H143      -48.4802  -24.3629    8.6285 H         1 UNK         0.0734 
    144 H144      -48.0662  -22.4081    7.1814 H         1 UNK         0.0832 
    145 H145      -48.6353  -21.8663    8.7490 H         1 UNK         0.0832 
    146 H146      -46.9267  -21.7387    8.3509 H         1 UNK         0.0832 
    147 H147      -46.3626  -24.0562    7.1173 H         1 UNK         0.3156 
    148 H148      -44.5187  -25.3703    6.6700 H         1 UNK         0.0589 
    149 H149      -44.5244  -28.0784    8.1179 H         1 UNK         0.0808 
    150 H150      -43.4273  -27.5945    6.8247 H         1 UNK         0.0808 
    151 H151      -43.3669  -26.7825    8.3812 H         1 UNK         0.0808 
    152 H152      -46.1550  -27.7973    6.3335 H         1 UNK         0.3098 
    153 H153      -47.4747  -26.9069    3.4474 H         1 UNK         0.0720 
    154 H154      -48.5699  -28.9910    4.2748 H         1 UNK         0.0791 
    155 H155      -48.0811  -28.6264    5.9226 H         1 UNK         0.0791 
    156 H156      -46.8690  -28.9702    4.6875 H         1 UNK         0.0791 
    157 H157      -49.4893  -26.0290    3.7477 H         1 UNK         0.3028 
@<TRIPOS>BOND
     1    1    2 1    
     2    1   82 1    
     3    1   83 1    
     4    1   84 1    
     5    2    3 2    
     6    2    4 am   BACKBONE|DICT|INTERRES
     7    4    5 1    
     8    4   85 1    
     9    5    6 1    
    10    5   80 1    
    11    5   86 1    
    12    6    7 1    
    13    6   87 1    
    14    6   88 1    
    15    7    8 1    
    16    8    9 1    
    17    8   89 1    
    18    8   90 1    
    19    9   10 ar   
    20    9   14 ar   
    21   10   11 ar   
    22   10   91 1    
    23   11   12 ar   
    24   11   58 1    
    25   12   13 ar   
    26   12   92 1    
    27   13   14 ar   
    28   13   15 1    
    29   14   93 1    
    30   15   16 1    
    31   15   94 1    
    32   15   95 1    
    33   16   17 1    
    34   17   18 1    
    35   17   96 1    
    36   17   97 1    
    37   18   19 1    
    38   18   22 1    
    39   18   98 1    
    40   19   20 am   BACKBONE|DICT|INTERRES
    41   19   21 2    
    42   20   99 1    
    43   20  100 1    
    44   22   23 am   BACKBONE|DICT|INTERRES
    45   22  101 1    
    46   23   24 2    
    47   23   25 1    
    48   25   26 1    
    49   25   27 1    
    50   25  102 1    
    51   26  103 1    
    52   26  104 1    
    53   26  105 1    
    54   27   28 am   BACKBONE|DICT|INTERRES
    55   27  106 1    
    56   28   29 2    
    57   28   30 1    
    58   30   31 1    
    59   30   32 1    
    60   30  107 1    
    61   31  108 1    
    62   31  109 1    
    63   31  110 1    
    64   32   33 am   BACKBONE|DICT|INTERRES
    65   32  111 1    
    66   33   34 2    
    67   33   35 1    
    68   35   36 1    
    69   35   37 1    
    70   35  112 1    
    71   36  113 1    
    72   36  114 1    
    73   36  115 1    
    74   37   38 am   BACKBONE|DICT|INTERRES
    75   37  116 1    
    76   38   39 2    
    77   38   40 1    
    78   40   41 1    
    79   40   42 1    
    80   40  117 1    
    81   41  118 1    
    82   41  119 1    
    83   41  120 1    
    84   42   43 am   BACKBONE|DICT|INTERRES
    85   42  121 1    
    86   43   44 2    
    87   43   45 1    
    88   45   46 1    
    89   45   47 1    
    90   45  122 1    
    91   46  123 1    
    92   46  124 1    
    93   46  125 1    
    94   47   48 am   BACKBONE|DICT|INTERRES
    95   47  126 1    
    96   48   49 2    
    97   48   50 1    
    98   50   51 1    
    99   50   52 1    
   100   50  127 1    
   101   51  128 1    
   102   51  129 1    
   103   51  130 1    
   104   52   53 am   BACKBONE|DICT|INTERRES
   105   52  131 1    
   106   53   54 2    
   107   53   55 1    
   108   55   56 1    
   109   55   59 1    
   110   55  132 1    
   111   56   57 1    
   112   56  133 1    
   113   56  134 1    
   114   57   58 1    
   115   58  135 1    
   116   58  136 1    
   117   59   60 am   BACKBONE|DICT|INTERRES
   118   59  137 1    
   119   60   61 2    
   120   60   62 1    
   121   62   63 1    
   122   62   64 1    
   123   62  138 1    
   124   63  139 1    
   125   63  140 1    
   126   63  141 1    
   127   64   65 am   BACKBONE|DICT|INTERRES
   128   64  142 1    
   129   65   66 2    
   130   65   67 1    
   131   67   68 1    
   132   67   69 1    
   133   67  143 1    
   134   68  144 1    
   135   68  145 1    
   136   68  146 1    
   137   69   70 am   BACKBONE|DICT|INTERRES
   138   69  147 1    
   139   70   71 2    
   140   70   72 1    
   141   72   73 1    
   142   72   74 1    
   143   72  148 1    
   144   73  149 1    
   145   73  150 1    
   146   73  151 1    
   147   74   75 am   BACKBONE|DICT|INTERRES
   148   74  152 1    
   149   75   76 2    
   150   75   77 1    
   151   77   78 1    
   152   77   79 1    
   153   77  153 1    
   154   78  154 1    
   155   78  155 1    
   156   78  156 1    
   157   79   80 am   BACKBONE|DICT|INTERRES
   158   79  157 1    
   159   80   81 2    
@<TRIPOS>SUBSTRUCTURE
     1 UNK         1 GROUP             0       ****    0 ROOT    
