@<TRIPOS>MOLECULE
3R207
157   159    1
SMALL
USER_CHARGES


@<TRIPOS>ATOM
      1 CA        -47.9701  -27.0384    5.7466 C.3       0 UNK        -0.1975 
      2 C         -47.3301  -28.4226    5.7865 C.2       0 UNK         0.4852 
      3 O         -46.4497  -28.7024    4.9751 O.2       0 UNK        -0.5216 
      4 N         -47.7362  -29.3208    6.6930 N.am      1 UNK        -0.4461 
      5 CA        -48.7082  -29.1110    7.7718 C.3       1 UNK         0.0864 
      6 C6        -49.3630  -30.4442    8.2084 C.3       14 UNK        -0.0898 
      7 S7        -50.5506  -31.0318    6.9619 S.3       14 UNK        -0.2598 
      8 C8        -52.1359  -30.6439    7.7785 C.3       14 UNK         0.0286 
      9 C9        -52.3763  -29.1479    7.9673 C.ar      14 UNK        -0.0844 
     10 C10       -52.3423  -28.2819    6.8681 C.ar      14 UNK        -0.0881 
     11 C11       -52.6481  -26.9260    7.0185 C.ar      14 UNK        -0.0643 
     12 C12       -53.0105  -26.4431    8.2783 C.ar      14 UNK        -0.0930 
     13 C13       -53.0335  -27.2891    9.3893 C.ar      14 UNK        -0.0827 
     14 C14       -52.7008  -28.6391    9.2313 C.ar      14 UNK        -0.1249 
     15 C15       -53.4451  -26.7342   10.7465 C.3       14 UNK         0.0141 
     16 S16       -55.0717  -27.3641   11.2600 S.3       14 UNK        -0.2313 
     17 C17       -55.5981  -26.1176   12.4910 C.3       14 UNK        -0.0915 
     18 CA        -55.3955  -26.5360   13.9826 C.3       13 UNK         0.0968 
     19 C         -55.9484  -25.4940   15.0035 C.2       13 UNK         0.5732 
     20 N         -55.9198  -24.2058   14.6840 N.am      13 UNK        -0.7310 
     21 O         -56.3780  -25.8326   16.1052 O.2       13 UNK        -0.5035 
     22 N         -55.8419  -27.9073   14.2749 N.am      13 UNK        -0.4233 
     23 C         -57.0795  -28.3994   14.1234 C.2       13 UNK         0.4989 
     24 O         -58.0440  -27.7340   13.7428 O.2       13 UNK        -0.4996 
     25 CA        -57.2827  -29.9016   14.4031 C.3       12 UNK         0.0216 
     26 CB        -57.5558  -30.6531   13.0884 C.3       12 UNK        -0.1964 
     27 N         -56.1290  -30.5200   15.0633 N.am      12 UNK        -0.4276 
     28 C         -55.9726  -30.6218   16.3893 C.2       12 UNK         0.5020 
     29 O         -56.8236  -30.2811   17.2119 O.2       12 UNK        -0.5489 
     30 CA        -54.6239  -31.1797   16.8827 C.3       11 UNK         0.0294 
     31 CB        -54.6831  -32.7121   16.9928 C.3       11 UNK        -0.2019 
     32 N         -53.4733  -30.7910   16.0536 N.am      11 UNK        -0.4493 
     33 C         -53.0738  -29.5280   15.8526 C.2       11 UNK         0.4932 
     34 O         -53.6673  -28.5443   16.2967 O.2       11 UNK        -0.5029 
     35 CA        -51.8375  -29.3233   14.9730 C.3       10 UNK         0.0280 
     36 CB        -52.2049  -29.4167   13.4808 C.3       10 UNK        -0.1976 
     37 N         -51.2695  -28.0126   15.2823 N.am      10 UNK        -0.4242 
     38 C         -49.9982  -27.6408   15.1130 C.2       10 UNK         0.5072 
     39 O         -49.1577  -28.3455   14.5506 O.2       10 UNK        -0.5224 
     40 CA        -49.5912  -26.2612   15.6806 C.3       9 UNK         0.0343 
     41 CB        -48.0945  -25.9578   15.4666 C.3       9 UNK        -0.2003 
     42 N         -50.3671  -25.1352   15.1497 N.am      9 UNK        -0.4272 
     43 C         -51.6417  -24.8295   15.4324 C.2       9 UNK         0.4988 
     44 O         -52.3573  -25.5203   16.1570 O.2       9 UNK        -0.5108 
     45 CA        -52.2162  -23.5245   14.8402 C.3       8 UNK         0.0248 
     46 CB        -52.5442  -22.5219   15.9593 C.3       8 UNK        -0.2001 
     47 N         -51.3348  -22.8756   13.8607 N.am      8 UNK        -0.4140 
     48 C         -51.1858  -23.2936   12.5973 C.2       8 UNK         0.5028 
     49 O         -51.8371  -24.2262   12.1271 O.2       8 UNK        -0.5428 
     50 CA        -50.1087  -22.5798   11.7515 C.3       7 UNK         0.0264 
     51 CB        -48.7468  -22.5485   12.4726 C.3       7 UNK        -0.1988 
     52 N         -49.9112  -23.2238   10.4513 N.am      7 UNK        -0.4454 
     53 C         -50.7289  -23.1192    9.3942 C.2       7 UNK         0.5027 
     54 O         -51.7088  -22.3717    9.3562 O.2       7 UNK        -0.5083 
     55 CA        -50.3626  -23.9999    8.1775 C.3       6 UNK         0.0844 
     56 C56       -51.2820  -23.7682    6.9448 C.3       14 UNK        -0.0967 
     57 S57       -51.0712  -25.0634    5.6763 S.3       14 UNK        -0.2604 
     58 C58       -52.6324  -25.9946    5.8134 C.3       14 UNK         0.0134 
     59 N         -48.9261  -23.9047    7.8837 N.am      6 UNK        -0.4116 
     60 C         -48.2715  -22.8190    7.4455 C.2       5 UNK         0.5034 
     61 O         -48.8251  -21.7697    7.1153 O.2       5 UNK        -0.5045 
     62 CA        -46.7369  -22.8855    7.3855 C.3       5 UNK         0.0224 
     63 CB        -46.1149  -21.8307    8.3191 C.3       5 UNK        -0.1978 
     64 N         -46.1953  -24.1979    7.7526 N.am      5 UNK        -0.4737 
     65 C         -45.2494  -24.8553    7.0655 C.2       4 UNK         0.5027 
     66 O         -44.8361  -24.4905    5.9642 O.2       4 UNK        -0.5211 
     67 CA        -44.6592  -26.1312    7.7090 C.3       4 UNK         0.0297 
     68 CB        -43.1646  -26.3237    7.3768 C.3       4 UNK        -0.1993 
     69 N         -44.8952  -26.2251    9.1560 N.am      4 UNK        -0.4486 
     70 C         -44.4781  -25.3744   10.1101 C.2       3 UNK         0.4961 
     71 O         -43.6861  -24.4542    9.9042 O.2       3 UNK        -0.5105 
     72 CA        -45.0744  -25.5485   11.5252 C.3       3 UNK         0.0299 
     73 CB        -45.3097  -24.1894   12.2181 C.3       3 UNK        -0.1972 
     74 N         -46.3002  -26.3590   11.5706 N.am      3 UNK        -0.4305 
     75 C         -47.4583  -26.1217   10.9383 C.2       2 UNK         0.5006 
     76 O         -47.6797  -25.1460   10.2144 O.2       2 UNK        -0.5106 
     77 CA        -48.5422  -27.1946   11.1003 C.3       2 UNK         0.0296 
     78 CB        -49.8106  -26.5857   11.6991 C.3       2 UNK        -0.2002 
     79 N         -48.8949  -27.8411    9.8369 N.am      2 UNK        -0.4032 
     80 C         -48.0474  -28.4301    8.9831 C.2       1 UNK         0.5000 
     81 O         -46.8225  -28.4695    9.1344 O.2       1 UNK        -0.5238 
     82 H82       -47.9806  -26.5673    6.7275 H         1 UNK         0.0889 
     83 H83       -48.9929  -27.1138    5.3802 H         1 UNK         0.0889 
     84 H84       -47.4220  -26.3807    5.0720 H         1 UNK         0.0889 
     85 H85       -47.2808  -30.2217    6.7049 H         1 UNK         0.3028 
     86 H86       -49.4954  -28.4437    7.4157 H         1 UNK         0.0864 
     87 H87       -49.8882  -30.3463    9.1608 H         1 UNK         0.0720 
     88 H88       -48.6074  -31.2161    8.3663 H         1 UNK         0.0720 
     89 H89       -52.1811  -31.1699    8.7335 H         1 UNK         0.0814 
     90 H90       -52.9465  -31.0497    7.1720 H         1 UNK         0.0814 
     91 H91       -52.0936  -28.6702    5.8897 H         1 UNK         0.1469 
     92 H92       -53.2853  -25.4051    8.3967 H         1 UNK         0.1381 
     93 H93       -52.7415  -29.2987   10.0877 H         1 UNK         0.1206 
     94 H94       -52.7030  -26.9875   11.5011 H         1 UNK         0.0813 
     95 H95       -53.4784  -25.6453   10.7035 H         1 UNK         0.0813 
     96 H96       -56.6523  -25.9084   12.3026 H         1 UNK         0.0638 
     97 H97       -55.0720  -25.1844   12.2867 H         1 UNK         0.0638 
     98 H98       -54.3206  -26.5540   14.1654 H         1 UNK         0.0568 
     99 H99       -56.2694  -23.5341   15.3488 H         1 UNK         0.3450 
    100 H100      -55.5849  -23.8953   13.7868 H         1 UNK         0.3450 
    101 H101      -55.1499  -28.4868   14.7282 H         1 UNK         0.2987 
    102 H102      -58.1656  -29.9988   15.0388 H         1 UNK         0.0766 
    103 H103      -58.4370  -30.2526   12.5851 H         1 UNK         0.0798 
    104 H104      -57.7412  -31.7124   13.2669 H         1 UNK         0.0798 
    105 H105      -56.7192  -30.5689   12.3931 H         1 UNK         0.0798 
    106 H106      -55.3826  -30.8481   14.4673 H         1 UNK         0.3198 
    107 H107      -54.4557  -30.7743   17.8830 H         1 UNK         0.0843 
    108 H108      -54.8153  -33.1845   16.0186 H         1 UNK         0.0831 
    109 H109      -55.5178  -33.0253   17.6218 H         1 UNK         0.0831 
    110 H110      -53.7749  -33.1143   17.4421 H         1 UNK         0.0831 
    111 H111      -52.9328  -31.5423   15.6474 H         1 UNK         0.3133 
    112 H112      -51.1084  -30.0975   15.2212 H         1 UNK         0.0566 
    113 H113      -51.3191  -29.3506   12.8504 H         1 UNK         0.0814 
    114 H114      -52.8925  -28.6238   13.1880 H         1 UNK         0.0814 
    115 H115      -52.6859  -30.3675   13.2490 H         1 UNK         0.0814 
    116 H116      -51.9047  -27.3725   15.7587 H         1 UNK         0.3091 
    117 H117      -49.7652  -26.3064   16.7577 H         1 UNK         0.0702 
    118 H118      -47.8062  -25.0202   15.9424 H         1 UNK         0.0785 
    119 H119      -47.8411  -25.8892   14.4080 H         1 UNK         0.0785 
    120 H120      -47.4704  -26.7404   15.9002 H         1 UNK         0.0785 
    121 H121      -49.8712  -24.5096   14.5350 H         1 UNK         0.2998 
    122 H122      -53.1503  -23.7880   14.3413 H         1 UNK         0.0697 
    123 H123      -51.6513  -22.2217   16.5090 H         1 UNK         0.0825 
    124 H124      -53.2401  -22.9549   16.6796 H         1 UNK         0.0825 
    125 H125      -53.0146  -21.6225   15.5617 H         1 UNK         0.0825 
    126 H126      -50.7860  -22.0941   14.1903 H         1 UNK         0.3029 
    127 H127      -50.4438  -21.5538   11.5851 H         1 UNK         0.0897 
    128 H128      -48.3923  -23.5517   12.7124 H         1 UNK         0.0792 
    129 H129      -48.7911  -21.9819   13.4030 H         1 UNK         0.0792 
    130 H130      -47.9880  -22.0701   11.8527 H         1 UNK         0.0792 
    131 H131      -49.1308  -23.8706   10.3869 H         1 UNK         0.3086 
    132 H132      -50.5234  -25.0247    8.5152 H         1 UNK         0.0583 
    133 H133      -52.3310  -23.7288    7.2383 H         1 UNK         0.1020 
    134 H134      -51.0850  -22.7989    6.4862 H         1 UNK         0.1020 
    135 H135      -53.4763  -25.3044    5.8566 H         1 UNK         0.0694 
    136 H136      -52.7681  -26.5728    4.8981 H         1 UNK         0.0694 
    137 H137      -48.3707  -24.6886    8.1939 H         1 UNK         0.2989 
    138 H138      -46.4661  -22.6385    6.3566 H         1 UNK         0.1055 
    139 H139      -46.3787  -22.0128    9.3619 H         1 UNK         0.0806 
    140 H140      -46.4556  -20.8260    8.0649 H         1 UNK         0.0806 
    141 H141      -45.0271  -21.8303    8.2461 H         1 UNK         0.0806 
    142 H142      -46.4655  -24.5575    8.6626 H         1 UNK         0.3061 
    143 H143      -45.1994  -26.9680    7.2662 H         1 UNK         0.0734 
    144 H144      -42.5614  -25.4805    7.7145 H         1 UNK         0.0832 
    145 H145      -42.7683  -27.2277    7.8388 H         1 UNK         0.0832 
    146 H146      -43.0127  -26.4190    6.3010 H         1 UNK         0.0832 
    147 H147      -45.5349  -26.9678    9.4271 H         1 UNK         0.3156 
    148 H148      -44.3275  -26.0933   12.1043 H         1 UNK         0.0589 
    149 H149      -45.7522  -24.3155   13.2062 H         1 UNK         0.0808 
    150 H150      -44.3716  -23.6496   12.3521 H         1 UNK         0.0808 
    151 H151      -45.9690  -23.5488   11.6323 H         1 UNK         0.0808 
    152 H152      -46.2247  -27.2144   12.1046 H         1 UNK         0.3098 
    153 H153      -48.1794  -27.9659   11.7829 H         1 UNK         0.0720 
    154 H154      -49.5811  -25.9488   12.5520 H         1 UNK         0.0791 
    155 H155      -50.4876  -27.3604   12.0511 H         1 UNK         0.0791 
    156 H156      -50.3459  -25.9807   10.9684 H         1 UNK         0.0791 
    157 H157      -49.8810  -27.8631    9.6198 H         1 UNK         0.3028 
@<TRIPOS>BOND
     1    1    2 1    
     2    1   82 1    
     3    1   83 1    
     4    1   84 1    
     5    2    3 2    
     6    2    4 am   BACKBONE|DICT|INTERRES
     7    4    5 1    
     8    4   85 1    
     9    5    6 1    
    10    5   80 1    
    11    5   86 1    
    12    6    7 1    
    13    6   87 1    
    14    6   88 1    
    15    7    8 1    
    16    8    9 1    
    17    8   89 1    
    18    8   90 1    
    19    9   10 ar   
    20    9   14 ar   
    21   10   11 ar   
    22   10   91 1    
    23   11   12 ar   
    24   11   58 1    
    25   12   13 ar   
    26   12   92 1    
    27   13   14 ar   
    28   13   15 1    
    29   14   93 1    
    30   15   16 1    
    31   15   94 1    
    32   15   95 1    
    33   16   17 1    
    34   17   18 1    
    35   17   96 1    
    36   17   97 1    
    37   18   19 1    
    38   18   22 1    
    39   18   98 1    
    40   19   20 am   BACKBONE|DICT|INTERRES
    41   19   21 2    
    42   20   99 1    
    43   20  100 1    
    44   22   23 am   BACKBONE|DICT|INTERRES
    45   22  101 1    
    46   23   24 2    
    47   23   25 1    
    48   25   26 1    
    49   25   27 1    
    50   25  102 1    
    51   26  103 1    
    52   26  104 1    
    53   26  105 1    
    54   27   28 am   BACKBONE|DICT|INTERRES
    55   27  106 1    
    56   28   29 2    
    57   28   30 1    
    58   30   31 1    
    59   30   32 1    
    60   30  107 1    
    61   31  108 1    
    62   31  109 1    
    63   31  110 1    
    64   32   33 am   BACKBONE|DICT|INTERRES
    65   32  111 1    
    66   33   34 2    
    67   33   35 1    
    68   35   36 1    
    69   35   37 1    
    70   35  112 1    
    71   36  113 1    
    72   36  114 1    
    73   36  115 1    
    74   37   38 am   BACKBONE|DICT|INTERRES
    75   37  116 1    
    76   38   39 2    
    77   38   40 1    
    78   40   41 1    
    79   40   42 1    
    80   40  117 1    
    81   41  118 1    
    82   41  119 1    
    83   41  120 1    
    84   42   43 am   BACKBONE|DICT|INTERRES
    85   42  121 1    
    86   43   44 2    
    87   43   45 1    
    88   45   46 1    
    89   45   47 1    
    90   45  122 1    
    91   46  123 1    
    92   46  124 1    
    93   46  125 1    
    94   47   48 am   BACKBONE|DICT|INTERRES
    95   47  126 1    
    96   48   49 2    
    97   48   50 1    
    98   50   51 1    
    99   50   52 1    
   100   50  127 1    
   101   51  128 1    
   102   51  129 1    
   103   51  130 1    
   104   52   53 am   BACKBONE|DICT|INTERRES
   105   52  131 1    
   106   53   54 2    
   107   53   55 1    
   108   55   56 1    
   109   55   59 1    
   110   55  132 1    
   111   56   57 1    
   112   56  133 1    
   113   56  134 1    
   114   57   58 1    
   115   58  135 1    
   116   58  136 1    
   117   59   60 am   BACKBONE|DICT|INTERRES
   118   59  137 1    
   119   60   61 2    
   120   60   62 1    
   121   62   63 1    
   122   62   64 1    
   123   62  138 1    
   124   63  139 1    
   125   63  140 1    
   126   63  141 1    
   127   64   65 am   BACKBONE|DICT|INTERRES
   128   64  142 1    
   129   65   66 2    
   130   65   67 1    
   131   67   68 1    
   132   67   69 1    
   133   67  143 1    
   134   68  144 1    
   135   68  145 1    
   136   68  146 1    
   137   69   70 am   BACKBONE|DICT|INTERRES
   138   69  147 1    
   139   70   71 2    
   140   70   72 1    
   141   72   73 1    
   142   72   74 1    
   143   72  148 1    
   144   73  149 1    
   145   73  150 1    
   146   73  151 1    
   147   74   75 am   BACKBONE|DICT|INTERRES
   148   74  152 1    
   149   75   76 2    
   150   75   77 1    
   151   77   78 1    
   152   77   79 1    
   153   77  153 1    
   154   78  154 1    
   155   78  155 1    
   156   78  156 1    
   157   79   80 am   BACKBONE|DICT|INTERRES
   158   79  157 1    
   159   80   81 2    
@<TRIPOS>SUBSTRUCTURE
     1 UNK         1 GROUP             0       ****    0 ROOT    
