@<TRIPOS>MOLECULE
3R207
157   159    1
SMALL
USER_CHARGES


@<TRIPOS>ATOM
      1 CA        -45.9914  -29.4671    7.9219 C.3       0 UNK        -0.1975 
      2 C         -47.0733  -28.5765    7.3316 C.2       0 UNK         0.4852 
      3 O         -46.9257  -27.3548    7.3349 O.2       0 UNK        -0.5216 
      4 N         -48.1515  -29.1773    6.8095 N.am      1 UNK        -0.4461 
      5 CA        -49.3205  -28.5039    6.2196 C.3       1 UNK         0.0864 
      6 C6        -50.1482  -27.6827    7.2483 C.3       14 UNK        -0.0898 
      7 S7        -50.6388  -28.6827    8.6946 S.3       14 UNK        -0.2598 
      8 C8        -50.1568  -27.5935   10.0702 C.3       14 UNK         0.0286 
      9 C9        -51.2488  -26.5778   10.3665 C.ar      14 UNK        -0.0844 
     10 C10       -51.2129  -25.2996    9.8024 C.ar      14 UNK        -0.0881 
     11 C11       -52.2053  -24.3587   10.1075 C.ar      14 UNK        -0.0643 
     12 C12       -53.2622  -24.7283   10.9471 C.ar      14 UNK        -0.0930 
     13 C13       -53.3204  -26.0119   11.4974 C.ar      14 UNK        -0.0827 
     14 C14       -52.3008  -26.9239   11.2167 C.ar      14 UNK        -0.1249 
     15 C15       -54.4542  -26.3992   12.4354 C.3       14 UNK         0.0141 
     16 S16       -55.9512  -26.9806   11.5772 S.3       14 UNK        -0.2313 
     17 C17       -55.4454  -28.5709   10.8290 C.3       14 UNK        -0.0915 
     18 CA        -55.4883  -29.8160   11.7635 C.3       13 UNK         0.0968 
     19 C         -54.1383  -30.0517   12.4967 C.2       13 UNK         0.5732 
     20 N         -54.0457  -29.8028   13.7957 N.am      13 UNK        -0.7310 
     21 O         -53.1696  -30.4868   11.8800 O.2       13 UNK        -0.5035 
     22 N         -56.6810  -29.8535   12.6301 N.am      13 UNK        -0.4233 
     23 C         -57.1443  -30.9613   13.2253 C.2       13 UNK         0.4989 
     24 O         -56.6289  -32.0730   13.0918 O.2       13 UNK        -0.4996 
     25 CA        -58.3818  -30.7959   14.1222 C.3       12 UNK         0.0216 
     26 CB        -58.8825  -32.1319   14.7060 C.3       12 UNK        -0.1964 
     27 N         -58.0817  -29.8803   15.2233 N.am      12 UNK        -0.4276 
     28 C         -58.7127  -28.7235   15.4566 C.2       12 UNK         0.5020 
     29 O         -59.6466  -28.3052   14.7705 O.2       12 UNK        -0.5489 
     30 CA        -58.2391  -27.8766   16.6569 C.3       11 UNK         0.0294 
     31 CB        -59.1774  -28.0915   17.8565 C.3       11 UNK        -0.2019 
     32 N         -56.8489  -28.0698   17.0993 N.am      11 UNK        -0.4493 
     33 C         -55.7605  -27.9416   16.3310 C.2       11 UNK         0.4932 
     34 O         -55.7963  -27.8227   15.1035 O.2       11 UNK        -0.5029 
     35 CA        -54.3989  -27.9644   17.0395 C.3       10 UNK         0.0280 
     36 CB        -54.0077  -29.3855   17.4824 C.3       10 UNK        -0.1976 
     37 N         -53.4254  -27.4470   16.0859 N.am      10 UNK        -0.4242 
     38 C         -52.2900  -26.7971   16.3471 C.2       10 UNK         0.5072 
     39 O         -51.8313  -26.6174   17.4781 O.2       10 UNK        -0.5224 
     40 CA        -51.6039  -26.1844   15.1129 C.3       9 UNK         0.0343 
     41 CB        -52.2430  -24.8260   14.7806 C.3       9 UNK        -0.2003 
     42 N         -50.1599  -26.0056   15.2693 N.am      9 UNK        -0.4272 
     43 C         -49.2685  -26.9994   15.3977 C.2       9 UNK         0.4988 
     44 O         -49.5787  -28.1921   15.3804 O.2       9 UNK        -0.5108 
     45 CA        -47.7837  -26.6097   15.5508 C.3       8 UNK         0.0248 
     46 CB        -46.8572  -27.5998   14.8196 C.3       8 UNK        -0.2001 
     47 N         -47.5166  -25.2613   15.0441 N.am      8 UNK        -0.4140 
     48 C         -47.3496  -24.1630   15.7966 C.2       8 UNK         0.5028 
     49 O         -47.3688  -24.1690   17.0276 O.2       8 UNK        -0.5428 
     50 CA        -47.1403  -22.8224   15.0612 C.3       7 UNK         0.0264 
     51 CB        -45.6462  -22.4638   15.0142 C.3       7 UNK        -0.1988 
     52 N         -47.6762  -22.8212   13.6972 N.am      7 UNK        -0.4454 
     53 C         -48.9793  -22.9002   13.3892 C.2       7 UNK         0.5027 
     54 O         -49.8695  -22.8128   14.2333 O.2       7 UNK        -0.5083 
     55 CA        -49.3575  -23.1742   11.9161 C.3       6 UNK         0.0844 
     56 C56       -50.1431  -21.9859   11.3014 C.3       14 UNK        -0.0967 
     57 S57       -50.5082  -22.1885    9.5194 S.3       14 UNK        -0.2604 
     58 C58       -52.1675  -22.9488    9.5231 C.3       14 UNK         0.0134 
     59 N         -48.2190  -23.5892   11.0862 N.am      6 UNK        -0.4116 
     60 C         -47.5419  -24.7386   11.1933 C.2       5 UNK         0.5034 
     61 O         -47.7478  -25.5574   12.0909 O.2       5 UNK        -0.5045 
     62 CA        -46.4469  -25.0015   10.1368 C.3       5 UNK         0.0224 
     63 CB        -45.8068  -26.3926   10.2974 C.3       5 UNK        -0.1978 
     64 N         -46.9301  -24.8579    8.7575 N.am      5 UNK        -0.4737 
     65 C         -47.2125  -23.6993    8.1447 C.2       4 UNK         0.5027 
     66 O         -47.0775  -22.6004    8.6870 O.2       4 UNK        -0.5211 
     67 CA        -47.7369  -23.7949    6.7003 C.3       4 UNK         0.0297 
     68 CB        -47.9361  -22.4189    6.0311 C.3       4 UNK        -0.1993 
     69 N         -46.9088  -24.6741    5.8709 N.am      4 UNK        -0.4486 
     70 C         -45.6054  -24.5380    5.5767 C.2       3 UNK         0.4961 
     71 O         -44.9243  -23.5638    5.8988 O.2       3 UNK        -0.5105 
     72 CA        -44.9265  -25.6886    4.8079 C.3       3 UNK         0.0299 
     73 CB        -43.8996  -26.4002    5.7061 C.3       3 UNK        -0.1972 
     74 N         -45.8797  -26.6799    4.3040 N.am      3 UNK        -0.4305 
     75 C         -46.5655  -26.5721    3.1573 C.2       2 UNK         0.5006 
     76 O         -46.4129  -25.6537    2.3513 O.2       2 UNK        -0.5106 
     77 CA        -47.6109  -27.6653    2.8622 C.3       2 UNK         0.0296 
     78 CB        -47.0114  -28.7486    1.9507 C.3       2 UNK        -0.2002 
     79 N         -48.1634  -28.2971    4.0667 N.am      2 UNK        -0.4032 
     80 C         -48.9216  -27.6716    4.9805 C.2       1 UNK         0.5000 
     81 O         -49.2436  -26.4848    4.8944 O.2       1 UNK        -0.5238 
     82 H82       -45.0287  -29.2411    7.4646 H         1 UNK         0.0889 
     83 H83       -46.2024  -30.5244    7.7637 H         1 UNK         0.0889 
     84 H84       -45.9080  -29.2943    8.9941 H         1 UNK         0.0889 
     85 H85       -48.2130  -30.1855    6.8457 H         1 UNK         0.3028 
     86 H86       -49.9700  -29.2966    5.8445 H         1 UNK         0.0864 
     87 H87       -51.0592  -27.2982    6.7863 H         1 UNK         0.0720 
     88 H88       -49.5852  -26.8082    7.5775 H         1 UNK         0.0720 
     89 H89       -49.2085  -27.0989    9.8540 H         1 UNK         0.0814 
     90 H90       -49.9785  -28.2048   10.9563 H         1 UNK         0.0814 
     91 H91       -50.4005  -25.0296    9.1426 H         1 UNK         0.1469 
     92 H92       -54.0426  -24.0158   11.1771 H         1 UNK         0.1381 
     93 H93       -52.3259  -27.9120   11.6533 H         1 UNK         0.1206 
     94 H94       -54.1171  -27.1584   13.1370 H         1 UNK         0.0813 
     95 H95       -54.7353  -25.5369   13.0402 H         1 UNK         0.0813 
     96 H96       -56.1400  -28.7427   10.0056 H         1 UNK         0.0638 
     97 H97       -54.4724  -28.4602   10.3480 H         1 UNK         0.0638 
     98 H98       -55.5796  -30.6762   11.0970 H         1 UNK         0.0568 
     99 H99       -53.1792  -29.9932   14.2718 H         1 UNK         0.3450 
    100 H100      -54.8323  -29.3945   14.2823 H         1 UNK         0.3450 
    101 H101      -57.1152  -28.9621   12.8248 H         1 UNK         0.2987 
    102 H102      -59.1734  -30.3945   13.4861 H         1 UNK         0.0766 
    103 H103      -59.1270  -32.8392   13.9124 H         1 UNK         0.0798 
    104 H104      -59.7857  -31.9888   15.2996 H         1 UNK         0.0798 
    105 H105      -58.1337  -32.6016   15.3450 H         1 UNK         0.0798 
    106 H106      -57.3052  -30.1278   15.8201 H         1 UNK         0.3198 
    107 H107      -58.3244  -26.8329   16.3468 H         1 UNK         0.0843 
    108 H108      -59.1047  -29.1070   18.2478 H         1 UNK         0.0831 
    109 H109      -60.2185  -27.9257   17.5746 H         1 UNK         0.0831 
    110 H110      -58.9528  -27.3996   18.6685 H         1 UNK         0.0831 
    111 H111      -56.7152  -28.1941   18.0931 H         1 UNK         0.3133 
    112 H112      -54.4453  -27.3020   17.9064 H         1 UNK         0.0566 
    113 H113      -53.0207  -29.3964   17.9453 H         1 UNK         0.0814 
    114 H114      -53.9892  -30.0837   16.6454 H         1 UNK         0.0814 
    115 H115      -54.7114  -29.7765   18.2180 H         1 UNK         0.0814 
    116 H116      -53.7692  -27.4740   15.1343 H         1 UNK         0.3091 
    117 H117      -51.7605  -26.8579   14.2675 H         1 UNK         0.0702 
    118 H118      -51.9714  -24.0644   15.5125 H         1 UNK         0.0785 
    119 H119      -53.3313  -24.8828   14.7728 H         1 UNK         0.0785 
    120 H120      -51.9330  -24.4755   13.7961 H         1 UNK         0.0785 
    121 H121      -49.8287  -25.0522   15.3113 H         1 UNK         0.2998 
    122 H122      -47.5532  -26.6619   16.6167 H         1 UNK         0.0697 
    123 H123      -47.0841  -27.6508   13.7539 H         1 UNK         0.0825 
    124 H124      -46.9592  -28.6077   15.2239 H         1 UNK         0.0825 
    125 H125      -45.8101  -27.3159   14.9259 H         1 UNK         0.0825 
    126 H126      -47.5205  -25.1734   14.0317 H         1 UNK         0.3029 
    127 H127      -47.6625  -22.0511   15.6318 H         1 UNK         0.0897 
    128 H128      -45.0715  -23.1964   14.4460 H         1 UNK         0.0792 
    129 H129      -45.2229  -22.4267   16.0191 H         1 UNK         0.0792 
    130 H130      -45.4862  -21.4848   14.5619 H         1 UNK         0.0792 
    131 H131      -47.0066  -22.8764   12.9439 H         1 UNK         0.3086 
    132 H132      -50.0365  -24.0272   11.9542 H         1 UNK         0.0583 
    133 H133      -51.0789  -21.8293   11.8419 H         1 UNK         0.1020 
    134 H134      -49.5741  -21.0609   11.4126 H         1 UNK         0.1020 
    135 H135      -52.8501  -22.2884   10.0604 H         1 UNK         0.0694 
    136 H136      -52.5288  -22.9946    8.4951 H         1 UNK         0.0694 
    137 H137      -47.9840  -22.9812   10.3051 H         1 UNK         0.2989 
    138 H138      -45.6646  -24.2571   10.3004 H         1 UNK         0.1055 
    139 H139      -46.5470  -27.1864   10.1928 H         1 UNK         0.0806 
    140 H140      -45.0269  -26.5609    9.5544 H         1 UNK         0.0806 
    141 H141      -45.3476  -26.5031   11.2807 H         1 UNK         0.0806 
    142 H142      -47.0276  -25.7220    8.2253 H         1 UNK         0.3061 
    143 H143      -48.7163  -24.2718    6.7645 H         1 UNK         0.0734 
    144 H144      -47.0042  -21.8562    5.9712 H         1 UNK         0.0832 
    145 H145      -48.3327  -22.5230    5.0213 H         1 UNK         0.0832 
    146 H146      -48.6446  -21.8125    6.5972 H         1 UNK         0.0832 
    147 H147      -47.3708  -25.5232    5.5679 H         1 UNK         0.3156 
    148 H148      -44.3905  -25.2489    3.9642 H         1 UNK         0.0589 
    149 H149      -43.3956  -27.2072    5.1742 H         1 UNK         0.0808 
    150 H150      -43.1289  -25.7052    6.0422 H         1 UNK         0.0808 
    151 H151      -44.3644  -26.8215    6.5980 H         1 UNK         0.0808 
    152 H152      -46.0844  -27.4550    4.9178 H         1 UNK         0.3098 
    153 H153      -48.4362  -27.1888    2.3286 H         1 UNK         0.0720 
    154 H154      -46.6172  -28.3112    1.0322 H         1 UNK         0.0791 
    155 H155      -47.7622  -29.4836    1.6597 H         1 UNK         0.0791 
    156 H156      -46.1912  -29.2786    2.4368 H         1 UNK         0.0791 
    157 H157      -47.9314  -29.2685    4.2183 H         1 UNK         0.3028 
@<TRIPOS>BOND
     1    1    2 1    
     2    1   82 1    
     3    1   83 1    
     4    1   84 1    
     5    2    3 2    
     6    2    4 am   BACKBONE|DICT|INTERRES
     7    4    5 1    
     8    4   85 1    
     9    5    6 1    
    10    5   80 1    
    11    5   86 1    
    12    6    7 1    
    13    6   87 1    
    14    6   88 1    
    15    7    8 1    
    16    8    9 1    
    17    8   89 1    
    18    8   90 1    
    19    9   10 ar   
    20    9   14 ar   
    21   10   11 ar   
    22   10   91 1    
    23   11   12 ar   
    24   11   58 1    
    25   12   13 ar   
    26   12   92 1    
    27   13   14 ar   
    28   13   15 1    
    29   14   93 1    
    30   15   16 1    
    31   15   94 1    
    32   15   95 1    
    33   16   17 1    
    34   17   18 1    
    35   17   96 1    
    36   17   97 1    
    37   18   19 1    
    38   18   22 1    
    39   18   98 1    
    40   19   20 am   BACKBONE|DICT|INTERRES
    41   19   21 2    
    42   20   99 1    
    43   20  100 1    
    44   22   23 am   BACKBONE|DICT|INTERRES
    45   22  101 1    
    46   23   24 2    
    47   23   25 1    
    48   25   26 1    
    49   25   27 1    
    50   25  102 1    
    51   26  103 1    
    52   26  104 1    
    53   26  105 1    
    54   27   28 am   BACKBONE|DICT|INTERRES
    55   27  106 1    
    56   28   29 2    
    57   28   30 1    
    58   30   31 1    
    59   30   32 1    
    60   30  107 1    
    61   31  108 1    
    62   31  109 1    
    63   31  110 1    
    64   32   33 am   BACKBONE|DICT|INTERRES
    65   32  111 1    
    66   33   34 2    
    67   33   35 1    
    68   35   36 1    
    69   35   37 1    
    70   35  112 1    
    71   36  113 1    
    72   36  114 1    
    73   36  115 1    
    74   37   38 am   BACKBONE|DICT|INTERRES
    75   37  116 1    
    76   38   39 2    
    77   38   40 1    
    78   40   41 1    
    79   40   42 1    
    80   40  117 1    
    81   41  118 1    
    82   41  119 1    
    83   41  120 1    
    84   42   43 am   BACKBONE|DICT|INTERRES
    85   42  121 1    
    86   43   44 2    
    87   43   45 1    
    88   45   46 1    
    89   45   47 1    
    90   45  122 1    
    91   46  123 1    
    92   46  124 1    
    93   46  125 1    
    94   47   48 am   BACKBONE|DICT|INTERRES
    95   47  126 1    
    96   48   49 2    
    97   48   50 1    
    98   50   51 1    
    99   50   52 1    
   100   50  127 1    
   101   51  128 1    
   102   51  129 1    
   103   51  130 1    
   104   52   53 am   BACKBONE|DICT|INTERRES
   105   52  131 1    
   106   53   54 2    
   107   53   55 1    
   108   55   56 1    
   109   55   59 1    
   110   55  132 1    
   111   56   57 1    
   112   56  133 1    
   113   56  134 1    
   114   57   58 1    
   115   58  135 1    
   116   58  136 1    
   117   59   60 am   BACKBONE|DICT|INTERRES
   118   59  137 1    
   119   60   61 2    
   120   60   62 1    
   121   62   63 1    
   122   62   64 1    
   123   62  138 1    
   124   63  139 1    
   125   63  140 1    
   126   63  141 1    
   127   64   65 am   BACKBONE|DICT|INTERRES
   128   64  142 1    
   129   65   66 2    
   130   65   67 1    
   131   67   68 1    
   132   67   69 1    
   133   67  143 1    
   134   68  144 1    
   135   68  145 1    
   136   68  146 1    
   137   69   70 am   BACKBONE|DICT|INTERRES
   138   69  147 1    
   139   70   71 2    
   140   70   72 1    
   141   72   73 1    
   142   72   74 1    
   143   72  148 1    
   144   73  149 1    
   145   73  150 1    
   146   73  151 1    
   147   74   75 am   BACKBONE|DICT|INTERRES
   148   74  152 1    
   149   75   76 2    
   150   75   77 1    
   151   77   78 1    
   152   77   79 1    
   153   77  153 1    
   154   78  154 1    
   155   78  155 1    
   156   78  156 1    
   157   79   80 am   BACKBONE|DICT|INTERRES
   158   79  157 1    
   159   80   81 2    
@<TRIPOS>SUBSTRUCTURE
     1 UNK         1 GROUP             0       ****    0 ROOT    
