@<TRIPOS>MOLECULE
3R207
157   159    1
SMALL
USER_CHARGES


@<TRIPOS>ATOM
      1 CA        -48.7241  -31.4328    1.7815 C.3       0 UNK        -0.1975 
      2 C         -48.8351  -30.3032    2.7951 C.2       0 UNK         0.4852 
      3 O         -48.3308  -29.2068    2.5469 O.2       0 UNK        -0.5216 
      4 N         -49.4991  -30.5595    3.9293 N.am      1 UNK        -0.4461 
      5 CA        -49.6680  -29.6116    5.0364 C.3       1 UNK         0.0864 
      6 C6        -50.7780  -30.0604    6.0196 C.3       14 UNK        -0.0898 
      7 S7        -52.3889  -30.3472    5.2046 S.3       14 UNK        -0.2598 
      8 C8        -53.0835  -28.6665    5.0804 C.3       14 UNK         0.0286 
      9 C9        -53.4102  -28.0786    6.4447 C.ar      14 UNK        -0.0844 
     10 C10       -52.5587  -27.1347    7.0241 C.ar      14 UNK        -0.0881 
     11 C11       -52.8301  -26.6187    8.2934 C.ar      14 UNK        -0.0643 
     12 C12       -53.9754  -27.0392    8.9749 C.ar      14 UNK        -0.0930 
     13 C13       -54.8611  -27.9522    8.3891 C.ar      14 UNK        -0.0827 
     14 C14       -54.5654  -28.4745    7.1259 C.ar      14 UNK        -0.1249 
     15 C15       -56.1185  -28.4049    9.1244 C.3       14 UNK         0.0141 
     16 S16       -57.0372  -27.0187    9.8714 S.3       14 UNK        -0.2313 
     17 C17       -58.1335  -27.8914   11.0377 C.3       14 UNK        -0.0915 
     18 CA        -57.5536  -27.9119   12.4801 C.3       13 UNK         0.0968 
     19 C         -58.6433  -28.2616   13.5358 C.2       13 UNK         0.5732 
     20 N         -58.4421  -29.2430   14.4080 N.am      13 UNK        -0.7310 
     21 O         -59.6885  -27.6168   13.5797 O.2       13 UNK        -0.5035 
     22 N         -56.3639  -28.7780   12.5642 N.am      13 UNK        -0.4233 
     23 C         -55.2116  -28.4533   13.1595 C.2       13 UNK         0.4989 
     24 O         -54.9840  -27.3614   13.6868 O.2       13 UNK        -0.4996 
     25 CA        -54.1312  -29.5442   13.1513 C.3       12 UNK         0.0216 
     26 CB        -53.5282  -29.7317   11.7480 C.3       12 UNK        -0.1964 
     27 N         -53.0653  -29.1791   14.0792 N.am      12 UNK        -0.4276 
     28 C         -52.4584  -30.0144   14.9298 C.2       12 UNK         0.5020 
     29 O         -52.7004  -31.2206   14.9976 O.2       12 UNK        -0.5489 
     30 CA        -51.4000  -29.4146   15.8687 C.3       11 UNK         0.0294 
     31 CB        -49.9864  -29.6366   15.3073 C.3       11 UNK        -0.2019 
     32 N         -51.6002  -27.9852   16.1036 N.am      11 UNK        -0.4493 
     33 C         -52.4633  -27.4682   16.9877 C.2       11 UNK         0.4932 
     34 O         -53.2080  -28.1499   17.6944 O.2       11 UNK        -0.5029 
     35 CA        -52.4662  -25.9302   17.1096 C.3       10 UNK         0.0280 
     36 CB        -53.1879  -25.4244   18.3762 C.3       10 UNK        -0.1976 
     37 N         -51.1184  -25.3524   17.0109 N.am      10 UNK        -0.4242 
     38 C         -50.0526  -25.6267   17.7838 C.2       10 UNK         0.5072 
     39 O         -50.0963  -26.3534   18.7775 O.2       10 UNK        -0.5224 
     40 CA        -48.6928  -25.0301   17.3712 C.3       9 UNK         0.0343 
     41 CB        -47.6933  -26.1542   17.0464 C.3       9 UNK        -0.2003 
     42 N         -48.7910  -24.1320   16.2168 N.am      9 UNK        -0.4272 
     43 C         -49.0422  -22.8184   16.3083 C.2       9 UNK         0.4988 
     44 O         -49.1432  -22.2137   17.3764 O.2       9 UNK        -0.5108 
     45 CA        -49.2498  -22.0479   14.9932 C.3       8 UNK         0.0248 
     46 CB        -47.9060  -21.5722   14.4207 C.3       8 UNK        -0.2001 
     47 N         -49.9909  -22.7946   13.9707 N.am      8 UNK        -0.4140 
     48 C         -51.2551  -23.2238   14.1058 C.2       8 UNK         0.5028 
     49 O         -51.9047  -23.1246   15.1458 O.2       8 UNK        -0.5428 
     50 CA        -51.9034  -23.8861   12.8852 C.3       7 UNK         0.0264 
     51 CB        -52.3444  -22.8234   11.8646 C.3       7 UNK        -0.1988 
     52 N         -50.9878  -24.8281   12.2492 N.am      7 UNK        -0.4454 
     53 C         -50.8902  -26.1243   12.5711 C.2       7 UNK         0.5027 
     54 O         -51.5726  -26.6724   13.4385 O.2       7 UNK        -0.5083 
     55 CA        -49.8242  -26.9463   11.8158 C.3       6 UNK         0.0844 
     56 C56       -50.3487  -27.4291   10.4356 C.3       14 UNK        -0.0967 
     57 S57       -50.1963  -26.1870    9.0966 S.3       14 UNK        -0.2604 
     58 C58       -51.9042  -25.5838    8.9143 C.3       14 UNK         0.0134 
     59 N         -48.5410  -26.2524   11.6890 N.am      6 UNK        -0.4116 
     60 C         -47.8244  -25.6798   12.6638 C.2       5 UNK         0.5034 
     61 O         -48.1096  -25.7240   13.8596 O.2       5 UNK        -0.5045 
     62 CA        -46.6148  -24.8500   12.2029 C.3       5 UNK         0.0224 
     63 CB        -45.3726  -25.7451   12.0731 C.3       5 UNK        -0.1978 
     64 N         -46.8250  -24.1307   10.9384 N.am      5 UNK        -0.4737 
     65 C         -47.8416  -23.3100   10.6365 C.2       4 UNK         0.5027 
     66 O         -48.7685  -23.0681   11.4106 O.2       4 UNK        -0.5211 
     67 CA        -47.8733  -22.6777    9.2322 C.3       4 UNK         0.0297 
     68 CB        -47.5280  -21.1779    9.3038 C.3       4 UNK        -0.1993 
     69 N         -47.0738  -23.3632    8.2023 N.am      4 UNK        -0.4486 
     70 C         -45.7432  -23.4886    8.1049 C.2       3 UNK         0.4961 
     71 O         -44.9521  -23.0797    8.9552 O.2       3 UNK        -0.5105 
     72 CA        -45.2230  -24.2570    6.8754 C.3       3 UNK         0.0299 
     73 CB        -43.7029  -24.0993    6.6832 C.3       3 UNK        -0.1972 
     74 N         -45.5449  -25.6836    6.9599 N.am      3 UNK        -0.4305 
     75 C         -46.7508  -26.2170    6.7307 C.2       2 UNK         0.5006 
     76 O         -47.7436  -25.5560    6.4097 O.2       2 UNK        -0.5106 
     77 CA        -46.8677  -27.7349    6.9059 C.3       2 UNK         0.0296 
     78 CB        -46.8570  -28.1328    8.3947 C.3       2 UNK        -0.2002 
     79 N         -48.1045  -28.1760    6.2672 N.am      2 UNK        -0.4032 
     80 C         -48.3327  -29.4007    5.7819 C.2       1 UNK         0.5000 
     81 O         -47.5486  -30.3459    5.9130 O.2       1 UNK        -0.5238 
     82 H82       -49.2272  -32.3374    2.1225 H         1 UNK         0.0889 
     83 H83       -47.6766  -31.6742    1.6027 H         1 UNK         0.0889 
     84 H84       -49.1718  -31.1326    0.8345 H         1 UNK         0.0889 
     85 H85       -49.8845  -31.4797    4.0852 H         1 UNK         0.3028 
     86 H86       -49.9644  -28.6532    4.6046 H         1 UNK         0.0864 
     87 H87       -50.4911  -30.9932    6.5093 H         1 UNK         0.0720 
     88 H88       -50.9033  -29.3345    6.8240 H         1 UNK         0.0720 
     89 H89       -53.9927  -28.7067    4.4789 H         1 UNK         0.0814 
     90 H90       -52.3904  -28.0243    4.5351 H         1 UNK         0.0814 
     91 H91       -51.6721  -26.8096    6.4972 H         1 UNK         0.1469 
     92 H92       -54.1889  -26.6424    9.9581 H         1 UNK         0.1381 
     93 H93       -55.2280  -29.1992    6.6722 H         1 UNK         0.1206 
     94 H94       -56.7899  -28.9378    8.4494 H         1 UNK         0.0813 
     95 H95       -55.8305  -29.1156    9.8952 H         1 UNK         0.0813 
     96 H96       -58.3351  -28.9025   10.6799 H         1 UNK         0.0638 
     97 H97       -59.0898  -27.3659   11.0108 H         1 UNK         0.0638 
     98 H98       -57.2637  -26.8879   12.7226 H         1 UNK         0.0568 
     99 H99       -59.1569  -29.4487   15.0881 H         1 UNK         0.3450 
    100 H100      -57.5840  -29.7693   14.4049 H         1 UNK         0.3450 
    101 H101      -56.4721  -29.7045   12.1788 H         1 UNK         0.2987 
    102 H102      -54.5955  -30.4790   13.4725 H         1 UNK         0.0766 
    103 H103      -54.2282  -30.2372   11.0841 H         1 UNK         0.0798 
    104 H104      -53.2727  -28.7758   11.2924 H         1 UNK         0.0798 
    105 H105      -52.6252  -30.3419   11.7769 H         1 UNK         0.0798 
    106 H106      -52.8231  -28.1916   14.0942 H         1 UNK         0.3198 
    107 H107      -51.4716  -29.9402   16.8237 H         1 UNK         0.0843 
    108 H108      -49.7940  -30.6981   15.1451 H         1 UNK         0.0831 
    109 H109      -49.2242  -29.2714   15.9960 H         1 UNK         0.0831 
    110 H110      -49.8468  -29.1308   14.3526 H         1 UNK         0.0831 
    111 H111      -51.0936  -27.3489   15.5009 H         1 UNK         0.3133 
    112 H112      -53.0189  -25.5604   16.2445 H         1 UNK         0.0566 
    113 H113      -53.1909  -24.3353   18.4208 H         1 UNK         0.0814 
    114 H114      -54.2284  -25.7511   18.3900 H         1 UNK         0.0814 
    115 H115      -52.7179  -25.7971   19.2868 H         1 UNK         0.0814 
    116 H116      -50.9993  -24.6833   16.2589 H         1 UNK         0.3091 
    117 H117      -48.3053  -24.4775   18.2297 H         1 UNK         0.0702 
    118 H118      -46.7348  -25.7532   16.7167 H         1 UNK         0.0785 
    119 H119      -48.0684  -26.8148   16.2640 H         1 UNK         0.0785 
    120 H120      -47.5013  -26.7716   17.9249 H         1 UNK         0.0785 
    121 H121      -48.6859  -24.5627   15.3011 H         1 UNK         0.2998 
    122 H122      -49.8430  -21.1617   15.2285 H         1 UNK         0.0697 
    123 H123      -47.2453  -22.4079   14.1981 H         1 UNK         0.0825 
    124 H124      -47.3863  -20.9294   15.1325 H         1 UNK         0.0825 
    125 H125      -48.0426  -20.9977   13.5041 H         1 UNK         0.0825 
    126 H126      -49.5327  -22.9124   13.0685 H         1 UNK         0.3029 
    127 H127      -52.7958  -24.4173   13.2257 H         1 UNK         0.0897 
    128 H128      -52.9047  -23.2694   11.0435 H         1 UNK         0.0792 
    129 H129      -52.9958  -22.0828   12.3307 H         1 UNK         0.0792 
    130 H130      -51.4943  -22.2884   11.4391 H         1 UNK         0.0792 
    131 H131      -50.3245  -24.4395   11.5880 H         1 UNK         0.3086 
    132 H132      -49.6332  -27.8326   12.4219 H         1 UNK         0.0583 
    133 H133      -49.7731  -28.3023   10.1256 H         1 UNK         0.1020 
    134 H134      -51.3774  -27.7837   10.5000 H         1 UNK         0.1020 
    135 H135      -52.2810  -25.2627    9.8843 H         1 UNK         0.0694 
    136 H136      -51.8947  -24.6965    8.2802 H         1 UNK         0.0694 
    137 H137      -48.2301  -26.1032   10.7406 H         1 UNK         0.2989 
    138 H138      -46.4161  -24.1061   12.9740 H         1 UNK         0.1055 
    139 H139      -44.4827  -25.1577   11.8453 H         1 UNK         0.0806 
    140 H140      -45.4913  -26.4921   11.2872 H         1 UNK         0.0806 
    141 H141      -45.1762  -26.2787   13.0044 H         1 UNK         0.0806 
    142 H142      -46.0739  -24.1758   10.2591 H         1 UNK         0.3061 
    143 H143      -48.9080  -22.7594    8.8951 H         1 UNK         0.0734 
    144 H144      -48.1992  -20.6571    9.9884 H         1 UNK         0.0832 
    145 H145      -46.5114  -21.0097    9.6603 H         1 UNK         0.0832 
    146 H146      -47.6264  -20.7005    8.3291 H         1 UNK         0.0832 
    147 H147      -47.6141  -23.8504    7.4918 H         1 UNK         0.3156 
    148 H148      -45.7120  -23.8363    5.9940 H         1 UNK         0.0589 
    149 H149      -43.1410  -24.5236    7.5163 H         1 UNK         0.0808 
    150 H150      -43.3659  -24.5868    5.7683 H         1 UNK         0.0808 
    151 H151      -43.4271  -23.0465    6.6073 H         1 UNK         0.0808 
    152 H152      -44.7925  -26.2944    7.2450 H         1 UNK         0.3098 
    153 H153      -46.0198  -28.1991    6.3975 H         1 UNK         0.0720 
    154 H154      -46.9565  -29.2111    8.5192 H         1 UNK         0.0791 
    155 H155      -47.6686  -27.6587    8.9435 H         1 UNK         0.0791 
    156 H156      -45.9235  -27.8395    8.8761 H         1 UNK         0.0791 
    157 H157      -48.7636  -27.4242    6.1026 H         1 UNK         0.3028 
@<TRIPOS>BOND
     1    1    2 1    
     2    1   82 1    
     3    1   83 1    
     4    1   84 1    
     5    2    3 2    
     6    2    4 am   BACKBONE|DICT|INTERRES
     7    4    5 1    
     8    4   85 1    
     9    5    6 1    
    10    5   80 1    
    11    5   86 1    
    12    6    7 1    
    13    6   87 1    
    14    6   88 1    
    15    7    8 1    
    16    8    9 1    
    17    8   89 1    
    18    8   90 1    
    19    9   10 ar   
    20    9   14 ar   
    21   10   11 ar   
    22   10   91 1    
    23   11   12 ar   
    24   11   58 1    
    25   12   13 ar   
    26   12   92 1    
    27   13   14 ar   
    28   13   15 1    
    29   14   93 1    
    30   15   16 1    
    31   15   94 1    
    32   15   95 1    
    33   16   17 1    
    34   17   18 1    
    35   17   96 1    
    36   17   97 1    
    37   18   19 1    
    38   18   22 1    
    39   18   98 1    
    40   19   20 am   BACKBONE|DICT|INTERRES
    41   19   21 2    
    42   20   99 1    
    43   20  100 1    
    44   22   23 am   BACKBONE|DICT|INTERRES
    45   22  101 1    
    46   23   24 2    
    47   23   25 1    
    48   25   26 1    
    49   25   27 1    
    50   25  102 1    
    51   26  103 1    
    52   26  104 1    
    53   26  105 1    
    54   27   28 am   BACKBONE|DICT|INTERRES
    55   27  106 1    
    56   28   29 2    
    57   28   30 1    
    58   30   31 1    
    59   30   32 1    
    60   30  107 1    
    61   31  108 1    
    62   31  109 1    
    63   31  110 1    
    64   32   33 am   BACKBONE|DICT|INTERRES
    65   32  111 1    
    66   33   34 2    
    67   33   35 1    
    68   35   36 1    
    69   35   37 1    
    70   35  112 1    
    71   36  113 1    
    72   36  114 1    
    73   36  115 1    
    74   37   38 am   BACKBONE|DICT|INTERRES
    75   37  116 1    
    76   38   39 2    
    77   38   40 1    
    78   40   41 1    
    79   40   42 1    
    80   40  117 1    
    81   41  118 1    
    82   41  119 1    
    83   41  120 1    
    84   42   43 am   BACKBONE|DICT|INTERRES
    85   42  121 1    
    86   43   44 2    
    87   43   45 1    
    88   45   46 1    
    89   45   47 1    
    90   45  122 1    
    91   46  123 1    
    92   46  124 1    
    93   46  125 1    
    94   47   48 am   BACKBONE|DICT|INTERRES
    95   47  126 1    
    96   48   49 2    
    97   48   50 1    
    98   50   51 1    
    99   50   52 1    
   100   50  127 1    
   101   51  128 1    
   102   51  129 1    
   103   51  130 1    
   104   52   53 am   BACKBONE|DICT|INTERRES
   105   52  131 1    
   106   53   54 2    
   107   53   55 1    
   108   55   56 1    
   109   55   59 1    
   110   55  132 1    
   111   56   57 1    
   112   56  133 1    
   113   56  134 1    
   114   57   58 1    
   115   58  135 1    
   116   58  136 1    
   117   59   60 am   BACKBONE|DICT|INTERRES
   118   59  137 1    
   119   60   61 2    
   120   60   62 1    
   121   62   63 1    
   122   62   64 1    
   123   62  138 1    
   124   63  139 1    
   125   63  140 1    
   126   63  141 1    
   127   64   65 am   BACKBONE|DICT|INTERRES
   128   64  142 1    
   129   65   66 2    
   130   65   67 1    
   131   67   68 1    
   132   67   69 1    
   133   67  143 1    
   134   68  144 1    
   135   68  145 1    
   136   68  146 1    
   137   69   70 am   BACKBONE|DICT|INTERRES
   138   69  147 1    
   139   70   71 2    
   140   70   72 1    
   141   72   73 1    
   142   72   74 1    
   143   72  148 1    
   144   73  149 1    
   145   73  150 1    
   146   73  151 1    
   147   74   75 am   BACKBONE|DICT|INTERRES
   148   74  152 1    
   149   75   76 2    
   150   75   77 1    
   151   77   78 1    
   152   77   79 1    
   153   77  153 1    
   154   78  154 1    
   155   78  155 1    
   156   78  156 1    
   157   79   80 am   BACKBONE|DICT|INTERRES
   158   79  157 1    
   159   80   81 2    
@<TRIPOS>SUBSTRUCTURE
     1 UNK         1 GROUP             0       ****    0 ROOT    
