@<TRIPOS>MOLECULE
3R207
157   159    1
SMALL
USER_CHARGES


@<TRIPOS>ATOM
      1 CA        -48.8910  -32.3422    4.7307 C.3       0 UNK        -0.1975 
      2 C         -48.3805  -31.1628    3.9161 C.2       0 UNK         0.4852 
      3 O         -47.2364  -31.1817    3.4615 O.2       0 UNK        -0.5216 
      4 N         -49.2210  -30.1349    3.7322 N.am      1 UNK        -0.4461 
      5 CA        -48.9061  -28.9086    2.9851 C.3       1 UNK         0.0864 
      6 C6        -50.1968  -28.1333    2.5989 C.3       14 UNK        -0.0898 
      7 S7        -51.0388  -27.2978    3.9919 S.3       14 UNK        -0.2598 
      8 C8        -52.2742  -28.5284    4.5088 C.3       14 UNK         0.0286 
      9 C9        -52.5159  -28.4642    6.0108 C.ar      14 UNK        -0.0844 
     10 C10       -51.5148  -28.8739    6.8987 C.ar      14 UNK        -0.0881 
     11 C11       -51.7257  -28.8569    8.2803 C.ar      14 UNK        -0.0643 
     12 C12       -52.9762  -28.4506    8.7591 C.ar      14 UNK        -0.0930 
     13 C13       -53.9762  -27.9965    7.8942 C.ar      14 UNK        -0.0827 
     14 C14       -53.7388  -28.0113    6.5163 C.ar      14 UNK        -0.1249 
     15 C15       -55.3260  -27.5260    8.4337 C.3       14 UNK         0.0141 
     16 S16       -55.2097  -26.6517   10.0404 S.3       14 UNK        -0.2313 
     17 C17       -56.6115  -27.3781   10.9585 C.3       14 UNK        -0.0915 
     18 CA        -56.2310  -28.5597   11.8941 C.3       13 UNK         0.0968 
     19 C         -55.8596  -29.8541   11.1094 C.2       13 UNK         0.5732 
     20 N         -54.6624  -30.4085   11.2588 N.am      13 UNK        -0.7310 
     21 O         -56.6842  -30.3721   10.3602 O.2       13 UNK        -0.5035 
     22 N         -55.2786  -28.1548   12.9432 N.am      13 UNK        -0.4233 
     23 C         -55.1006  -28.8169   14.0957 C.2       13 UNK         0.4989 
     24 O         -55.7186  -29.8394   14.3956 O.2       13 UNK        -0.4996 
     25 CA        -54.0646  -28.2662   15.0937 C.3       12 UNK         0.0216 
     26 CB        -52.7372  -29.0308   14.9632 C.3       12 UNK        -0.1964 
     27 N         -53.8017  -26.8269   15.0018 N.am      12 UNK        -0.4276 
     28 C         -54.6975  -25.8527   15.2055 C.2       12 UNK         0.5020 
     29 O         -55.8971  -26.0496   15.4107 O.2       12 UNK        -0.5489 
     30 CA        -54.1288  -24.4207   15.2036 C.3       11 UNK         0.0294 
     31 CB        -55.2230  -23.3347   15.2742 C.3       11 UNK        -0.2019 
     32 N         -53.1261  -24.2202   16.2614 N.am      11 UNK        -0.4493 
     33 C         -53.3006  -24.3890   17.5823 C.2       11 UNK         0.4932 
     34 O         -54.3702  -24.7086   18.1046 O.2       11 UNK        -0.5029 
     35 CA        -52.0660  -24.1393   18.4708 C.3       10 UNK         0.0280 
     36 CB        -52.2907  -24.5391   19.9450 C.3       10 UNK        -0.1976 
     37 N         -50.8397  -24.7565   17.9553 N.am      10 UNK        -0.4242 
     38 C         -50.6003  -26.0530   17.7065 C.2       10 UNK         0.5072 
     39 O         -51.4352  -26.9434   17.8735 O.2       10 UNK        -0.5224 
     40 CA        -49.1814  -26.4209   17.2078 C.3       9 UNK         0.0343 
     41 CB        -49.1389  -27.7984   16.5210 C.3       9 UNK        -0.2003 
     42 N         -48.6017  -25.4250   16.2997 N.am      9 UNK        -0.4272 
     43 C         -48.0865  -24.2405   16.6570 C.2       9 UNK         0.4988 
     44 O         -47.9769  -23.8728   17.8266 O.2       9 UNK        -0.5108 
     45 CA        -47.7077  -23.2683   15.5271 C.3       8 UNK         0.0248 
     46 CB        -46.2673  -23.5216   15.0556 C.3       8 UNK        -0.2001 
     47 N         -48.6247  -23.3194   14.3830 N.am      8 UNK        -0.4140 
     48 C         -49.9436  -23.0690   14.4379 C.2       8 UNK         0.5028 
     49 O         -50.5479  -22.7377   15.4594 O.2       8 UNK        -0.5428 
     50 CA        -50.7407  -23.2924   13.1444 C.3       7 UNK         0.0264 
     51 CB        -50.4767  -22.1716   12.1272 C.3       7 UNK        -0.1988 
     52 N         -50.4618  -24.5994   12.5454 N.am      7 UNK        -0.4454 
     53 C         -50.7006  -25.7798   13.1362 C.2       7 UNK         0.5027 
     54 O         -51.2752  -25.8953   14.2188 O.2       7 UNK        -0.5083 
     55 CA        -50.1941  -27.0499   12.4256 C.3       6 UNK         0.0844 
     56 C56       -51.2395  -27.5830   11.4221 C.3       14 UNK        -0.0967 
     57 S57       -50.9364  -29.3332   10.9930 S.3       14 UNK        -0.2604 
     58 C58       -50.5684  -29.2588    9.2022 C.3       14 UNK         0.0134 
     59 N         -48.8816  -26.8411   11.8112 N.am      6 UNK        -0.4116 
     60 C         -47.7509  -26.6299   12.4983 C.2       5 UNK         0.5034 
     61 O         -47.6799  -26.6398   13.7268 O.2       5 UNK        -0.5045 
     62 CA        -46.4997  -26.2998   11.6719 C.3       5 UNK         0.0224 
     63 CB        -45.8607  -27.5795   11.1093 C.3       5 UNK        -0.1978 
     64 N         -46.7990  -25.3676   10.5814 N.am      5 UNK        -0.4737 
     65 C         -47.1063  -24.0752   10.7721 C.2       4 UNK         0.5027 
     66 O         -47.1303  -23.5392   11.8794 O.2       4 UNK        -0.5211 
     67 CA        -47.4940  -23.2466    9.5332 C.3       4 UNK         0.0297 
     68 CB        -46.2428  -22.6261    8.8929 C.3       4 UNK        -0.1993 
     69 N         -48.2315  -24.0096    8.5237 N.am      4 UNK        -0.4486 
     70 C         -49.3948  -24.6420    8.7333 C.2       3 UNK         0.4961 
     71 O         -50.0144  -24.5979    9.7941 O.2       3 UNK        -0.5105 
     72 CA        -49.9397  -25.5172    7.5933 C.3       3 UNK         0.0299 
     73 CB        -50.9956  -24.7423    6.7902 C.3       3 UNK        -0.1972 
     74 N         -48.9186  -26.0646    6.6878 N.am      3 UNK        -0.4305 
     75 C         -47.8618  -26.8053    7.0583 C.2       2 UNK         0.5006 
     76 O         -47.6041  -27.0870    8.2299 O.2       2 UNK        -0.5106 
     77 CA        -46.9642  -27.3227    5.9254 C.3       2 UNK         0.0296 
     78 CB        -45.7733  -28.1559    6.4370 C.3       2 UNK        -0.2002 
     79 N         -47.7774  -28.1392    5.0302 N.am      2 UNK        -0.4032 
     80 C         -47.8740  -28.0032    3.7009 C.2       1 UNK         0.5000 
     81 O         -47.2136  -27.1972    3.0425 O.2       1 UNK        -0.5238 
     82 H82       -48.2572  -32.4975    5.6034 H         1 UNK         0.0889 
     83 H83       -48.8698  -33.2502    4.1287 H         1 UNK         0.0889 
     84 H84       -49.9131  -32.1892    5.0771 H         1 UNK         0.0889 
     85 H85       -50.1560  -30.1907    4.1058 H         1 UNK         0.3028 
     86 H86       -48.4328  -29.2230    2.0520 H         1 UNK         0.0864 
     87 H87       -50.9008  -28.7963    2.0933 H         1 UNK         0.0720 
     88 H88       -49.9497  -27.3653    1.8637 H         1 UNK         0.0720 
     89 H89       -51.9488  -29.5349    4.2468 H         1 UNK         0.0814 
     90 H90       -53.1983  -28.3549    3.9553 H         1 UNK         0.0814 
     91 H91       -50.5604  -29.1999    6.5117 H         1 UNK         0.1469 
     92 H92       -53.1832  -28.4695    9.8157 H         1 UNK         0.1381 
     93 H93       -54.5126  -27.6835    5.8355 H         1 UNK         0.1206 
     94 H94       -55.8065  -26.8566    7.7187 H         1 UNK         0.0813 
     95 H95       -55.9736  -28.3984    8.5186 H         1 UNK         0.0813 
     96 H96       -57.3961  -27.6730   10.2593 H         1 UNK         0.0638 
     97 H97       -57.0516  -26.5794   11.5574 H         1 UNK         0.0638 
     98 H98       -57.1522  -28.8234   12.4173 H         1 UNK         0.0568 
     99 H99       -54.4439  -31.2472   10.7459 H         1 UNK         0.3450 
    100 H100      -53.9819  -30.0063   11.8807 H         1 UNK         0.3450 
    101 H101      -54.7425  -27.3201   12.7639 H         1 UNK         0.2987 
    102 H102      -54.4612  -28.4508   16.0942 H         1 UNK         0.0766 
    103 H103      -52.8923  -30.1064   15.0592 H         1 UNK         0.0798 
    104 H104      -52.0368  -28.7374   15.7450 H         1 UNK         0.0798 
    105 H105      -52.2595  -28.8551   13.9998 H         1 UNK         0.0798 
    106 H106      -52.8324  -26.5478   14.8494 H         1 UNK         0.3198 
    107 H107      -53.6155  -24.3013   14.2502 H         1 UNK         0.0843 
    108 H108      -55.8000  -23.3965   16.1974 H         1 UNK         0.0831 
    109 H109      -55.9257  -23.4370   14.4463 H         1 UNK         0.0831 
    110 H110      -54.7934  -22.3349   15.2135 H         1 UNK         0.0831 
    111 H111      -52.1975  -23.9530   15.9477 H         1 UNK         0.3133 
    112 H112      -51.8921  -23.0625   18.4467 H         1 UNK         0.0566 
    113 H113      -52.5082  -25.6030   20.0461 H         1 UNK         0.0814 
    114 H114      -53.1310  -23.9930   20.3754 H         1 UNK         0.0814 
    115 H115      -51.4153  -24.3162   20.5549 H         1 UNK         0.0814 
    116 H116      -50.0724  -24.1168   17.7844 H         1 UNK         0.3091 
    117 H117      -48.5484  -26.4785   18.0955 H         1 UNK         0.0702 
    118 H118      -48.1246  -28.0595   16.2186 H         1 UNK         0.0785 
    119 H119      -49.7671  -27.8184   15.6309 H         1 UNK         0.0785 
    120 H120      -49.4888  -28.5865   17.1889 H         1 UNK         0.0785 
    121 H121      -48.6159  -25.6613   15.3135 H         1 UNK         0.2998 
    122 H122      -47.7582  -22.2570   15.9357 H         1 UNK         0.0697 
    123 H123      -45.9539  -22.7783   14.3222 H         1 UNK         0.0825 
    124 H124      -46.1590  -24.5062   14.6000 H         1 UNK         0.0825 
    125 H125      -45.5670  -23.4683   15.8902 H         1 UNK         0.0825 
    126 H126      -48.2087  -23.5513   13.4839 H         1 UNK         0.3029 
    127 H127      -51.8006  -23.2625   13.3963 H         1 UNK         0.0897 
    128 H128      -49.4258  -22.1154   11.8469 H         1 UNK         0.0792 
    129 H129      -50.7542  -21.2007   12.5396 H         1 UNK         0.0792 
    130 H130      -51.0589  -22.3160   11.2168 H         1 UNK         0.0792 
    131 H131      -50.0808  -24.5961   11.6001 H         1 UNK         0.3086 
    132 H132      -50.0670  -27.8036   13.2057 H         1 UNK         0.0583 
    133 H133      -52.2440  -27.5315   11.8467 H         1 UNK         0.1020 
    134 H134      -51.2634  -26.9634   10.5237 H         1 UNK         0.1020 
    135 H135      -49.7369  -28.5703    9.0504 H         1 UNK         0.0694 
    136 H136      -50.2103  -30.2432    8.8977 H         1 UNK         0.0694 
    137 H137      -48.8493  -26.7921   10.8034 H         1 UNK         0.2989 
    138 H138      -45.7776  -25.8238   12.3394 H         1 UNK         0.1055 
    139 H139      -45.5791  -28.2588   11.9151 H         1 UNK         0.0806 
    140 H140      -44.9565  -27.3560   10.5430 H         1 UNK         0.0806 
    141 H141      -46.5417  -28.1212   10.4519 H         1 UNK         0.0806 
    142 H142      -46.8667  -25.7615    9.6484 H         1 UNK         0.3061 
    143 H143      -48.1429  -22.4353    9.8676 H         1 UNK         0.0734 
    144 H144      -45.5638  -23.3885    8.5087 H         1 UNK         0.0832 
    145 H145      -46.5046  -21.9612    8.0696 H         1 UNK         0.0832 
    146 H146      -45.6872  -22.0329    9.6208 H         1 UNK         0.0832 
    147 H147      -47.7990  -24.1041    7.6168 H         1 UNK         0.3156 
    148 H148      -50.4381  -26.3638    8.0655 H         1 UNK         0.0589 
    149 H149      -51.5474  -25.4013    6.1215 H         1 UNK         0.0808 
    150 H150      -50.5498  -23.9459    6.1936 H         1 UNK         0.0808 
    151 H151      -51.7316  -24.2832    7.4523 H         1 UNK         0.0808 
    152 H152      -49.0672  -25.9060    5.7009 H         1 UNK         0.3098 
    153 H153      -46.5737  -26.4480    5.4012 H         1 UNK         0.0720 
    154 H154      -45.1443  -27.5690    7.1077 H         1 UNK         0.0791 
    155 H155      -45.1442  -28.4920    5.6127 H         1 UNK         0.0791 
    156 H156      -46.1036  -29.0384    6.9865 H         1 UNK         0.0791 
    157 H157      -48.3735  -28.8211    5.4751 H         1 UNK         0.3028 
@<TRIPOS>BOND
     1    1    2 1    
     2    1   82 1    
     3    1   83 1    
     4    1   84 1    
     5    2    3 2    
     6    2    4 am   BACKBONE|DICT|INTERRES
     7    4    5 1    
     8    4   85 1    
     9    5    6 1    
    10    5   80 1    
    11    5   86 1    
    12    6    7 1    
    13    6   87 1    
    14    6   88 1    
    15    7    8 1    
    16    8    9 1    
    17    8   89 1    
    18    8   90 1    
    19    9   10 ar   
    20    9   14 ar   
    21   10   11 ar   
    22   10   91 1    
    23   11   12 ar   
    24   11   58 1    
    25   12   13 ar   
    26   12   92 1    
    27   13   14 ar   
    28   13   15 1    
    29   14   93 1    
    30   15   16 1    
    31   15   94 1    
    32   15   95 1    
    33   16   17 1    
    34   17   18 1    
    35   17   96 1    
    36   17   97 1    
    37   18   19 1    
    38   18   22 1    
    39   18   98 1    
    40   19   20 am   BACKBONE|DICT|INTERRES
    41   19   21 2    
    42   20   99 1    
    43   20  100 1    
    44   22   23 am   BACKBONE|DICT|INTERRES
    45   22  101 1    
    46   23   24 2    
    47   23   25 1    
    48   25   26 1    
    49   25   27 1    
    50   25  102 1    
    51   26  103 1    
    52   26  104 1    
    53   26  105 1    
    54   27   28 am   BACKBONE|DICT|INTERRES
    55   27  106 1    
    56   28   29 2    
    57   28   30 1    
    58   30   31 1    
    59   30   32 1    
    60   30  107 1    
    61   31  108 1    
    62   31  109 1    
    63   31  110 1    
    64   32   33 am   BACKBONE|DICT|INTERRES
    65   32  111 1    
    66   33   34 2    
    67   33   35 1    
    68   35   36 1    
    69   35   37 1    
    70   35  112 1    
    71   36  113 1    
    72   36  114 1    
    73   36  115 1    
    74   37   38 am   BACKBONE|DICT|INTERRES
    75   37  116 1    
    76   38   39 2    
    77   38   40 1    
    78   40   41 1    
    79   40   42 1    
    80   40  117 1    
    81   41  118 1    
    82   41  119 1    
    83   41  120 1    
    84   42   43 am   BACKBONE|DICT|INTERRES
    85   42  121 1    
    86   43   44 2    
    87   43   45 1    
    88   45   46 1    
    89   45   47 1    
    90   45  122 1    
    91   46  123 1    
    92   46  124 1    
    93   46  125 1    
    94   47   48 am   BACKBONE|DICT|INTERRES
    95   47  126 1    
    96   48   49 2    
    97   48   50 1    
    98   50   51 1    
    99   50   52 1    
   100   50  127 1    
   101   51  128 1    
   102   51  129 1    
   103   51  130 1    
   104   52   53 am   BACKBONE|DICT|INTERRES
   105   52  131 1    
   106   53   54 2    
   107   53   55 1    
   108   55   56 1    
   109   55   59 1    
   110   55  132 1    
   111   56   57 1    
   112   56  133 1    
   113   56  134 1    
   114   57   58 1    
   115   58  135 1    
   116   58  136 1    
   117   59   60 am   BACKBONE|DICT|INTERRES
   118   59  137 1    
   119   60   61 2    
   120   60   62 1    
   121   62   63 1    
   122   62   64 1    
   123   62  138 1    
   124   63  139 1    
   125   63  140 1    
   126   63  141 1    
   127   64   65 am   BACKBONE|DICT|INTERRES
   128   64  142 1    
   129   65   66 2    
   130   65   67 1    
   131   67   68 1    
   132   67   69 1    
   133   67  143 1    
   134   68  144 1    
   135   68  145 1    
   136   68  146 1    
   137   69   70 am   BACKBONE|DICT|INTERRES
   138   69  147 1    
   139   70   71 2    
   140   70   72 1    
   141   72   73 1    
   142   72   74 1    
   143   72  148 1    
   144   73  149 1    
   145   73  150 1    
   146   73  151 1    
   147   74   75 am   BACKBONE|DICT|INTERRES
   148   74  152 1    
   149   75   76 2    
   150   75   77 1    
   151   77   78 1    
   152   77   79 1    
   153   77  153 1    
   154   78  154 1    
   155   78  155 1    
   156   78  156 1    
   157   79   80 am   BACKBONE|DICT|INTERRES
   158   79  157 1    
   159   80   81 2    
@<TRIPOS>SUBSTRUCTURE
     1 UNK         1 GROUP             0       ****    0 ROOT    
