@<TRIPOS>MOLECULE
3R207
157   159    1
SMALL
USER_CHARGES


@<TRIPOS>ATOM
      1 CA        -44.3600  -29.3381    4.0359 C.3       0 UNK        -0.1975 
      2 C         -44.8666  -29.0774    5.4471 C.2       0 UNK         0.4852 
      3 O         -44.1066  -29.2334    6.4040 O.2       0 UNK        -0.5216 
      4 N         -46.1436  -28.6887    5.5763 N.am      1 UNK        -0.4461 
      5 CA        -46.8203  -28.3330    6.8299 C.3       1 UNK         0.0864 
      6 C6        -46.9087  -29.5258    7.8287 C.3       14 UNK        -0.0898 
      7 S7        -48.3426  -29.3820    8.9486 S.3       14 UNK        -0.2598 
      8 C8        -49.3792  -30.7600    8.3771 C.3       14 UNK         0.0286 
      9 C9        -50.7998  -30.5979    8.8854 C.ar      14 UNK        -0.0844 
     10 C10       -51.7359  -29.9046    8.1153 C.ar      14 UNK        -0.0881 
     11 C11       -53.0374  -29.7155    8.5845 C.ar      14 UNK        -0.0643 
     12 C12       -53.4117  -30.2654    9.8142 C.ar      14 UNK        -0.0930 
     13 C13       -52.4794  -30.9433   10.6041 C.ar      14 UNK        -0.0827 
     14 C14       -51.1738  -31.1115   10.1307 C.ar      14 UNK        -0.1249 
     15 C15       -52.8773  -31.4863   11.9700 C.3       14 UNK         0.0141 
     16 S16       -53.1586  -30.1510   13.1829 S.3       14 UNK        -0.2313 
     17 C17       -54.9707  -29.9122   13.1089 C.3       14 UNK        -0.0915 
     18 CA        -55.4145  -28.5383   12.5349 C.3       13 UNK         0.0968 
     19 C         -56.9693  -28.4569   12.4550 C.2       13 UNK         0.5732 
     20 N         -57.6410  -27.5641   13.1749 N.am      13 UNK        -0.7310 
     21 O         -57.5803  -29.2253   11.7163 O.2       13 UNK        -0.5035 
     22 N         -54.7730  -27.4238   13.2417 N.am      13 UNK        -0.4233 
     23 C         -54.7560  -26.1509   12.8275 C.2       13 UNK         0.4989 
     24 O         -55.2427  -25.7662   11.7629 O.2       13 UNK        -0.4996 
     25 CA        -54.1114  -25.1439   13.7996 C.3       12 UNK         0.0216 
     26 CB        -54.4208  -23.6755   13.4426 C.3       12 UNK        -0.1964 
     27 N         -54.4438  -25.4221   15.2046 N.am      12 UNK        -0.4276 
     28 C         -55.6706  -25.5123   15.7482 C.2       12 UNK         0.5020 
     29 O         -56.7107  -25.3573   15.1061 O.2       12 UNK        -0.5489 
     30 CA        -55.7812  -25.8942   17.2394 C.3       11 UNK         0.0294 
     31 CB        -56.4986  -27.2474   17.3911 C.3       11 UNK        -0.2019 
     32 N         -54.4922  -25.9718   17.9296 N.am      11 UNK        -0.4493 
     33 C         -53.7514  -24.9234   18.3136 C.2       11 UNK         0.4932 
     34 O         -54.1202  -23.7531   18.2179 O.2       11 UNK        -0.5029 
     35 CA        -52.3448  -25.2314   18.8651 C.3       10 UNK         0.0280 
     36 CB        -52.3523  -25.1900   20.4019 C.3       10 UNK        -0.1976 
     37 N         -51.7807  -26.5140   18.4175 N.am      10 UNK        -0.4242 
     38 C         -51.5439  -26.8533   17.1426 C.2       10 UNK         0.5072 
     39 O         -51.8128  -26.1321   16.1767 O.2       10 UNK        -0.5224 
     40 CA        -50.9695  -28.2530   16.9030 C.3       9 UNK         0.0343 
     41 CB        -52.0754  -29.3209   16.9750 C.3       9 UNK        -0.2003 
     42 N         -50.3699  -28.2698   15.5755 N.am      9 UNK        -0.4272 
     43 C         -49.2548  -28.9138   15.2167 C.2       9 UNK         0.4988 
     44 O         -48.6229  -29.6600   15.9660 O.2       9 UNK        -0.5108 
     45 CA        -48.7504  -28.6893   13.7793 C.3       8 UNK         0.0248 
     46 CB        -49.0743  -29.9065   12.8993 C.3       8 UNK        -0.2001 
     47 N         -49.3136  -27.4893   13.1553 N.am      8 UNK        -0.4140 
     48 C         -48.9426  -26.2294   13.4161 C.2       8 UNK         0.5028 
     49 O         -48.0324  -25.9447   14.1961 O.2       8 UNK        -0.5428 
     50 CA        -49.7059  -25.1024   12.6824 C.3       7 UNK         0.0264 
     51 CB        -48.9111  -23.7838   12.6295 C.3       7 UNK        -0.1988 
     52 N         -50.1321  -25.4428   11.3182 N.am      7 UNK        -0.4454 
     53 C         -51.1662  -26.2364   10.9974 C.2       7 UNK         0.5027 
     54 O         -51.7833  -26.8806   11.8448 O.2       7 UNK        -0.5083 
     55 CA        -51.5516  -26.3616    9.5030 C.3       6 UNK         0.0844 
     56 C56       -53.0687  -26.6557    9.3039 C.3       14 UNK        -0.0967 
     57 S57       -53.4587  -27.1474    7.5866 S.3       14 UNK        -0.2604 
     58 C58       -54.0243  -28.8732    7.7881 C.3       14 UNK         0.0134 
     59 N         -51.0713  -25.2245    8.7017 N.am      6 UNK        -0.4116 
     60 C         -51.4880  -23.9520    8.7995 C.2       5 UNK         0.5034 
     61 O         -52.3563  -23.5737    9.5866 O.2       5 UNK        -0.5045 
     62 CA        -50.8099  -22.9112    7.8957 C.3       5 UNK         0.0224 
     63 CB        -50.3370  -21.6993    8.7203 C.3       5 UNK        -0.1978 
     64 N         -49.6514  -23.4515    7.1799 N.am      5 UNK        -0.4737 
     65 C         -49.5229  -23.5047    5.8461 C.2       4 UNK         0.5027 
     66 O         -50.4454  -23.2671    5.0651 O.2       4 UNK        -0.5211 
     67 CA        -48.1239  -23.8636    5.2918 C.3       4 UNK         0.0297 
     68 CB        -47.8618  -23.2564    3.8977 C.3       4 UNK        -0.1993 
     69 N         -47.0328  -23.5314    6.2190 N.am      4 UNK        -0.4486 
     70 C         -46.7564  -22.3294    6.7554 C.2       3 UNK         0.4961 
     71 O         -47.2695  -21.2774    6.3717 O.2       3 UNK        -0.5105 
     72 CA        -45.7779  -22.2919    7.9506 C.3       3 UNK         0.0299 
     73 CB        -46.2245  -21.2790    9.0264 C.3       3 UNK        -0.1972 
     74 N         -45.5160  -23.6000    8.5683 N.am      3 UNK        -0.4305 
     75 C         -46.3976  -24.4465    9.1233 C.2       2 UNK         0.5006 
     76 O         -47.6135  -24.2457    9.2136 O.2       2 UNK        -0.5106 
     77 CA        -45.8144  -25.7922    9.5807 C.3       2 UNK         0.0296 
     78 CB        -46.1465  -26.0676   11.0533 C.3       2 UNK        -0.2002 
     79 N         -46.3023  -26.9093    8.7718 N.am      2 UNK        -0.4032 
     80 C         -46.2408  -27.0314    7.4382 C.2       1 UNK         0.5000 
     81 O         -45.7795  -26.1611    6.6927 O.2       1 UNK        -0.5238 
     82 H82       -44.0118  -30.3667    3.9464 H         1 UNK         0.0889 
     83 H83       -43.5259  -28.6745    3.8092 H         1 UNK         0.0889 
     84 H84       -45.1350  -29.1763    3.2869 H         1 UNK         0.0889 
     85 H85       -46.6961  -28.5538    4.7411 H         1 UNK         0.3028 
     86 H86       -47.8369  -28.0777    6.5263 H         1 UNK         0.0864 
     87 H87       -45.9949  -29.6263    8.4178 H         1 UNK         0.0720 
     88 H88       -46.9946  -30.4640    7.2783 H         1 UNK         0.0720 
     89 H89       -48.9547  -31.7044    8.7215 H         1 UNK         0.0814 
     90 H90       -49.3793  -30.7974    7.2865 H         1 UNK         0.0814 
     91 H91       -51.4438  -29.4784    7.1651 H         1 UNK         0.1469 
     92 H92       -54.4224  -30.1409   10.1729 H         1 UNK         0.1381 
     93 H93       -50.4428  -31.6324   10.7338 H         1 UNK         0.1206 
     94 H94       -52.0882  -32.1313   12.3593 H         1 UNK         0.0813 
     95 H95       -53.7585  -32.1217   11.8767 H         1 UNK         0.0813 
     96 H96       -55.3536  -30.0307   14.1242 H         1 UNK         0.0638 
     97 H97       -55.4154  -30.7230   12.5302 H         1 UNK         0.0638 
     98 H98       -55.0684  -28.4782   11.5037 H         1 UNK         0.0568 
     99 H99       -57.1634  -26.8920   13.7639 H         1 UNK         0.3450 
    100 H100      -58.6449  -27.5340   13.0997 H         1 UNK         0.3450 
    101 H101      -54.3327  -27.6536   14.1184 H         1 UNK         0.2987 
    102 H102      -53.0338  -25.2843   13.7083 H         1 UNK         0.0766 
    103 H103      -54.0664  -23.4361   12.4387 H         1 UNK         0.0798 
    104 H104      -53.9296  -22.9885   14.1315 H         1 UNK         0.0798 
    105 H105      -55.4916  -23.4707   13.4687 H         1 UNK         0.0798 
    106 H106      -53.6372  -25.5998   15.7982 H         1 UNK         0.3198 
    107 H107      -56.3882  -25.1264   17.7240 H         1 UNK         0.0843 
    108 H108      -55.9444  -28.0560   16.9128 H         1 UNK         0.0831 
    109 H109      -57.4893  -27.2194   16.9349 H         1 UNK         0.0831 
    110 H110      -56.6379  -27.5084   18.4404 H         1 UNK         0.0831 
    111 H111      -54.1095  -26.8952   18.0698 H         1 UNK         0.3133 
    112 H112      -51.6806  -24.4423   18.5065 H         1 UNK         0.0566 
    113 H113      -51.3471  -25.3032   20.8084 H         1 UNK         0.0814 
    114 H114      -52.9780  -25.9772   20.8247 H         1 UNK         0.0814 
    115 H115      -52.7394  -24.2367   20.7652 H         1 UNK         0.0814 
    116 H116      -51.5412  -27.1749   19.1435 H         1 UNK         0.3091 
    117 H117      -50.2081  -28.4513   17.6605 H         1 UNK         0.0702 
    118 H118      -51.6760  -30.3153   16.7740 H         1 UNK         0.0785 
    119 H119      -52.8681  -29.1307   16.2499 H         1 UNK         0.0785 
    120 H120      -52.5338  -29.3516   17.9640 H         1 UNK         0.0785 
    121 H121      -50.7953  -27.6259   14.9209 H         1 UNK         0.2998 
    122 H122      -47.6650  -28.5784   13.8249 H         1 UNK         0.0697 
    123 H123      -50.1497  -30.0497   12.7933 H         1 UNK         0.0825 
    124 H124      -48.6631  -30.8218   13.3270 H         1 UNK         0.0825 
    125 H125      -48.6510  -29.7980   11.9015 H         1 UNK         0.0825 
    126 H126      -50.1190  -27.6182   12.5503 H         1 UNK         0.3029 
    127 H127      -50.6034  -24.9148   13.2758 H         1 UNK         0.0897 
    128 H128      -47.9872  -23.8912   12.0609 H         1 UNK         0.0792 
    129 H129      -48.6423  -23.4433   13.6303 H         1 UNK         0.0792 
    130 H130      -49.4956  -22.9875   12.1680 H         1 UNK         0.0792 
    131 H131      -49.6235  -24.9928   10.5684 H         1 UNK         0.3086 
    132 H132      -50.9985  -27.2321    9.1472 H         1 UNK         0.0583 
    133 H133      -53.4074  -27.4382    9.9832 H         1 UNK         0.1020 
    134 H134      -53.6726  -25.7848    9.5596 H         1 UNK         0.1020 
    135 H135      -55.0041  -28.8658    8.2685 H         1 UNK         0.0694 
    136 H136      -54.1661  -29.3194    6.8029 H         1 UNK         0.0694 
    137 H137      -50.3593  -25.4318    8.0171 H         1 UNK         0.2989 
    138 H138      -51.5711  -22.5695    7.1910 H         1 UNK         0.1055 
    139 H139      -49.6337  -21.9952    9.4998 H         1 UNK         0.0806 
    140 H140      -51.1757  -21.2012    9.2086 H         1 UNK         0.0806 
    141 H141      -49.8449  -20.9582    8.0897 H         1 UNK         0.0806 
    142 H142      -48.8430  -23.6752    7.7556 H         1 UNK         0.3061 
    143 H143      -48.1107  -24.9494    5.1872 H         1 UNK         0.0734 
    144 H144      -47.9291  -22.1682    3.9110 H         1 UNK         0.0832 
    145 H145      -46.8737  -23.5276    3.5263 H         1 UNK         0.0832 
    146 H146      -48.5898  -23.6171    3.1700 H         1 UNK         0.0832 
    147 H147      -46.5150  -24.3345    6.5681 H         1 UNK         0.3156 
    148 H148      -44.8243  -21.9494    7.5467 H         1 UNK         0.0589 
    149 H149      -45.5124  -21.2355    9.8503 H         1 UNK         0.0808 
    150 H150      -46.3000  -20.2719    8.6146 H         1 UNK         0.0808 
    151 H151      -47.2000  -21.5339    9.4410 H         1 UNK         0.0808 
    152 H152      -44.5548  -23.9082    8.5085 H         1 UNK         0.3098 
    153 H153      -44.7277  -25.7631    9.4788 H         1 UNK         0.0720 
    154 H154      -45.8436  -25.2365   11.6918 H         1 UNK         0.0791 
    155 H155      -45.6366  -26.9594   11.4181 H         1 UNK         0.0791 
    156 H156      -47.2162  -26.2170   11.1898 H         1 UNK         0.0791 
    157 H157      -46.7490  -27.6636    9.2767 H         1 UNK         0.3028 
@<TRIPOS>BOND
     1    1    2 1    
     2    1   82 1    
     3    1   83 1    
     4    1   84 1    
     5    2    3 2    
     6    2    4 am   BACKBONE|DICT|INTERRES
     7    4    5 1    
     8    4   85 1    
     9    5    6 1    
    10    5   80 1    
    11    5   86 1    
    12    6    7 1    
    13    6   87 1    
    14    6   88 1    
    15    7    8 1    
    16    8    9 1    
    17    8   89 1    
    18    8   90 1    
    19    9   10 ar   
    20    9   14 ar   
    21   10   11 ar   
    22   10   91 1    
    23   11   12 ar   
    24   11   58 1    
    25   12   13 ar   
    26   12   92 1    
    27   13   14 ar   
    28   13   15 1    
    29   14   93 1    
    30   15   16 1    
    31   15   94 1    
    32   15   95 1    
    33   16   17 1    
    34   17   18 1    
    35   17   96 1    
    36   17   97 1    
    37   18   19 1    
    38   18   22 1    
    39   18   98 1    
    40   19   20 am   BACKBONE|DICT|INTERRES
    41   19   21 2    
    42   20   99 1    
    43   20  100 1    
    44   22   23 am   BACKBONE|DICT|INTERRES
    45   22  101 1    
    46   23   24 2    
    47   23   25 1    
    48   25   26 1    
    49   25   27 1    
    50   25  102 1    
    51   26  103 1    
    52   26  104 1    
    53   26  105 1    
    54   27   28 am   BACKBONE|DICT|INTERRES
    55   27  106 1    
    56   28   29 2    
    57   28   30 1    
    58   30   31 1    
    59   30   32 1    
    60   30  107 1    
    61   31  108 1    
    62   31  109 1    
    63   31  110 1    
    64   32   33 am   BACKBONE|DICT|INTERRES
    65   32  111 1    
    66   33   34 2    
    67   33   35 1    
    68   35   36 1    
    69   35   37 1    
    70   35  112 1    
    71   36  113 1    
    72   36  114 1    
    73   36  115 1    
    74   37   38 am   BACKBONE|DICT|INTERRES
    75   37  116 1    
    76   38   39 2    
    77   38   40 1    
    78   40   41 1    
    79   40   42 1    
    80   40  117 1    
    81   41  118 1    
    82   41  119 1    
    83   41  120 1    
    84   42   43 am   BACKBONE|DICT|INTERRES
    85   42  121 1    
    86   43   44 2    
    87   43   45 1    
    88   45   46 1    
    89   45   47 1    
    90   45  122 1    
    91   46  123 1    
    92   46  124 1    
    93   46  125 1    
    94   47   48 am   BACKBONE|DICT|INTERRES
    95   47  126 1    
    96   48   49 2    
    97   48   50 1    
    98   50   51 1    
    99   50   52 1    
   100   50  127 1    
   101   51  128 1    
   102   51  129 1    
   103   51  130 1    
   104   52   53 am   BACKBONE|DICT|INTERRES
   105   52  131 1    
   106   53   54 2    
   107   53   55 1    
   108   55   56 1    
   109   55   59 1    
   110   55  132 1    
   111   56   57 1    
   112   56  133 1    
   113   56  134 1    
   114   57   58 1    
   115   58  135 1    
   116   58  136 1    
   117   59   60 am   BACKBONE|DICT|INTERRES
   118   59  137 1    
   119   60   61 2    
   120   60   62 1    
   121   62   63 1    
   122   62   64 1    
   123   62  138 1    
   124   63  139 1    
   125   63  140 1    
   126   63  141 1    
   127   64   65 am   BACKBONE|DICT|INTERRES
   128   64  142 1    
   129   65   66 2    
   130   65   67 1    
   131   67   68 1    
   132   67   69 1    
   133   67  143 1    
   134   68  144 1    
   135   68  145 1    
   136   68  146 1    
   137   69   70 am   BACKBONE|DICT|INTERRES
   138   69  147 1    
   139   70   71 2    
   140   70   72 1    
   141   72   73 1    
   142   72   74 1    
   143   72  148 1    
   144   73  149 1    
   145   73  150 1    
   146   73  151 1    
   147   74   75 am   BACKBONE|DICT|INTERRES
   148   74  152 1    
   149   75   76 2    
   150   75   77 1    
   151   77   78 1    
   152   77   79 1    
   153   77  153 1    
   154   78  154 1    
   155   78  155 1    
   156   78  156 1    
   157   79   80 am   BACKBONE|DICT|INTERRES
   158   79  157 1    
   159   80   81 2    
@<TRIPOS>SUBSTRUCTURE
     1 UNK         1 GROUP             0       ****    0 ROOT    
