@<TRIPOS>MOLECULE
3R207
157   159    1
SMALL
USER_CHARGES


@<TRIPOS>ATOM
      1 CA        -50.2228  -31.4153    4.0433 C.3       0 UNK        -0.1975 
      2 C         -49.0965  -30.3990    3.9276 C.2       0 UNK         0.4852 
      3 O         -48.1553  -30.6115    3.1629 O.2       0 UNK        -0.5216 
      4 N         -49.1809  -29.2991    4.6883 N.am      1 UNK        -0.4461 
      5 CA        -48.1935  -28.2109    4.7078 C.3       1 UNK         0.0864 
      6 C6        -48.8349  -26.8632    5.1310 C.3       14 UNK        -0.0898 
      7 S7        -49.4991  -26.8331    6.8342 S.3       14 UNK        -0.2598 
      8 C8        -51.2824  -27.0138    6.5210 C.3       14 UNK         0.0286 
      9 C9        -52.0960  -26.8326    7.7929 C.ar      14 UNK        -0.0844 
     10 C10       -52.9172  -25.7125    7.9476 C.ar      14 UNK        -0.0881 
     11 C11       -53.6881  -25.5492    9.1021 C.ar      14 UNK        -0.0643 
     12 C12       -53.6328  -26.5163   10.1098 C.ar      14 UNK        -0.0930 
     13 C13       -52.8150  -27.6417    9.9663 C.ar      14 UNK        -0.0827 
     14 C14       -52.0488  -27.7939    8.8067 C.ar      14 UNK        -0.1249 
     15 C15       -52.7425  -28.6872   11.0683 C.3       14 UNK         0.0141 
     16 S16       -53.6036  -30.2278   10.6254 S.3       14 UNK        -0.2313 
     17 C17       -55.3628  -29.7293   10.6295 C.3       14 UNK        -0.0915 
     18 CA        -56.1690  -30.2584   11.8455 C.3       13 UNK         0.0968 
     19 C         -56.2903  -31.8127   11.8488 C.2       13 UNK         0.5732 
     20 N         -55.7471  -32.5225   12.8309 N.am      13 UNK        -0.7310 
     21 O         -56.9016  -32.3816   10.9472 O.2       13 UNK        -0.5035 
     22 N         -55.7098  -29.6458   13.1026 N.am      13 UNK        -0.4233 
     23 C         -56.4051  -29.6316   14.2472 C.2       13 UNK         0.4989 
     24 O         -57.5123  -30.1521   14.3890 O.2       13 UNK        -0.4996 
     25 CA        -55.7623  -28.8979   15.4363 C.3       12 UNK         0.0216 
     26 CB        -54.7959  -29.8290   16.1859 C.3       12 UNK        -0.1964 
     27 N         -55.0677  -27.6587   15.0664 N.am      12 UNK        -0.4276 
     28 C         -55.6732  -26.5664   14.5687 C.2       12 UNK         0.5020 
     29 O         -56.8768  -26.5200   14.3077 O.2       12 UNK        -0.5489 
     30 CA        -54.7997  -25.3148   14.3252 C.3       11 UNK         0.0294 
     31 CB        -55.6129  -24.0038   14.3205 C.3       11 UNK        -0.2019 
     32 N         -53.6552  -25.2047   15.2349 N.am      11 UNK        -0.4493 
     33 C         -53.6661  -25.1888   16.5774 C.2       11 UNK         0.4932 
     34 O         -54.6951  -25.1346   17.2525 O.2       11 UNK        -0.5029 
     35 CA        -52.2956  -25.2825   17.2856 C.3       10 UNK         0.0280 
     36 CB        -52.3947  -25.9989   18.6486 C.3       10 UNK        -0.1976 
     37 N         -51.2312  -25.8929   16.4732 N.am      10 UNK        -0.4242 
     38 C         -51.2419  -27.1006   15.8800 C.2       10 UNK         0.5072 
     39 O         -52.1960  -27.8779   15.9456 O.2       10 UNK        -0.5224 
     40 CA        -50.0203  -27.4876   15.0236 C.3       9 UNK         0.0343 
     41 CB        -50.4496  -28.1637   13.7116 C.3       9 UNK        -0.2003 
     42 N         -49.2151  -26.3156   14.6849 N.am      9 UNK        -0.4272 
     43 C         -47.9897  -26.0438   15.1512 C.2       9 UNK         0.4988 
     44 O         -47.3426  -26.8036   15.8723 O.2       9 UNK        -0.5108 
     45 CA        -47.3909  -24.6752   14.7736 C.3       8 UNK         0.0248 
     46 CB        -46.4034  -24.8241   13.6081 C.3       8 UNK        -0.2001 
     47 N         -48.4036  -23.6711   14.4274 N.am      8 UNK        -0.4140 
     48 C         -49.2884  -23.1622   15.2981 C.2       8 UNK         0.5028 
     49 O         -49.3272  -23.4747   16.4883 O.2       8 UNK        -0.5428 
     50 CA        -50.3490  -22.1922   14.7518 C.3       7 UNK         0.0264 
     51 CB        -49.8704  -20.7390   14.8963 C.3       7 UNK        -0.1988 
     52 N         -50.7372  -22.4377   13.3601 N.am      7 UNK        -0.4454 
     53 C         -51.2802  -23.5702   12.8876 C.2       7 UNK         0.5027 
     54 O         -51.4633  -24.5813   13.5676 O.2       7 UNK        -0.5083 
     55 CA        -51.6661  -23.5736   11.3955 C.3       6 UNK         0.0844 
     56 C56       -53.0898  -22.9811   11.2296 C.3       14 UNK        -0.0967 
     57 S57       -53.6246  -22.8092    9.4935 S.3       14 UNK        -0.2604 
     58 C58       -54.5887  -24.3319    9.2442 C.3       14 UNK         0.0134 
     59 N         -50.6738  -22.9121   10.5372 N.am      6 UNK        -0.4116 
     60 C         -49.3772  -23.2383   10.4538 C.2       5 UNK         0.5034 
     61 O         -48.8233  -24.0639   11.1838 O.2       5 UNK        -0.5045 
     62 CA        -48.5507  -22.4923    9.4019 C.3       5 UNK         0.0224 
     63 CB        -47.9506  -21.2038    9.9888 C.3       5 UNK        -0.1978 
     64 N         -47.4760  -23.3754    8.9639 N.am      5 UNK        -0.4737 
     65 C         -47.0256  -23.5164    7.7150 C.2       4 UNK         0.5027 
     66 O         -47.3997  -22.8146    6.7750 O.2       4 UNK        -0.5211 
     67 CA        -46.0060  -24.6412    7.4496 C.3       4 UNK         0.0297 
     68 CB        -44.5630  -24.1609    7.6976 C.3       4 UNK        -0.1993 
     69 N         -46.2966  -25.8996    8.1542 N.am      4 UNK        -0.4486 
     70 C         -46.2471  -26.1689    9.4682 C.2       3 UNK         0.4961 
     71 O         -45.8598  -25.3648   10.3139 O.2       3 UNK        -0.5105 
     72 CA        -46.7456  -27.5517    9.9286 C.3       3 UNK         0.0299 
     73 CB        -48.1627  -27.4413   10.5193 C.3       3 UNK        -0.1972 
     74 N         -46.7544  -28.5433    8.8507 N.am      3 UNK        -0.4305 
     75 C         -45.6635  -29.1676    8.3827 C.2       2 UNK         0.5006 
     76 O         -44.5359  -29.0287    8.8576 O.2       2 UNK        -0.5106 
     77 CA        -45.8591  -30.0916    7.1670 C.3       2 UNK         0.0296 
     78 CB        -46.1198  -31.5365    7.6229 C.3       2 UNK        -0.2002 
     79 N         -46.9418  -29.6604    6.2770 N.am      2 UNK        -0.4032 
     80 C         -46.9347  -28.5355    5.5443 C.2       1 UNK         0.5000 
     81 O         -45.9925  -27.7418    5.5370 O.2       1 UNK        -0.5238 
     82 H82       -49.8279  -32.3783    4.3661 H         1 UNK         0.0889 
     83 H83       -50.7044  -31.5520    3.0754 H         1 UNK         0.0889 
     84 H84       -50.9835  -31.1033    4.7587 H         1 UNK         0.0889 
     85 H85       -49.9713  -29.1796    5.3047 H         1 UNK         0.3028 
     86 H86       -47.8341  -28.0767    3.6849 H         1 UNK         0.0864 
     87 H87       -48.1051  -26.0558    5.0449 H         1 UNK         0.0720 
     88 H88       -49.6271  -26.6012    4.4282 H         1 UNK         0.0720 
     89 H89       -51.4866  -27.9991    6.1014 H         1 UNK         0.0814 
     90 H90       -51.5905  -26.2872    5.7675 H         1 UNK         0.0814 
     91 H91       -52.9617  -24.9628    7.1692 H         1 UNK         0.1469 
     92 H92       -54.2287  -26.3941   11.0031 H         1 UNK         0.1381 
     93 H93       -51.4157  -28.6633    8.6924 H         1 UNK         0.1206 
     94 H94       -53.1409  -28.2975   12.0057 H         1 UNK         0.0813 
     95 H95       -51.6951  -28.9273   11.2536 H         1 UNK         0.0813 
     96 H96       -55.8107  -30.0845    9.6998 H         1 UNK         0.0638 
     97 H97       -55.4384  -28.6430   10.5852 H         1 UNK         0.0638 
     98 H98       -57.1924  -29.9056   11.7038 H         1 UNK         0.0568 
     99 H99       -55.2426  -32.0658   13.5725 H         1 UNK         0.3450 
    100 H100      -55.8382  -33.5259   12.8230 H         1 UNK         0.3450 
    101 H101      -54.7969  -29.2206   13.0849 H         1 UNK         0.2987 
    102 H102      -56.5669  -28.6263   16.1230 H         1 UNK         0.0766 
    103 H103      -55.2956  -30.7489   16.4930 H         1 UNK         0.0798 
    104 H104      -54.4106  -29.3539   17.0885 H         1 UNK         0.0798 
    105 H105      -53.9417  -30.1094   15.5682 H         1 UNK         0.0798 
    106 H106      -54.0770  -27.6118   15.2925 H         1 UNK         0.3198 
    107 H107      -54.3750  -25.4427   13.3291 H         1 UNK         0.0843 
    108 H108      -56.1222  -23.8436   15.2714 H         1 UNK         0.0831 
    109 H109      -56.3757  -24.0173   13.5411 H         1 UNK         0.0831 
    110 H110      -54.9747  -23.1405   14.1327 H         1 UNK         0.0831 
    111 H111      -52.7471  -25.1880   14.7744 H         1 UNK         0.3133 
    112 H112      -51.9815  -24.2545   17.4713 H         1 UNK         0.0566 
    113 H113      -51.4260  -26.0401   19.1465 H         1 UNK         0.0814 
    114 H114      -52.7604  -27.0208   18.5401 H         1 UNK         0.0814 
    115 H115      -53.0785  -25.4778   19.3198 H         1 UNK         0.0814 
    116 H116      -50.4081  -25.3132   16.3523 H         1 UNK         0.3091 
    117 H117      -49.4376  -28.2031   15.6067 H         1 UNK         0.0702 
    118 H118      -49.5834  -28.4825   13.1324 H         1 UNK         0.0785 
    119 H119      -51.0338  -27.4811   13.0937 H         1 UNK         0.0785 
    120 H120      -51.0564  -29.0510   13.8971 H         1 UNK         0.0785 
    121 H121      -49.6815  -25.6201   14.1128 H         1 UNK         0.2998 
    122 H122      -46.8400  -24.3087   15.6423 H         1 UNK         0.0697 
    123 H123      -46.9011  -25.1947   12.7128 H         1 UNK         0.0825 
    124 H124      -45.6087  -25.5298   13.8531 H         1 UNK         0.0825 
    125 H125      -45.9294  -23.8748   13.3584 H         1 UNK         0.0825 
    126 H126      -48.4710  -23.4110   13.4514 H         1 UNK         0.3029 
    127 H127      -51.2443  -22.3193   15.3645 H         1 UNK         0.0897 
    128 H128      -48.9957  -20.5376   14.2763 H         1 UNK         0.0792 
    129 H129      -49.5952  -20.5195   15.9291 H         1 UNK         0.0792 
    130 H130      -50.6521  -20.0327   14.6159 H         1 UNK         0.0792 
    131 H131      -50.6125  -21.6695   12.7166 H         1 UNK         0.3086 
    132 H132      -51.6935  -24.6184   11.0807 H         1 UNK         0.0583 
    133 H133      -53.8196  -23.5871   11.7687 H         1 UNK         0.1020 
    134 H134      -53.1451  -21.9866   11.6773 H         1 UNK         0.1020 
    135 H135      -55.3009  -24.4586   10.0612 H         1 UNK         0.0694 
    136 H136      -55.1844  -24.2237    8.3367 H         1 UNK         0.0694 
    137 H137      -51.0479  -22.2243    9.8992 H         1 UNK         0.2989 
    138 H138      -49.1978  -22.2479    8.5562 H         1 UNK         0.1055 
    139 H139      -47.3546  -20.6726    9.2465 H         1 UNK         0.0806 
    140 H140      -47.3079  -21.4130   10.8453 H         1 UNK         0.0806 
    141 H141      -48.7331  -20.5219   10.3239 H         1 UNK         0.0806 
    142 H142      -47.1260  -24.0138    9.6761 H         1 UNK         0.3061 
    143 H143      -46.0863  -24.8859    6.3890 H         1 UNK         0.0734 
    144 H144      -44.4043  -23.8539    8.7316 H         1 UNK         0.0832 
    145 H145      -43.8398  -24.9420    7.4634 H         1 UNK         0.0832 
    146 H146      -44.3287  -23.3015    7.0681 H         1 UNK         0.0832 
    147 H147      -46.6243  -26.6417    7.5509 H         1 UNK         0.3156 
    148 H148      -46.0757  -27.8999   10.7177 H         1 UNK         0.0589 
    149 H149      -48.5329  -28.4105   10.8528 H         1 UNK         0.0808 
    150 H150      -48.8758  -27.0387    9.7988 H         1 UNK         0.0808 
    151 H151      -48.1745  -26.7772   11.3844 H         1 UNK         0.0808 
    152 H152      -47.6435  -28.7259    8.4081 H         1 UNK         0.3098 
    153 H153      -44.9302  -30.0771    6.5926 H         1 UNK         0.0720 
    154 H154      -45.3141  -31.8933    8.2662 H         1 UNK         0.0791 
    155 H155      -46.1777  -32.2167    6.7728 H         1 UNK         0.0791 
    156 H156      -47.0493  -31.6224    8.1872 H         1 UNK         0.0791 
    157 H157      -47.7522  -30.2590    6.2172 H         1 UNK         0.3028 
@<TRIPOS>BOND
     1    1    2 1    
     2    1   82 1    
     3    1   83 1    
     4    1   84 1    
     5    2    3 2    
     6    2    4 am   BACKBONE|DICT|INTERRES
     7    4    5 1    
     8    4   85 1    
     9    5    6 1    
    10    5   80 1    
    11    5   86 1    
    12    6    7 1    
    13    6   87 1    
    14    6   88 1    
    15    7    8 1    
    16    8    9 1    
    17    8   89 1    
    18    8   90 1    
    19    9   10 ar   
    20    9   14 ar   
    21   10   11 ar   
    22   10   91 1    
    23   11   12 ar   
    24   11   58 1    
    25   12   13 ar   
    26   12   92 1    
    27   13   14 ar   
    28   13   15 1    
    29   14   93 1    
    30   15   16 1    
    31   15   94 1    
    32   15   95 1    
    33   16   17 1    
    34   17   18 1    
    35   17   96 1    
    36   17   97 1    
    37   18   19 1    
    38   18   22 1    
    39   18   98 1    
    40   19   20 am   BACKBONE|DICT|INTERRES
    41   19   21 2    
    42   20   99 1    
    43   20  100 1    
    44   22   23 am   BACKBONE|DICT|INTERRES
    45   22  101 1    
    46   23   24 2    
    47   23   25 1    
    48   25   26 1    
    49   25   27 1    
    50   25  102 1    
    51   26  103 1    
    52   26  104 1    
    53   26  105 1    
    54   27   28 am   BACKBONE|DICT|INTERRES
    55   27  106 1    
    56   28   29 2    
    57   28   30 1    
    58   30   31 1    
    59   30   32 1    
    60   30  107 1    
    61   31  108 1    
    62   31  109 1    
    63   31  110 1    
    64   32   33 am   BACKBONE|DICT|INTERRES
    65   32  111 1    
    66   33   34 2    
    67   33   35 1    
    68   35   36 1    
    69   35   37 1    
    70   35  112 1    
    71   36  113 1    
    72   36  114 1    
    73   36  115 1    
    74   37   38 am   BACKBONE|DICT|INTERRES
    75   37  116 1    
    76   38   39 2    
    77   38   40 1    
    78   40   41 1    
    79   40   42 1    
    80   40  117 1    
    81   41  118 1    
    82   41  119 1    
    83   41  120 1    
    84   42   43 am   BACKBONE|DICT|INTERRES
    85   42  121 1    
    86   43   44 2    
    87   43   45 1    
    88   45   46 1    
    89   45   47 1    
    90   45  122 1    
    91   46  123 1    
    92   46  124 1    
    93   46  125 1    
    94   47   48 am   BACKBONE|DICT|INTERRES
    95   47  126 1    
    96   48   49 2    
    97   48   50 1    
    98   50   51 1    
    99   50   52 1    
   100   50  127 1    
   101   51  128 1    
   102   51  129 1    
   103   51  130 1    
   104   52   53 am   BACKBONE|DICT|INTERRES
   105   52  131 1    
   106   53   54 2    
   107   53   55 1    
   108   55   56 1    
   109   55   59 1    
   110   55  132 1    
   111   56   57 1    
   112   56  133 1    
   113   56  134 1    
   114   57   58 1    
   115   58  135 1    
   116   58  136 1    
   117   59   60 am   BACKBONE|DICT|INTERRES
   118   59  137 1    
   119   60   61 2    
   120   60   62 1    
   121   62   63 1    
   122   62   64 1    
   123   62  138 1    
   124   63  139 1    
   125   63  140 1    
   126   63  141 1    
   127   64   65 am   BACKBONE|DICT|INTERRES
   128   64  142 1    
   129   65   66 2    
   130   65   67 1    
   131   67   68 1    
   132   67   69 1    
   133   67  143 1    
   134   68  144 1    
   135   68  145 1    
   136   68  146 1    
   137   69   70 am   BACKBONE|DICT|INTERRES
   138   69  147 1    
   139   70   71 2    
   140   70   72 1    
   141   72   73 1    
   142   72   74 1    
   143   72  148 1    
   144   73  149 1    
   145   73  150 1    
   146   73  151 1    
   147   74   75 am   BACKBONE|DICT|INTERRES
   148   74  152 1    
   149   75   76 2    
   150   75   77 1    
   151   77   78 1    
   152   77   79 1    
   153   77  153 1    
   154   78  154 1    
   155   78  155 1    
   156   78  156 1    
   157   79   80 am   BACKBONE|DICT|INTERRES
   158   79  157 1    
   159   80   81 2    
@<TRIPOS>SUBSTRUCTURE
     1 UNK         1 GROUP             0       ****    0 ROOT    
