@<TRIPOS>MOLECULE
3R207
157   159    1
SMALL
USER_CHARGES


@<TRIPOS>ATOM
      1 CA        -47.9541  -32.2135    4.5130 C.3       0 UNK        -0.1975 
      2 C         -48.2838  -30.9135    5.2310 C.2       0 UNK         0.4852 
      3 O         -47.9183  -30.7536    6.3961 O.2       0 UNK        -0.5216 
      4 N         -48.9556  -29.9829    4.5371 N.am      1 UNK        -0.4461 
      5 CA        -49.4304  -28.6637    4.9913 C.3       1 UNK         0.0864 
      6 C6        -50.4199  -28.7187    6.1863 C.3       14 UNK        -0.0898 
      7 S7        -51.9684  -29.5801    5.7660 S.3       14 UNK        -0.2598 
      8 C8        -52.9692  -28.2104    5.1030 C.3       14 UNK         0.0286 
      9 C9        -53.4268  -27.2456    6.1882 C.ar      14 UNK        -0.0844 
     10 C10       -52.7933  -26.0091    6.3571 C.ar      14 UNK        -0.0881 
     11 C11       -53.2439  -25.1061    7.3254 C.ar      14 UNK        -0.0643 
     12 C12       -54.3478  -25.4436    8.1142 C.ar      14 UNK        -0.0930 
     13 C13       -54.9725  -26.6858    7.9721 C.ar      14 UNK        -0.0827 
     14 C14       -54.5092  -27.5816    7.0055 C.ar      14 UNK        -0.1249 
     15 C15       -56.1541  -27.0540    8.8565 C.3       14 UNK         0.0141 
     16 S16       -55.6928  -27.0909   10.6154 S.3       14 UNK        -0.2313 
     17 C17       -54.5284  -28.4946   10.6822 C.3       14 UNK        -0.0915 
     18 CA        -54.8139  -29.4283   11.8878 C.3       13 UNK         0.0968 
     19 C         -53.9537  -30.7264   11.8383 C.2       13 UNK         0.5732 
     20 N         -53.2191  -31.0953   12.8824 N.am      13 UNK        -0.7310 
     21 O         -53.9758  -31.4359   10.8352 O.2       13 UNK        -0.5035 
     22 N         -54.7244  -28.7000   13.1628 N.am      13 UNK        -0.4233 
     23 C         -55.4384  -28.9845   14.2577 C.2       13 UNK         0.4989 
     24 O         -56.3041  -29.8608   14.3013 O.2       13 UNK        -0.4996 
     25 CA        -55.1250  -28.1453   15.5153 C.3       12 UNK         0.0216 
     26 CB        -55.6522  -28.7989   16.8106 C.3       12 UNK        -0.1964 
     27 N         -53.7025  -27.8011   15.6664 N.am      12 UNK        -0.4276 
     28 C         -52.6593  -28.6460   15.7079 C.2       12 UNK         0.5020 
     29 O         -52.7611  -29.8635   15.5525 O.2       12 UNK        -0.5489 
     30 CA        -51.2595  -28.0409   15.9263 C.3       11 UNK         0.0294 
     31 CB        -50.3762  -28.2715   14.6916 C.3       11 UNK        -0.2019 
     32 N         -51.2688  -26.6066   16.2297 N.am      11 UNK        -0.4493 
     33 C         -51.5432  -26.0730   17.4289 C.2       11 UNK         0.4932 
     34 O         -51.8561  -26.7443   18.4127 O.2       11 UNK        -0.5029 
     35 CA        -51.4927  -24.5348   17.5351 C.3       10 UNK         0.0280 
     36 CB        -51.1384  -24.0406   18.9542 C.3       10 UNK        -0.1976 
     37 N         -50.6441  -23.9041   16.5134 N.am      10 UNK        -0.4242 
     38 C         -49.3096  -24.0003   16.3853 C.2       10 UNK         0.5072 
     39 O         -48.5956  -24.6120   17.1809 O.2       10 UNK        -0.5224 
     40 CA        -48.6512  -23.3315   15.1606 C.3       9 UNK         0.0343 
     41 CB        -47.6475  -24.2790   14.4830 C.3       9 UNK        -0.2003 
     42 N         -49.6246  -22.8883   14.1581 N.am      9 UNK        -0.4272 
     43 C         -50.1466  -21.6543   14.0865 C.2       9 UNK         0.4988 
     44 O         -49.8076  -20.7255   14.8202 O.2       9 UNK        -0.5108 
     45 CA        -51.2642  -21.4154   13.0492 C.3       8 UNK         0.0248 
     46 CB        -50.6661  -20.8832   11.7368 C.3       8 UNK        -0.2001 
     47 N         -52.0743  -22.6032   12.7587 N.am      8 UNK        -0.4140 
     48 C         -52.7453  -23.3309   13.6641 C.2       8 UNK         0.5028 
     49 O         -52.8511  -23.0108   14.8474 O.2       8 UNK        -0.5428 
     50 CA        -53.3358  -24.6800   13.2090 C.3       7 UNK         0.0264 
     51 CB        -54.8661  -24.5915   13.1075 C.3       7 UNK        -0.1988 
     52 N         -52.7773  -25.2071   11.9560 N.am      7 UNK        -0.4454 
     53 C         -51.4814  -25.4900   11.7489 C.2       7 UNK         0.5027 
     54 O         -50.6185  -25.3688   12.6237 O.2       7 UNK        -0.5083 
     55 CA        -51.0825  -25.8875   10.3083 C.3       6 UNK         0.0844 
     56 C56       -50.6996  -24.6514    9.4520 C.3       14 UNK        -0.0967 
     57 S57       -52.0429  -23.4354    9.2153 S.3       14 UNK        -0.2604 
     58 C58       -52.5605  -23.7549    7.4962 C.3       14 UNK         0.0134 
     59 N         -49.9719  -26.8382   10.3191 N.am      6 UNK        -0.4116 
     60 C         -49.9829  -28.0673   10.8499 C.2       5 UNK         0.5034 
     61 O         -50.9906  -28.6144   11.2959 O.2       5 UNK        -0.5045 
     62 CA        -48.6377  -28.8102   10.9045 C.3       5 UNK         0.0224 
     63 CB        -48.4836  -29.7469    9.6959 C.3       5 UNK        -0.1978 
     64 N         -47.5001  -27.8848   10.9423 N.am      5 UNK        -0.4737 
     65 C         -46.9155  -27.4438   12.0650 C.2       4 UNK         0.5027 
     66 O         -47.2335  -27.8225   13.1912 O.2       4 UNK        -0.5211 
     67 CA        -45.7609  -26.4327   11.9228 C.3       4 UNK         0.0297 
     68 CB        -44.4077  -27.1496   12.0582 C.3       4 UNK        -0.1993 
     69 N         -45.7792  -25.6868   10.6628 N.am      4 UNK        -0.4486 
     70 C         -46.6352  -24.6991   10.3642 C.2       3 UNK         0.4961 
     71 O         -47.4827  -24.2623   11.1390 O.2       3 UNK        -0.5105 
     72 CA        -46.5630  -24.1299    8.9345 C.3       3 UNK         0.0299 
     73 CB        -45.6026  -22.9315    8.8807 C.3       3 UNK        -0.1972 
     74 N         -46.1760  -25.1183    7.9185 N.am      3 UNK        -0.4305 
     75 C         -46.8448  -26.2527    7.6727 C.2       2 UNK         0.5006 
     76 O         -47.8452  -26.6017    8.3047 O.2       2 UNK        -0.5106 
     77 CA        -46.2567  -27.1838    6.6001 C.3       2 UNK         0.0296 
     78 CB        -45.1517  -28.0626    7.2093 C.3       2 UNK        -0.2002 
     79 N         -47.2895  -28.0536    6.0401 N.am      2 UNK        -0.4032 
     80 C         -48.3058  -27.6464    5.2722 C.2       1 UNK         0.5000 
     81 O         -48.3894  -26.5114    4.7981 O.2       1 UNK        -0.5238 
     82 H82       -46.8750  -32.3605    4.4810 H         1 UNK         0.0889 
     83 H83       -48.3289  -32.2223    3.4897 H         1 UNK         0.0889 
     84 H84       -48.3974  -33.0556    5.0436 H         1 UNK         0.0889 
     85 H85       -49.1903  -30.1921    3.5766 H         1 UNK         0.3028 
     86 H86       -49.9761  -28.2556    4.1390 H         1 UNK         0.0864 
     87 H87       -49.9741  -29.2326    7.0372 H         1 UNK         0.0720 
     88 H88       -50.6565  -27.7181    6.5495 H         1 UNK         0.0720 
     89 H89       -53.8442  -28.6288    4.6035 H         1 UNK         0.0814 
     90 H90       -52.4065  -27.6848    4.3301 H         1 UNK         0.0814 
     91 H91       -51.9543  -25.7460    5.7272 H         1 UNK         0.1469 
     92 H92       -54.7127  -24.7432    8.8529 H         1 UNK         0.1381 
     93 H93       -54.9935  -28.5407    6.8814 H         1 UNK         0.1206 
     94 H94       -56.5753  -28.0203    8.5743 H         1 UNK         0.0813 
     95 H95       -56.9473  -26.3189    8.7145 H         1 UNK         0.0813 
     96 H96       -54.5930  -29.0505    9.7453 H         1 UNK         0.0638 
     97 H97       -53.5143  -28.0987   10.7316 H         1 UNK         0.0638 
     98 H98       -55.8429  -29.7745   11.7741 H         1 UNK         0.0568 
     99 H99       -52.6800  -31.9432   12.8203 H         1 UNK         0.3450 
    100 H100      -53.1938  -30.5493   13.7370 H         1 UNK         0.3450 
    101 H101      -54.0147  -27.9865   13.2131 H         1 UNK         0.2987 
    102 H102      -55.6566  -27.2017   15.3834 H         1 UNK         0.0766 
    103 H103      -55.1976  -29.7753   16.9822 H         1 UNK         0.0798 
    104 H104      -55.4463  -28.1765   17.6815 H         1 UNK         0.0798 
    105 H105      -56.7323  -28.9448   16.7674 H         1 UNK         0.0798 
    106 H106      -53.5015  -26.8235   15.8159 H         1 UNK         0.3198 
    107 H107      -50.8099  -28.5713   16.7686 H         1 UNK         0.0843 
    108 H108      -50.3023  -29.3321   14.4473 H         1 UNK         0.0831 
    109 H109      -49.3623  -27.9065   14.8547 H         1 UNK         0.0831 
    110 H110      -50.7768  -27.7649   13.8149 H         1 UNK         0.0831 
    111 H111      -50.9945  -25.9860   15.4814 H         1 UNK         0.3133 
    112 H112      -52.5069  -24.1941   17.3232 H         1 UNK         0.0566 
    113 H113      -51.1093  -22.9520   18.9999 H         1 UNK         0.0814 
    114 H114      -51.8813  -24.3734   19.6802 H         1 UNK         0.0814 
    115 H115      -50.1715  -24.4177   19.2882 H         1 UNK         0.0814 
    116 H116      -51.1592  -23.3753   15.8149 H         1 UNK         0.3091 
    117 H117      -48.0921  -22.4727   15.5373 H         1 UNK         0.0702 
    118 H118      -47.1063  -23.7648   13.6897 H         1 UNK         0.0785 
    119 H119      -48.1435  -25.1467   14.0451 H         1 UNK         0.0785 
    120 H120      -46.9013  -24.6478   15.1877 H         1 UNK         0.0785 
    121 H121      -49.9532  -23.6017   13.5139 H         1 UNK         0.2998 
    122 H122      -51.9338  -20.6559   13.4578 H         1 UNK         0.0697 
    123 H123      -50.0048  -21.6145   11.2692 H         1 UNK         0.0825 
    124 H124      -50.0806  -19.9796   11.9123 H         1 UNK         0.0825 
    125 H125      -51.4453  -20.6279   11.0182 H         1 UNK         0.0825 
    126 H126      -52.0532  -22.9391   11.8058 H         1 UNK         0.3029 
    127 H127      -53.0925  -25.3968   13.9942 H         1 UNK         0.0897 
    128 H128      -55.3162  -25.5807   13.0402 H         1 UNK         0.0792 
    129 H129      -55.2943  -24.1140   13.9903 H         1 UNK         0.0792 
    130 H130      -55.1827  -24.0130   12.2388 H         1 UNK         0.0792 
    131 H131      -53.4214  -25.3066   11.1831 H         1 UNK         0.3086 
    132 H132      -51.9311  -26.3886    9.8382 H         1 UNK         0.0583 
    133 H133      -49.8557  -24.1279    9.9048 H         1 UNK         0.1020 
    134 H134      -50.3471  -24.9785    8.4719 H         1 UNK         0.1020 
    135 H135      -53.2569  -22.9728    7.1914 H         1 UNK         0.0694 
    136 H136      -51.6929  -23.6659    6.8405 H         1 UNK         0.0694 
    137 H137      -49.0996  -26.5087    9.9249 H         1 UNK         0.2989 
    138 H138      -48.6463  -29.4237   11.8085 H         1 UNK         0.1055 
    139 H139      -47.5905  -30.3652    9.7855 H         1 UNK         0.0806 
    140 H140      -48.4083  -29.1916    8.7617 H         1 UNK         0.0806 
    141 H141      -49.3370  -30.4209    9.6079 H         1 UNK         0.0806 
    142 H142      -47.2171  -27.4881   10.0541 H         1 UNK         0.3061 
    143 H143      -45.8483  -25.7185   12.7434 H         1 UNK         0.0734 
    144 H144      -44.3462  -27.6892   13.0044 H         1 UNK         0.0832 
    145 H145      -44.2525  -27.8761   11.2594 H         1 UNK         0.0832 
    146 H146      -43.5784  -26.4422   12.0376 H         1 UNK         0.0832 
    147 H147      -45.1129  -25.9668    9.9584 H         1 UNK         0.3156 
    148 H148      -47.5628  -23.7746    8.6764 H         1 UNK         0.0589 
    149 H149      -45.6180  -22.4528    7.9014 H         1 UNK         0.0808 
    150 H150      -45.8846  -22.1736    9.6131 H         1 UNK         0.0808 
    151 H151      -44.5746  -23.2258    9.0963 H         1 UNK         0.0808 
    152 H152      -45.3559  -24.9062    7.3677 H         1 UNK         0.3098 
    153 H153      -45.8357  -26.5789    5.7945 H         1 UNK         0.0720 
    154 H154      -44.7186  -28.7272    6.4614 H         1 UNK         0.0791 
    155 H155      -45.5315  -28.6815    8.0240 H         1 UNK         0.0791 
    156 H156      -44.3384  -27.4561    7.6096 H         1 UNK         0.0791 
    157 H157      -47.3336  -29.0106    6.3842 H         1 UNK         0.3028 
@<TRIPOS>BOND
     1    1    2 1    
     2    1   82 1    
     3    1   83 1    
     4    1   84 1    
     5    2    3 2    
     6    2    4 am   BACKBONE|DICT|INTERRES
     7    4    5 1    
     8    4   85 1    
     9    5    6 1    
    10    5   80 1    
    11    5   86 1    
    12    6    7 1    
    13    6   87 1    
    14    6   88 1    
    15    7    8 1    
    16    8    9 1    
    17    8   89 1    
    18    8   90 1    
    19    9   10 ar   
    20    9   14 ar   
    21   10   11 ar   
    22   10   91 1    
    23   11   12 ar   
    24   11   58 1    
    25   12   13 ar   
    26   12   92 1    
    27   13   14 ar   
    28   13   15 1    
    29   14   93 1    
    30   15   16 1    
    31   15   94 1    
    32   15   95 1    
    33   16   17 1    
    34   17   18 1    
    35   17   96 1    
    36   17   97 1    
    37   18   19 1    
    38   18   22 1    
    39   18   98 1    
    40   19   20 am   BACKBONE|DICT|INTERRES
    41   19   21 2    
    42   20   99 1    
    43   20  100 1    
    44   22   23 am   BACKBONE|DICT|INTERRES
    45   22  101 1    
    46   23   24 2    
    47   23   25 1    
    48   25   26 1    
    49   25   27 1    
    50   25  102 1    
    51   26  103 1    
    52   26  104 1    
    53   26  105 1    
    54   27   28 am   BACKBONE|DICT|INTERRES
    55   27  106 1    
    56   28   29 2    
    57   28   30 1    
    58   30   31 1    
    59   30   32 1    
    60   30  107 1    
    61   31  108 1    
    62   31  109 1    
    63   31  110 1    
    64   32   33 am   BACKBONE|DICT|INTERRES
    65   32  111 1    
    66   33   34 2    
    67   33   35 1    
    68   35   36 1    
    69   35   37 1    
    70   35  112 1    
    71   36  113 1    
    72   36  114 1    
    73   36  115 1    
    74   37   38 am   BACKBONE|DICT|INTERRES
    75   37  116 1    
    76   38   39 2    
    77   38   40 1    
    78   40   41 1    
    79   40   42 1    
    80   40  117 1    
    81   41  118 1    
    82   41  119 1    
    83   41  120 1    
    84   42   43 am   BACKBONE|DICT|INTERRES
    85   42  121 1    
    86   43   44 2    
    87   43   45 1    
    88   45   46 1    
    89   45   47 1    
    90   45  122 1    
    91   46  123 1    
    92   46  124 1    
    93   46  125 1    
    94   47   48 am   BACKBONE|DICT|INTERRES
    95   47  126 1    
    96   48   49 2    
    97   48   50 1    
    98   50   51 1    
    99   50   52 1    
   100   50  127 1    
   101   51  128 1    
   102   51  129 1    
   103   51  130 1    
   104   52   53 am   BACKBONE|DICT|INTERRES
   105   52  131 1    
   106   53   54 2    
   107   53   55 1    
   108   55   56 1    
   109   55   59 1    
   110   55  132 1    
   111   56   57 1    
   112   56  133 1    
   113   56  134 1    
   114   57   58 1    
   115   58  135 1    
   116   58  136 1    
   117   59   60 am   BACKBONE|DICT|INTERRES
   118   59  137 1    
   119   60   61 2    
   120   60   62 1    
   121   62   63 1    
   122   62   64 1    
   123   62  138 1    
   124   63  139 1    
   125   63  140 1    
   126   63  141 1    
   127   64   65 am   BACKBONE|DICT|INTERRES
   128   64  142 1    
   129   65   66 2    
   130   65   67 1    
   131   67   68 1    
   132   67   69 1    
   133   67  143 1    
   134   68  144 1    
   135   68  145 1    
   136   68  146 1    
   137   69   70 am   BACKBONE|DICT|INTERRES
   138   69  147 1    
   139   70   71 2    
   140   70   72 1    
   141   72   73 1    
   142   72   74 1    
   143   72  148 1    
   144   73  149 1    
   145   73  150 1    
   146   73  151 1    
   147   74   75 am   BACKBONE|DICT|INTERRES
   148   74  152 1    
   149   75   76 2    
   150   75   77 1    
   151   77   78 1    
   152   77   79 1    
   153   77  153 1    
   154   78  154 1    
   155   78  155 1    
   156   78  156 1    
   157   79   80 am   BACKBONE|DICT|INTERRES
   158   79  157 1    
   159   80   81 2    
@<TRIPOS>SUBSTRUCTURE
     1 UNK         1 GROUP             0       ****    0 ROOT    
