@<TRIPOS>MOLECULE
3R207
157   159    1
SMALL
USER_CHARGES


@<TRIPOS>ATOM
      1 CA        -44.6337  -29.9601    7.7153 C.3       0 UNK        -0.1975 
      2 C         -45.3262  -29.9740    6.3604 C.2       0 UNK         0.4852 
      3 O         -44.6644  -29.8309    5.3321 O.2       0 UNK        -0.5216 
      4 N         -46.6557  -30.1384    6.3542 N.am      1 UNK        -0.4461 
      5 CA        -47.5151  -30.1214    5.1615 C.3       1 UNK         0.0864 
      6 C6        -48.9076  -30.7453    5.4430 C.3       14 UNK        -0.0898 
      7 S7        -49.7009  -30.1046    6.9567 S.3       14 UNK        -0.2598 
      8 C8        -51.1168  -29.1747    6.2895 C.3       14 UNK         0.0286 
      9 C9        -51.6894  -28.2000    7.3129 C.ar      14 UNK        -0.0844 
     10 C10       -51.8500  -26.8523    6.9794 C.ar      14 UNK        -0.0881 
     11 C11       -52.3629  -25.9416    7.9085 C.ar      14 UNK        -0.0643 
     12 C12       -52.7145  -26.3880    9.1863 C.ar      14 UNK        -0.0930 
     13 C13       -52.5489  -27.7303    9.5376 C.ar      14 UNK        -0.0827 
     14 C14       -52.0565  -28.6342    8.5914 C.ar      14 UNK        -0.1249 
     15 C15       -52.8770  -28.2034   10.9446 C.3       14 UNK         0.0141 
     16 S16       -54.6540  -28.5306   11.1303 S.3       14 UNK        -0.2313 
     17 C17       -54.6270  -29.7422   12.4906 C.3       14 UNK        -0.0915 
     18 CA        -55.9783  -29.7974   13.2518 C.3       13 UNK         0.0968 
     19 C         -56.1087  -31.0852   14.1224 C.2       13 UNK         0.5732 
     20 N         -56.5992  -31.0286   15.3552 N.am      13 UNK        -0.7310 
     21 O         -55.7704  -32.1746   13.6657 O.2       13 UNK        -0.5035 
     22 N         -56.2232  -28.5480   13.9894 N.am      13 UNK        -0.4233 
     23 C         -57.4288  -28.0332   14.2519 C.2       13 UNK         0.4989 
     24 O         -58.4831  -28.4883   13.8032 O.2       13 UNK        -0.4996 
     25 CA        -57.4476  -26.8428   15.2329 C.3       12 UNK         0.0216 
     26 CB        -58.8629  -26.2692   15.4565 C.3       12 UNK        -0.1964 
     27 N         -56.8217  -27.1800   16.5207 N.am      12 UNK        -0.4276 
     28 C         -57.1239  -28.2051   17.3336 C.2       12 UNK         0.5020 
     29 O         -58.0280  -29.0125   17.1142 O.2       12 UNK        -0.5489 
     30 CA        -56.2041  -28.4070   18.5535 C.3       11 UNK         0.0294 
     31 CB        -56.6457  -29.5823   19.4462 C.3       11 UNK        -0.2019 
     32 N         -54.8291  -28.6406   18.1068 N.am      11 UNK        -0.4493 
     33 C         -53.9677  -27.6723   17.7756 C.2       11 UNK         0.4932 
     34 O         -54.2128  -26.4751   17.9458 O.2       11 UNK        -0.5029 
     35 CA        -52.6401  -28.0959   17.1126 C.3       10 UNK         0.0280 
     36 CB        -52.6964  -29.4841   16.4325 C.3       10 UNK        -0.1976 
     37 N         -52.1752  -27.0758   16.1665 N.am      10 UNK        -0.4242 
     38 C         -52.8168  -26.6184   15.0824 C.2       10 UNK         0.5072 
     39 O         -53.8748  -27.0939   14.6645 O.2       10 UNK        -0.5224 
     40 CA        -52.2060  -25.4114   14.3443 C.3       9 UNK         0.0343 
     41 CB        -52.8063  -24.0977   14.8791 C.3       9 UNK        -0.2003 
     42 N         -50.7364  -25.3413   14.3091 N.am      9 UNK        -0.4272 
     43 C         -49.8584  -25.1885   15.3126 C.2       9 UNK         0.4988 
     44 O         -50.1678  -25.1602   16.5043 O.2       9 UNK        -0.5108 
     45 CA        -48.3775  -25.0491   14.9195 C.3       8 UNK         0.0248 
     46 CB        -47.7794  -26.4150   14.5458 C.3       8 UNK        -0.2001 
     47 N         -48.1743  -24.0954   13.8253 N.am      8 UNK        -0.4140 
     48 C         -48.3771  -22.7725   13.9291 C.2       8 UNK         0.5028 
     49 O         -48.6769  -22.2038   14.9799 O.2       8 UNK        -0.5428 
     50 CA        -48.2346  -21.9377   12.6448 C.3       7 UNK         0.0264 
     51 CB        -46.7627  -21.5785   12.3853 C.3       7 UNK        -0.1988 
     52 N         -48.7908  -22.6070   11.4682 N.am      7 UNK        -0.4454 
     53 C         -50.0915  -22.8789   11.2835 C.2       7 UNK         0.5027 
     54 O         -50.9838  -22.5197   12.0516 O.2       7 UNK        -0.5083 
     55 CA        -50.4543  -23.7160   10.0409 C.3       6 UNK         0.0844 
     56 C56       -50.6402  -22.7977    8.8072 C.3       14 UNK        -0.0967 
     57 S57       -50.9369  -23.6670    7.2308 S.3       14 UNK        -0.2604 
     58 C58       -52.5405  -24.4821    7.5144 C.3       14 UNK         0.0134 
     59 N         -49.4991  -24.8089    9.8278 N.am      6 UNK        -0.4116 
     60 C         -49.3206  -25.8337   10.6752 C.2       5 UNK         0.5034 
     61 O         -49.9877  -26.0057   11.6943 O.2       5 UNK        -0.5045 
     62 CA        -48.1641  -26.7973   10.3782 C.3       5 UNK         0.0224 
     63 CB        -48.6240  -27.9399    9.4658 C.3       5 UNK        -0.1978 
     64 N         -47.0264  -26.1034    9.7759 N.am      5 UNK        -0.4737 
     65 C         -46.1788  -25.3261   10.4636 C.2       4 UNK         0.5027 
     66 O         -46.2425  -25.1640   11.6822 O.2       4 UNK        -0.5211 
     67 CA        -45.1119  -24.5688    9.6514 C.3       4 UNK         0.0297 
     68 CB        -43.8713  -25.4513    9.4424 C.3       4 UNK        -0.1993 
     69 N         -45.6038  -24.1003    8.3516 N.am      4 UNK        -0.4486 
     70 C         -46.6030  -23.2214    8.1927 C.2       3 UNK         0.4961 
     71 O         -47.1624  -22.6549    9.1307 O.2       3 UNK        -0.5105 
     72 CA        -47.0985  -22.9514    6.7598 C.3       3 UNK         0.0299 
     73 CB        -46.3953  -21.7125    6.1837 C.3       3 UNK        -0.1972 
     74 N         -46.9712  -24.0659    5.8097 N.am      3 UNK        -0.4305 
     75 C         -47.3881  -25.3292    5.9846 C.2       2 UNK         0.5006 
     76 O         -47.8567  -25.7571    7.0415 O.2       2 UNK        -0.5106 
     77 CA        -47.2308  -26.2788    4.7863 C.3       2 UNK         0.0296 
     78 CB        -45.8910  -26.0814    4.0409 C.3       2 UNK        -0.2002 
     79 N         -47.3410  -27.6594    5.2520 N.am      2 UNK        -0.4032 
     80 C         -47.6172  -28.7292    4.4951 C.2       1 UNK         0.5000 
     81 O         -47.9117  -28.6584    3.2999 O.2       1 UNK        -0.5238 
     82 H82       -45.3408  -30.0757    8.5366 H         1 UNK         0.0889 
     83 H83       -44.1032  -29.0186    7.8556 H         1 UNK         0.0889 
     84 H84       -43.9092  -30.7719    7.7743 H         1 UNK         0.0889 
     85 H85       -47.1506  -30.2658    7.2264 H         1 UNK         0.3028 
     86 H86       -47.0301  -30.7592    4.4189 H         1 UNK         0.0864 
     87 H87       -49.5746  -30.6325    4.5859 H         1 UNK         0.0720 
     88 H88       -48.7922  -31.8220    5.5763 H         1 UNK         0.0720 
     89 H89       -50.7979  -28.6394    5.3937 H         1 UNK         0.0814 
     90 H90       -51.8949  -29.8730    5.9787 H         1 UNK         0.0814 
     91 H91       -51.5694  -26.5019    5.9954 H         1 UNK         0.1469 
     92 H92       -53.1129  -25.6947    9.9136 H         1 UNK         0.1381 
     93 H93       -51.9328  -29.6749    8.8579 H         1 UNK         0.1206 
     94 H94       -52.3094  -29.1073   11.1712 H         1 UNK         0.0813 
     95 H95       -52.5663  -27.4564   11.6768 H         1 UNK         0.0813 
     96 H96       -53.8130  -29.5065   13.1782 H         1 UNK         0.0638 
     97 H97       -54.3828  -30.7073   12.0432 H         1 UNK         0.0638 
     98 H98       -56.7616  -29.9021   12.4990 H         1 UNK         0.0568 
     99 H99       -56.9855  -30.1730   15.7329 H         1 UNK         0.3450 
    100 H100      -56.6783  -31.8839   15.8810 H         1 UNK         0.3450 
    101 H101      -55.3951  -28.0815   14.3557 H         1 UNK         0.2987 
    102 H102      -56.8365  -26.0590   14.7821 H         1 UNK         0.0766 
    103 H103      -59.3087  -25.9514   14.5131 H         1 UNK         0.0798 
    104 H104      -58.8386  -25.3991   16.1125 H         1 UNK         0.0798 
    105 H105      -59.5332  -27.0054   15.9017 H         1 UNK         0.0798 
    106 H106      -56.0150  -26.6205   16.7785 H         1 UNK         0.3198 
    107 H107      -56.2504  -27.4967   19.1558 H         1 UNK         0.0843 
    108 H108      -57.6633  -29.4338   19.8103 H         1 UNK         0.0831 
    109 H109      -56.0018  -29.6801   20.3203 H         1 UNK         0.0831 
    110 H110      -56.6277  -30.5309   18.9080 H         1 UNK         0.0831 
    111 H111      -54.5740  -29.5984   17.9129 H         1 UNK         0.3133 
    112 H112      -51.8942  -28.1378   17.9072 H         1 UNK         0.0566 
    113 H113      -51.7708  -29.6958   15.8969 H         1 UNK         0.0814 
    114 H114      -52.8246  -30.2822   17.1644 H         1 UNK         0.0814 
    115 H115      -53.5146  -29.5569   15.7152 H         1 UNK         0.0814 
    116 H116      -51.3647  -26.5343   16.4599 H         1 UNK         0.3091 
    117 H117      -52.5103  -25.5066   13.3009 H         1 UNK         0.0702 
    118 H118      -52.5525  -23.9318   15.9266 H         1 UNK         0.0785 
    119 H119      -53.8947  -24.1095   14.8074 H         1 UNK         0.0785 
    120 H120      -52.4522  -23.2395   14.3080 H         1 UNK         0.0785 
    121 H121      -50.3504  -25.4432   13.3711 H         1 UNK         0.2998 
    122 H122      -47.8364  -24.6738   15.7907 H         1 UNK         0.0697 
    123 H123      -48.2844  -26.8600   13.6887 H         1 UNK         0.0825 
    124 H124      -47.8677  -27.1179   15.3753 H         1 UNK         0.0825 
    125 H125      -46.7198  -26.3314   14.3030 H         1 UNK         0.0825 
    126 H126      -47.8530  -24.4703   12.9401 H         1 UNK         0.3029 
    127 H127      -48.7906  -21.0091   12.7919 H         1 UNK         0.0897 
    128 H128      -46.6606  -20.9314   11.5138 H         1 UNK         0.0792 
    129 H129      -46.3348  -21.0473   13.2366 H         1 UNK         0.0792 
    130 H130      -46.1532  -22.4662   12.2142 H         1 UNK         0.0792 
    131 H131      -48.1355  -22.8525   10.7289 H         1 UNK         0.3086 
    132 H132      -51.4184  -24.1754   10.2565 H         1 UNK         0.0583 
    133 H133      -51.4698  -22.1082    8.9757 H         1 UNK         0.1020 
    134 H134      -49.7610  -22.1671    8.6648 H         1 UNK         0.1020 
    135 H135      -53.1138  -23.9352    8.2644 H         1 UNK         0.0694 
    136 H136      -53.1225  -24.4357    6.5930 H         1 UNK         0.0694 
    137 H137      -48.9365  -24.7669    8.9887 H         1 UNK         0.2989 
    138 H138      -47.8403  -27.2344   11.3251 H         1 UNK         0.1055 
    139 H139      -49.4137  -28.5213    9.9431 H         1 UNK         0.0806 
    140 H140      -47.8079  -28.6253    9.2392 H         1 UNK         0.0806 
    141 H141      -49.0264  -27.5675    8.5234 H         1 UNK         0.0806 
    142 H142      -46.9861  -26.1012    8.7613 H         1 UNK         0.3061 
    143 H143      -44.8165  -23.6923   10.2320 H         1 UNK         0.0734 
    144 H144      -43.4749  -25.7969   10.3983 H         1 UNK         0.0832 
    145 H145      -44.0983  -26.3358    8.8457 H         1 UNK         0.0832 
    146 H146      -43.0727  -24.9030    8.9425 H         1 UNK         0.0832 
    147 H147      -45.1985  -24.5171    7.5266 H         1 UNK         0.3156 
    148 H148      -48.1624  -22.7246    6.8315 H         1 UNK         0.0589 
    149 H149      -45.3292  -21.8867    6.0329 H         1 UNK         0.0808 
    150 H150      -46.8276  -21.4172    5.2274 H         1 UNK         0.0808 
    151 H151      -46.4939  -20.8588    6.8562 H         1 UNK         0.0808 
    152 H152      -46.5848  -23.8269    4.9081 H         1 UNK         0.3098 
    153 H153      -48.0579  -26.0736    4.1039 H         1 UNK         0.0720 
    154 H154      -45.7777  -26.7991    3.2282 H         1 UNK         0.0791 
    155 H155      -45.0379  -26.2065    4.7092 H         1 UNK         0.0791 
    156 H156      -45.8190  -25.0916    3.5895 H         1 UNK         0.0791 
    157 H157      -47.2076  -27.7828    6.2465 H         1 UNK         0.3028 
@<TRIPOS>BOND
     1    1    2 1    
     2    1   82 1    
     3    1   83 1    
     4    1   84 1    
     5    2    3 2    
     6    2    4 am   BACKBONE|DICT|INTERRES
     7    4    5 1    
     8    4   85 1    
     9    5    6 1    
    10    5   80 1    
    11    5   86 1    
    12    6    7 1    
    13    6   87 1    
    14    6   88 1    
    15    7    8 1    
    16    8    9 1    
    17    8   89 1    
    18    8   90 1    
    19    9   10 ar   
    20    9   14 ar   
    21   10   11 ar   
    22   10   91 1    
    23   11   12 ar   
    24   11   58 1    
    25   12   13 ar   
    26   12   92 1    
    27   13   14 ar   
    28   13   15 1    
    29   14   93 1    
    30   15   16 1    
    31   15   94 1    
    32   15   95 1    
    33   16   17 1    
    34   17   18 1    
    35   17   96 1    
    36   17   97 1    
    37   18   19 1    
    38   18   22 1    
    39   18   98 1    
    40   19   20 am   BACKBONE|DICT|INTERRES
    41   19   21 2    
    42   20   99 1    
    43   20  100 1    
    44   22   23 am   BACKBONE|DICT|INTERRES
    45   22  101 1    
    46   23   24 2    
    47   23   25 1    
    48   25   26 1    
    49   25   27 1    
    50   25  102 1    
    51   26  103 1    
    52   26  104 1    
    53   26  105 1    
    54   27   28 am   BACKBONE|DICT|INTERRES
    55   27  106 1    
    56   28   29 2    
    57   28   30 1    
    58   30   31 1    
    59   30   32 1    
    60   30  107 1    
    61   31  108 1    
    62   31  109 1    
    63   31  110 1    
    64   32   33 am   BACKBONE|DICT|INTERRES
    65   32  111 1    
    66   33   34 2    
    67   33   35 1    
    68   35   36 1    
    69   35   37 1    
    70   35  112 1    
    71   36  113 1    
    72   36  114 1    
    73   36  115 1    
    74   37   38 am   BACKBONE|DICT|INTERRES
    75   37  116 1    
    76   38   39 2    
    77   38   40 1    
    78   40   41 1    
    79   40   42 1    
    80   40  117 1    
    81   41  118 1    
    82   41  119 1    
    83   41  120 1    
    84   42   43 am   BACKBONE|DICT|INTERRES
    85   42  121 1    
    86   43   44 2    
    87   43   45 1    
    88   45   46 1    
    89   45   47 1    
    90   45  122 1    
    91   46  123 1    
    92   46  124 1    
    93   46  125 1    
    94   47   48 am   BACKBONE|DICT|INTERRES
    95   47  126 1    
    96   48   49 2    
    97   48   50 1    
    98   50   51 1    
    99   50   52 1    
   100   50  127 1    
   101   51  128 1    
   102   51  129 1    
   103   51  130 1    
   104   52   53 am   BACKBONE|DICT|INTERRES
   105   52  131 1    
   106   53   54 2    
   107   53   55 1    
   108   55   56 1    
   109   55   59 1    
   110   55  132 1    
   111   56   57 1    
   112   56  133 1    
   113   56  134 1    
   114   57   58 1    
   115   58  135 1    
   116   58  136 1    
   117   59   60 am   BACKBONE|DICT|INTERRES
   118   59  137 1    
   119   60   61 2    
   120   60   62 1    
   121   62   63 1    
   122   62   64 1    
   123   62  138 1    
   124   63  139 1    
   125   63  140 1    
   126   63  141 1    
   127   64   65 am   BACKBONE|DICT|INTERRES
   128   64  142 1    
   129   65   66 2    
   130   65   67 1    
   131   67   68 1    
   132   67   69 1    
   133   67  143 1    
   134   68  144 1    
   135   68  145 1    
   136   68  146 1    
   137   69   70 am   BACKBONE|DICT|INTERRES
   138   69  147 1    
   139   70   71 2    
   140   70   72 1    
   141   72   73 1    
   142   72   74 1    
   143   72  148 1    
   144   73  149 1    
   145   73  150 1    
   146   73  151 1    
   147   74   75 am   BACKBONE|DICT|INTERRES
   148   74  152 1    
   149   75   76 2    
   150   75   77 1    
   151   77   78 1    
   152   77   79 1    
   153   77  153 1    
   154   78  154 1    
   155   78  155 1    
   156   78  156 1    
   157   79   80 am   BACKBONE|DICT|INTERRES
   158   79  157 1    
   159   80   81 2    
@<TRIPOS>SUBSTRUCTURE
     1 UNK         1 GROUP             0       ****    0 ROOT    
