@<TRIPOS>MOLECULE
3R207
157   159    1
SMALL
USER_CHARGES


@<TRIPOS>ATOM
      1 CA        -49.4718  -27.0613   -0.2614 C.3       0 UNK        -0.1975 
      2 C         -50.1876  -26.5449    0.9780 C.2       0 UNK         0.4852 
      3 O         -50.5247  -25.3620    1.0389 O.2       0 UNK        -0.5216 
      4 N         -50.4252  -27.4250    1.9610 N.am      1 UNK        -0.4461 
      5 CA        -51.0728  -27.1119    3.2412 C.3       1 UNK         0.0864 
      6 C6        -51.4750  -28.4130    3.9792 C.3       14 UNK        -0.0898 
      7 S7        -52.6235  -28.1464    5.3703 S.3       14 UNK        -0.2598 
      8 C8        -51.5161  -28.5436    6.7537 C.3       14 UNK         0.0286 
      9 C9        -52.1815  -28.3124    8.0994 C.ar      14 UNK        -0.0844 
     10 C10       -52.0420  -27.0828    8.7474 C.ar      14 UNK        -0.0881 
     11 C11       -52.6201  -26.8713   10.0039 C.ar      14 UNK        -0.0643 
     12 C12       -53.3392  -27.9057   10.6095 C.ar      14 UNK        -0.0930 
     13 C13       -53.5040  -29.1338    9.9623 C.ar      14 UNK        -0.0827 
     14 C14       -52.9219  -29.3307    8.7056 C.ar      14 UNK        -0.1249 
     15 C15       -54.3576  -30.2202   10.6047 C.3       14 UNK         0.0141 
     16 S16       -53.5232  -31.8351   10.7136 S.3       14 UNK        -0.2313 
     17 C17       -52.1515  -31.5027   11.8674 C.3       14 UNK        -0.0915 
     18 CA        -52.5173  -31.8921   13.3322 C.3       13 UNK         0.0968 
     19 C         -51.2888  -32.2685   14.2172 C.2       13 UNK         0.5732 
     20 N         -51.3932  -32.1816   15.5383 N.am      13 UNK        -0.7310 
     21 O         -50.2509  -32.6988   13.7199 O.2       13 UNK        -0.5035 
     22 N         -53.4504  -30.9428   13.9724 N.am      13 UNK        -0.4233 
     23 C         -53.1868  -29.6601   14.2614 C.2       13 UNK         0.4989 
     24 O         -52.1362  -29.0934   13.9675 O.2       13 UNK        -0.4996 
     25 CA        -54.2637  -28.9179   15.0734 C.3       12 UNK         0.0216 
     26 CB        -53.8612  -28.8204   16.5591 C.3       12 UNK        -0.1964 
     27 N         -54.6357  -27.5982   14.5421 N.am      12 UNK        -0.4276 
     28 C         -53.9096  -26.4718   14.4803 C.2       12 UNK         0.5020 
     29 O         -52.7232  -26.3694   14.8008 O.2       12 UNK        -0.5489 
     30 CA        -54.6741  -25.2215   14.0240 C.3       11 UNK         0.0294 
     31 CB        -55.7284  -24.7968   15.0662 C.3       11 UNK        -0.2019 
     32 N         -53.7347  -24.1239   13.8097 N.am      11 UNK        -0.4493 
     33 C         -53.9484  -23.0682   13.0142 C.2       11 UNK         0.4932 
     34 O         -54.9852  -22.9058   12.3682 O.2       11 UNK        -0.5029 
     35 CA        -52.8102  -22.0321   12.9106 C.3       10 UNK         0.0280 
     36 CB        -53.2731  -20.6821   12.3220 C.3       10 UNK        -0.1976 
     37 N         -52.0930  -21.8350   14.1753 N.am      10 UNK        -0.4242 
     38 C         -52.5854  -21.3858   15.3387 C.2       10 UNK         0.5072 
     39 O         -53.7515  -21.0260   15.5117 O.2       10 UNK        -0.5224 
     40 CA        -51.5956  -21.3736   16.5207 C.3       9 UNK         0.0343 
     41 CB        -51.9231  -20.2637   17.5363 C.3       9 UNK        -0.2003 
     42 N         -51.5609  -22.6618   17.2189 N.am      9 UNK        -0.4272 
     43 C         -51.1335  -23.8187   16.6956 C.2       9 UNK         0.4988 
     44 O         -50.6792  -23.9191   15.5522 O.2       9 UNK        -0.5108 
     45 CA        -51.2239  -25.0549   17.6053 C.3       8 UNK         0.0248 
     46 CB        -52.6641  -25.3041   18.0919 C.3       8 UNK        -0.2001 
     47 N         -50.7744  -26.2287   16.8609 N.am      8 UNK        -0.4140 
     48 C         -49.6702  -26.9391   17.1155 C.2       8 UNK         0.5028 
     49 O         -48.9440  -26.7535   18.0939 O.2       8 UNK        -0.5428 
     50 CA        -49.2985  -28.0444   16.1140 C.3       7 UNK         0.0264 
     51 CB        -49.8174  -29.4083   16.5881 C.3       7 UNK        -0.1988 
     52 N         -49.7925  -27.7750   14.7611 N.am      7 UNK        -0.4454 
     53 C         -49.1582  -26.9948   13.8790 C.2       7 UNK         0.5027 
     54 O         -48.0708  -26.4567   14.1045 O.2       7 UNK        -0.5083 
     55 CA        -49.8372  -26.7727   12.5124 C.3       6 UNK         0.0844 
     56 C56       -50.2470  -25.2859   12.3585 C.3       14 UNK        -0.0967 
     57 S57       -50.8551  -24.8186   10.7034 S.3       14 UNK        -0.2604 
     58 C58       -52.5362  -25.5103   10.6812 C.3       14 UNK         0.0134 
     59 N         -48.9587  -27.2380   11.4361 N.am      6 UNK        -0.4116 
     60 C         -48.6777  -28.5267   11.1905 C.2       5 UNK         0.5034 
     61 O         -49.1206  -29.4614   11.8574 O.2       5 UNK        -0.5045 
     62 CA        -47.7647  -28.8556    9.9951 C.3       5 UNK         0.0224 
     63 CB        -48.5997  -29.3839    8.8202 C.3       5 UNK        -0.1978 
     64 N         -46.9672  -27.7181    9.5343 N.am      5 UNK        -0.4737 
     65 C         -45.8499  -27.2882   10.1385 C.2       4 UNK         0.5027 
     66 O         -45.3510  -27.8423   11.1180 O.2       4 UNK        -0.5211 
     67 CA        -45.1665  -26.0326    9.5610 C.3       4 UNK         0.0297 
     68 CB        -43.9616  -26.4302    8.6929 C.3       4 UNK        -0.1993 
     69 N         -46.0619  -25.1814    8.7730 N.am      4 UNK        -0.4486 
     70 C         -47.1399  -24.5459    9.2528 C.2       3 UNK         0.4961 
     71 O         -47.4509  -24.5483   10.4429 O.2       3 UNK        -0.5105 
     72 CA        -48.0378  -23.8106    8.2394 C.3       3 UNK         0.0299 
     73 CB        -47.8226  -22.2918    8.3370 C.3       3 UNK        -0.1972 
     74 N         -47.8649  -24.2343    6.8441 N.am      3 UNK        -0.4305 
     75 C         -48.1322  -25.4567    6.3623 C.2       2 UNK         0.5006 
     76 O         -48.4883  -26.4108    7.0571 O.2       2 UNK        -0.5106 
     77 CA        -47.8781  -25.6558    4.8582 C.3       2 UNK         0.0296 
     78 CB        -46.4998  -26.3009    4.6374 C.3       2 UNK        -0.2002 
     79 N         -48.8987  -26.4711    4.1943 N.am      2 UNK        -0.4032 
     80 C         -50.2039  -26.1687    4.1067 C.2       1 UNK         0.5000 
     81 O         -50.7140  -25.1690    4.6169 O.2       1 UNK        -0.5238 
     82 H82       -49.2404  -28.1237   -0.1871 H         1 UNK         0.0889 
     83 H83       -48.5372  -26.5203   -0.4072 H         1 UNK         0.0889 
     84 H84       -50.0937  -26.9112   -1.1435 H         1 UNK         0.0889 
     85 H85       -50.1353  -28.3850    1.8378 H         1 UNK         0.3028 
     86 H86       -51.9910  -26.5693    3.0042 H         1 UNK         0.0864 
     87 H87       -51.9861  -29.0815    3.2842 H         1 UNK         0.0720 
     88 H88       -50.5915  -28.9600    4.3139 H         1 UNK         0.0720 
     89 H89       -50.6186  -27.9299    6.6725 H         1 UNK         0.0814 
     90 H90       -51.1890  -29.5816    6.6745 H         1 UNK         0.0814 
     91 H91       -51.4839  -26.2881    8.2704 H         1 UNK         0.1469 
     92 H92       -53.7951  -27.7455   11.5763 H         1 UNK         0.1381 
     93 H93       -53.0467  -30.2777    8.1985 H         1 UNK         0.1206 
     94 H94       -54.6853  -29.9235   11.6013 H         1 UNK         0.0813 
     95 H95       -55.2648  -30.3403   10.0113 H         1 UNK         0.0813 
     96 H96       -51.8269  -30.4647   11.7898 H         1 UNK         0.0638 
     97 H97       -51.3120  -32.0950   11.5010 H         1 UNK         0.0638 
     98 H98       -53.0661  -32.8330   13.2788 H         1 UNK         0.0568 
     99 H99       -50.6095  -32.4525   16.1097 H         1 UNK         0.3450 
    100 H100      -52.2476  -31.8686   15.9675 H         1 UNK         0.3450 
    101 H101      -54.3291  -31.3407   14.2705 H         1 UNK         0.2987 
    102 H102      -55.1782  -29.5115   15.0262 H         1 UNK         0.0766 
    103 H103      -54.6550  -28.3707   17.1554 H         1 UNK         0.0798 
    104 H104      -52.9624  -28.2203   16.6995 H         1 UNK         0.0798 
    105 H105      -53.6604  -29.8068   16.9784 H         1 UNK         0.0798 
    106 H106      -55.5927  -27.5388   14.2227 H         1 UNK         0.3198 
    107 H107      -55.1676  -25.4595   13.0790 H         1 UNK         0.0843 
    108 H108      -56.2991  -23.9336   14.7231 H         1 UNK         0.0831 
    109 H109      -55.2673  -24.5292   16.0173 H         1 UNK         0.0831 
    110 H110      -56.4459  -25.5939   15.2628 H         1 UNK         0.0831 
    111 H111      -52.8433  -24.2401   14.2797 H         1 UNK         0.3133 
    112 H112      -52.0828  -22.4555   12.2173 H         1 UNK         0.0566 
    113 H113      -52.4451  -19.9776   12.2449 H         1 UNK         0.0814 
    114 H114      -53.6798  -20.8123   11.3184 H         1 UNK         0.0814 
    115 H115      -54.0519  -20.2208   12.9301 H         1 UNK         0.0814 
    116 H116      -51.1481  -22.1998   14.1995 H         1 UNK         0.3091 
    117 H117      -50.5974  -21.1743   16.1247 H         1 UNK         0.0702 
    118 H118      -51.1633  -20.2020   18.3157 H         1 UNK         0.0785 
    119 H119      -52.8874  -20.4264   18.0198 H         1 UNK         0.0785 
    120 H120      -51.9643  -19.2891   17.0479 H         1 UNK         0.0785 
    121 H121      -51.9306  -22.6667   18.1583 H         1 UNK         0.2998 
    122 H122      -50.5837  -24.8776   18.4715 H         1 UNK         0.0697 
    123 H123      -53.3619  -25.3948   17.2603 H         1 UNK         0.0825 
    124 H124      -53.0190  -24.4951   18.7307 H         1 UNK         0.0825 
    125 H125      -52.7276  -26.2221   18.6764 H         1 UNK         0.0825 
    126 H126      -51.2924  -26.4076   16.0009 H         1 UNK         0.3029 
    127 H127      -48.2080  -28.1003   16.0862 H         1 UNK         0.0897 
    128 H128      -49.4558  -30.2054   15.9389 H         1 UNK         0.0792 
    129 H129      -49.4728  -29.6310   17.5987 H         1 UNK         0.0792 
    130 H130      -50.9060  -29.4476   16.5958 H         1 UNK         0.0792 
    131 H131      -50.6860  -28.1940   14.4953 H         1 UNK         0.3086 
    132 H132      -50.7498  -27.3710   12.4701 H         1 UNK         0.0583 
    133 H133      -49.3959  -24.6351   12.5710 H         1 UNK         0.1020 
    134 H134      -51.0050  -25.0291   13.0993 H         1 UNK         0.1020 
    135 H135      -52.9108  -25.5731   11.7003 H         1 UNK         0.0694 
    136 H136      -53.1915  -24.8183   10.1509 H         1 UNK         0.0694 
    137 H137      -48.5231  -26.5159   10.8773 H         1 UNK         0.2989 
    138 H138      -47.0880  -29.6513   10.3150 H         1 UNK         0.1055 
    139 H139      -49.1918  -30.2517    9.1148 H         1 UNK         0.0806 
    140 H140      -47.9705  -29.6844    7.9824 H         1 UNK         0.0806 
    141 H141      -49.2922  -28.6224    8.4668 H         1 UNK         0.0806 
    142 H142      -47.3236  -27.2074    8.7334 H         1 UNK         0.3061 
    143 H143      -44.8038  -25.4426   10.4055 H         1 UNK         0.0734 
    144 H144      -43.2586  -27.0427    9.2594 H         1 UNK         0.0832 
    145 H145      -44.2662  -27.0088    7.8197 H         1 UNK         0.0832 
    146 H146      -43.4150  -25.5540    8.3439 H         1 UNK         0.0832 
    147 H147      -45.8792  -25.1201    7.7826 H         1 UNK         0.3156 
    148 H148      -49.0721  -24.0242    8.5125 H         1 UNK         0.0589 
    149 H149      -46.8095  -22.0073    8.0501 H         1 UNK         0.0808 
    150 H150      -48.5202  -21.7489    7.6989 H         1 UNK         0.0808 
    151 H151      -47.9830  -21.9410    9.3577 H         1 UNK         0.0808 
    152 H152      -47.5537  -23.5216    6.1992 H         1 UNK         0.3098 
    153 H153      -47.8835  -24.6784    4.3710 H         1 UNK         0.0720 
    154 H154      -46.2706  -26.3973    3.5758 H         1 UNK         0.0791 
    155 H155      -46.4439  -27.2943    5.0852 H         1 UNK         0.0791 
    156 H156      -45.7071  -25.6981    5.0827 H         1 UNK         0.0791 
    157 H157      -48.5753  -27.3142    3.7446 H         1 UNK         0.3028 
@<TRIPOS>BOND
     1    1    2 1    
     2    1   82 1    
     3    1   83 1    
     4    1   84 1    
     5    2    3 2    
     6    2    4 am   BACKBONE|DICT|INTERRES
     7    4    5 1    
     8    4   85 1    
     9    5    6 1    
    10    5   80 1    
    11    5   86 1    
    12    6    7 1    
    13    6   87 1    
    14    6   88 1    
    15    7    8 1    
    16    8    9 1    
    17    8   89 1    
    18    8   90 1    
    19    9   10 ar   
    20    9   14 ar   
    21   10   11 ar   
    22   10   91 1    
    23   11   12 ar   
    24   11   58 1    
    25   12   13 ar   
    26   12   92 1    
    27   13   14 ar   
    28   13   15 1    
    29   14   93 1    
    30   15   16 1    
    31   15   94 1    
    32   15   95 1    
    33   16   17 1    
    34   17   18 1    
    35   17   96 1    
    36   17   97 1    
    37   18   19 1    
    38   18   22 1    
    39   18   98 1    
    40   19   20 am   BACKBONE|DICT|INTERRES
    41   19   21 2    
    42   20   99 1    
    43   20  100 1    
    44   22   23 am   BACKBONE|DICT|INTERRES
    45   22  101 1    
    46   23   24 2    
    47   23   25 1    
    48   25   26 1    
    49   25   27 1    
    50   25  102 1    
    51   26  103 1    
    52   26  104 1    
    53   26  105 1    
    54   27   28 am   BACKBONE|DICT|INTERRES
    55   27  106 1    
    56   28   29 2    
    57   28   30 1    
    58   30   31 1    
    59   30   32 1    
    60   30  107 1    
    61   31  108 1    
    62   31  109 1    
    63   31  110 1    
    64   32   33 am   BACKBONE|DICT|INTERRES
    65   32  111 1    
    66   33   34 2    
    67   33   35 1    
    68   35   36 1    
    69   35   37 1    
    70   35  112 1    
    71   36  113 1    
    72   36  114 1    
    73   36  115 1    
    74   37   38 am   BACKBONE|DICT|INTERRES
    75   37  116 1    
    76   38   39 2    
    77   38   40 1    
    78   40   41 1    
    79   40   42 1    
    80   40  117 1    
    81   41  118 1    
    82   41  119 1    
    83   41  120 1    
    84   42   43 am   BACKBONE|DICT|INTERRES
    85   42  121 1    
    86   43   44 2    
    87   43   45 1    
    88   45   46 1    
    89   45   47 1    
    90   45  122 1    
    91   46  123 1    
    92   46  124 1    
    93   46  125 1    
    94   47   48 am   BACKBONE|DICT|INTERRES
    95   47  126 1    
    96   48   49 2    
    97   48   50 1    
    98   50   51 1    
    99   50   52 1    
   100   50  127 1    
   101   51  128 1    
   102   51  129 1    
   103   51  130 1    
   104   52   53 am   BACKBONE|DICT|INTERRES
   105   52  131 1    
   106   53   54 2    
   107   53   55 1    
   108   55   56 1    
   109   55   59 1    
   110   55  132 1    
   111   56   57 1    
   112   56  133 1    
   113   56  134 1    
   114   57   58 1    
   115   58  135 1    
   116   58  136 1    
   117   59   60 am   BACKBONE|DICT|INTERRES
   118   59  137 1    
   119   60   61 2    
   120   60   62 1    
   121   62   63 1    
   122   62   64 1    
   123   62  138 1    
   124   63  139 1    
   125   63  140 1    
   126   63  141 1    
   127   64   65 am   BACKBONE|DICT|INTERRES
   128   64  142 1    
   129   65   66 2    
   130   65   67 1    
   131   67   68 1    
   132   67   69 1    
   133   67  143 1    
   134   68  144 1    
   135   68  145 1    
   136   68  146 1    
   137   69   70 am   BACKBONE|DICT|INTERRES
   138   69  147 1    
   139   70   71 2    
   140   70   72 1    
   141   72   73 1    
   142   72   74 1    
   143   72  148 1    
   144   73  149 1    
   145   73  150 1    
   146   73  151 1    
   147   74   75 am   BACKBONE|DICT|INTERRES
   148   74  152 1    
   149   75   76 2    
   150   75   77 1    
   151   77   78 1    
   152   77   79 1    
   153   77  153 1    
   154   78  154 1    
   155   78  155 1    
   156   78  156 1    
   157   79   80 am   BACKBONE|DICT|INTERRES
   158   79  157 1    
   159   80   81 2    
@<TRIPOS>SUBSTRUCTURE
     1 UNK         1 GROUP             0       ****    0 ROOT    
