@<TRIPOS>MOLECULE
3R207
157   159    1
SMALL
USER_CHARGES


@<TRIPOS>ATOM
      1 CA        -47.5882  -31.3195    7.8719 C.3       0 UNK        -0.1975 
      2 C         -47.6485  -30.7902    6.4470 C.2       0 UNK         0.4852 
      3 O         -46.7617  -31.0885    5.6471 O.2       0 UNK        -0.5216 
      4 N         -48.6761  -29.9912    6.1288 N.am      1 UNK        -0.4461 
      5 CA        -48.9093  -29.4054    4.7981 C.3       1 UNK         0.0864 
      6 C6        -50.4206  -29.3386    4.4478 C.3       14 UNK        -0.0898 
      7 S7        -51.1960  -30.9934    4.4473 S.3       14 UNK        -0.2598 
      8 C8        -52.9047  -30.6278    4.9896 C.3       14 UNK         0.0286 
      9 C9        -53.0435  -30.0446    6.3974 C.ar      14 UNK        -0.0844 
     10 C10       -52.0715  -30.2378    7.3878 C.ar      14 UNK        -0.0881 
     11 C11       -52.2087  -29.6498    8.6475 C.ar      14 UNK        -0.0643 
     12 C12       -53.3520  -28.9043    8.9358 C.ar      14 UNK        -0.0930 
     13 C13       -54.3533  -28.7391    7.9773 C.ar      14 UNK        -0.0827 
     14 C14       -54.1879  -29.3013    6.7080 C.ar      14 UNK        -0.1249 
     15 C15       -55.6029  -27.9369    8.3110 C.3       14 UNK         0.0141 
     16 S16       -57.0097  -29.0055    8.7586 S.3       14 UNK        -0.2313 
     17 C17       -56.5050  -29.6447   10.3925 C.3       14 UNK        -0.0915 
     18 CA        -56.9497  -28.7243   11.5650 C.3       13 UNK         0.0968 
     19 C         -58.3772  -29.0476   12.0811 C.2       13 UNK         0.5732 
     20 N         -59.3969  -28.8375   11.2612 N.am      13 UNK        -0.7310 
     21 O         -58.5708  -29.4958   13.2110 O.2       13 UNK        -0.5035 
     22 N         -55.9818  -28.7424   12.6672 N.am      13 UNK        -0.4233 
     23 C         -54.8893  -27.9788   12.7526 C.2       13 UNK         0.4989 
     24 O         -54.5147  -27.2027   11.8707 O.2       13 UNK        -0.4996 
     25 CA        -54.0595  -28.1178   14.0401 C.3       12 UNK         0.0216 
     26 CB        -52.8086  -28.9772   13.7919 C.3       12 UNK        -0.1964 
     27 N         -53.6556  -26.8087   14.5558 N.am      12 UNK        -0.4276 
     28 C         -54.5037  -25.8951   15.0462 C.2       12 UNK         0.5020 
     29 O         -55.7158  -26.0868   15.1743 O.2       12 UNK        -0.5489 
     30 CA        -53.8835  -24.5516   15.4754 C.3       11 UNK         0.0294 
     31 CB        -54.9374  -23.5077   15.9029 C.3       11 UNK        -0.2019 
     32 N         -52.8563  -24.7019   16.5138 N.am      11 UNK        -0.4493 
     33 C         -53.0085  -25.2664   17.7229 C.2       11 UNK         0.4932 
     34 O         -54.0707  -25.7339   18.1378 O.2       11 UNK        -0.5029 
     35 CA        -51.7623  -25.2942   18.6312 C.3       10 UNK         0.0280 
     36 CB        -51.9478  -26.1833   19.8797 C.3       10 UNK        -0.1976 
     37 N         -50.5283  -25.6593   17.9284 N.am      10 UNK        -0.4242 
     38 C         -50.2723  -26.7717   17.2249 C.2       10 UNK         0.5072 
     39 O         -51.0926  -27.6744   17.0494 O.2       10 UNK        -0.5224 
     40 CA        -48.8488  -26.8991   16.6351 C.3       9 UNK         0.0343 
     41 CB        -48.7094  -28.1152   15.7000 C.3       9 UNK        -0.2003 
     42 N         -48.4096  -25.6967   15.9178 N.am      9 UNK        -0.4272 
     43 C         -48.0437  -24.5330   16.4738 C.2       9 UNK         0.4988 
     44 O         -47.9837  -24.3519   17.6908 O.2       9 UNK        -0.5108 
     45 CA        -47.7579  -23.3543   15.5273 C.3       8 UNK         0.0248 
     46 CB        -46.2928  -23.3735   15.0644 C.3       8 UNK        -0.2001 
     47 N         -48.6485  -23.3075   14.3629 N.am      8 UNK        -0.4140 
     48 C         -49.9849  -23.1886   14.4205 C.2       8 UNK         0.5028 
     49 O         -50.6283  -23.0900   15.4672 O.2       8 UNK        -0.5428 
     50 CA        -50.7373  -23.2447   13.0810 C.3       7 UNK         0.0264 
     51 CB        -50.5660  -21.9396   12.2872 C.3       7 UNK        -0.1988 
     52 N         -50.3242  -24.3879   12.2668 N.am      7 UNK        -0.4454 
     53 C         -50.4658  -25.6741   12.6220 C.2       7 UNK         0.5027 
     54 O         -51.0618  -26.0401   13.6360 O.2       7 UNK        -0.5083 
     55 CA        -49.7814  -26.7244   11.7239 C.3       6 UNK         0.0844 
     56 C56       -50.6774  -27.1320   10.5311 C.3       14 UNK        -0.0967 
     57 S57       -49.8990  -28.4536    9.5335 S.3       14 UNK        -0.2604 
     58 C58       -51.1107  -29.8026    9.6861 C.3       14 UNK         0.0134 
     59 N         -48.4618  -26.2679   11.2830 N.am      6 UNK        -0.4116 
     60 C         -47.3910  -26.1177   12.0715 C.2       5 UNK         0.5034 
     61 O         -47.3839  -26.3581   13.2767 O.2       5 UNK        -0.5045 
     62 CA        -46.1217  -25.5706   11.3992 C.3       5 UNK         0.0224 
     63 CB        -45.3332  -26.7086   10.7317 C.3       5 UNK        -0.1978 
     64 N         -46.4191  -24.5300   10.4103 N.am      5 UNK        -0.4737 
     65 C         -46.9363  -23.3308   10.7133 C.2       4 UNK         0.5027 
     66 O         -47.1705  -22.9575   11.8623 O.2       4 UNK        -0.5211 
     67 CA        -47.3066  -22.4244    9.5284 C.3       4 UNK         0.0297 
     68 CB        -46.0670  -21.6864    8.9999 C.3       4 UNK        -0.1993 
     69 N         -47.9494  -23.1568    8.4325 N.am      4 UNK        -0.4486 
     70 C         -49.1187  -23.8029    8.5186 C.2       3 UNK         0.4961 
     71 O         -49.7897  -23.8554    9.5474 O.2       3 UNK        -0.5105 
     72 CA        -49.6113  -24.5554    7.2716 C.3       3 UNK         0.0299 
     73 CB        -50.1735  -23.5865    6.2137 C.3       3 UNK        -0.1972 
     74 N         -48.6216  -25.4798    6.7016 N.am      3 UNK        -0.4305 
     75 C         -47.4575  -25.2028    6.0930 C.2       2 UNK         0.5006 
     76 O         -47.0235  -24.0616    5.9296 O.2       2 UNK        -0.5106 
     77 CA        -46.6060  -26.3955    5.6211 C.3       2 UNK         0.0296 
     78 CB        -45.3733  -26.5594    6.5265 C.3       2 UNK        -0.2002 
     79 N         -47.3384  -27.6651    5.5849 N.am      2 UNK        -0.4032 
     80 C         -48.2212  -28.0277    4.6411 C.2       1 UNK         0.5000 
     81 O         -48.5024  -27.3135    3.6769 O.2       1 UNK        -0.5238 
     82 H82       -47.6396  -32.4080    7.8692 H         1 UNK         0.0889 
     83 H83       -48.4070  -30.9435    8.4832 H         1 UNK         0.0889 
     84 H84       -46.6515  -31.0236    8.3437 H         1 UNK         0.0889 
     85 H85       -49.3619  -29.7582    6.8327 H         1 UNK         0.3028 
     86 H86       -48.4411  -30.0468    4.0480 H         1 UNK         0.0864 
     87 H87       -50.9437  -28.6809    5.1440 H         1 UNK         0.0720 
     88 H88       -50.5720  -28.9126    3.4542 H         1 UNK         0.0720 
     89 H89       -53.4850  -31.5500    4.9424 H         1 UNK         0.0814 
     90 H90       -53.3507  -29.9461    4.2634 H         1 UNK         0.0814 
     91 H91       -51.1955  -30.8337    7.1795 H         1 UNK         0.1469 
     92 H92       -53.4673  -28.4548    9.9105 H         1 UNK         0.1381 
     93 H93       -54.9574  -29.1607    5.9608 H         1 UNK         0.1206 
     94 H94       -55.4059  -27.2369    9.1248 H         1 UNK         0.0813 
     95 H95       -55.8838  -27.3288    7.4500 H         1 UNK         0.0813 
     96 H96       -55.4247  -29.7766   10.3931 H         1 UNK         0.0638 
     97 H97       -56.9065  -30.6529   10.5103 H         1 UNK         0.0638 
     98 H98       -56.9960  -27.6918   11.2123 H         1 UNK         0.0568 
     99 H99       -59.2413  -28.4991   10.3239 H         1 UNK         0.3450 
    100 H100      -60.3322  -29.0446   11.5745 H         1 UNK         0.3450 
    101 H101      -56.2595  -29.3171   13.4519 H         1 UNK         0.2987 
    102 H102      -54.6656  -28.6048   14.8070 H         1 UNK         0.0766 
    103 H103      -52.1618  -28.5392   13.0319 H         1 UNK         0.0798 
    104 H104      -52.2200  -29.0915   14.7029 H         1 UNK         0.0798 
    105 H105      -53.0813  -29.9769   13.4518 H         1 UNK         0.0798 
    106 H106      -52.6781  -26.5526   14.4269 H         1 UNK         0.3198 
    107 H107      -53.3810  -24.1589   14.5941 H         1 UNK         0.0843 
    108 H108      -55.6572  -23.3313   15.1026 H         1 UNK         0.0831 
    109 H109      -54.4733  -22.5499   16.1381 H         1 UNK         0.0831 
    110 H110      -55.5000  -23.8325   16.7787 H         1 UNK         0.0831 
    111 H111      -51.9424  -24.3249   16.2713 H         1 UNK         0.3133 
    112 H112      -51.6198  -24.2693   18.9766 H         1 UNK         0.0566 
    113 H113      -51.0669  -26.1565   20.5210 H         1 UNK         0.0814 
    114 H114      -52.7934  -25.8457   20.4801 H         1 UNK         0.0814 
    115 H115      -52.1347  -27.2232   19.6093 H         1 UNK         0.0814 
    116 H116      -49.7654  -24.9906   17.9979 H         1 UNK         0.3091 
    117 H117      -48.1734  -27.0545   17.4788 H         1 UNK         0.0702 
    118 H118      -47.6884  -28.2188   15.3323 H         1 UNK         0.0785 
    119 H119      -49.3703  -28.0323   14.8364 H         1 UNK         0.0785 
    120 H120      -48.9606  -29.0419   16.2174 H         1 UNK         0.0785 
    121 H121      -48.3760  -25.7728   14.9061 H         1 UNK         0.2998 
    122 H122      -47.9213  -22.4351   16.0934 H         1 UNK         0.0697 
    123 H123      -46.0671  -24.2628   14.4760 H         1 UNK         0.0825 
    124 H124      -45.6134  -23.3658   15.9178 H         1 UNK         0.0825 
    125 H125      -46.0575  -22.5009   14.4548 H         1 UNK         0.0825 
    126 H126      -48.2021  -23.3419   13.4493 H         1 UNK         0.3029 
    127 H127      -51.7990  -23.3604   13.2930 H         1 UNK         0.0897 
    128 H128      -51.1466  -21.9594   11.3646 H         1 UNK         0.0792 
    129 H129      -50.9094  -21.0831   12.8687 H         1 UNK         0.0792 
    130 H130      -49.5258  -21.7556   12.0203 H         1 UNK         0.0792 
    131 H131      -49.8997  -24.1752   11.3661 H         1 UNK         0.3086 
    132 H132      -49.6277  -27.6133   12.3398 H         1 UNK         0.0583 
    133 H133      -51.6516  -27.4615   10.8935 H         1 UNK         0.1020 
    134 H134      -50.8781  -26.2799    9.8804 H         1 UNK         0.1020 
    135 H135      -50.6010  -30.7570    9.5488 H         1 UNK         0.0694 
    136 H136      -51.5284  -29.8277   10.6938 H         1 UNK         0.0694 
    137 H137      -48.3773  -26.0287   10.3077 H         1 UNK         0.2989 
    138 H138      -45.4971  -25.1284   12.1786 H         1 UNK         0.1055 
    139 H139      -45.0507  -27.4652   11.4652 H         1 UNK         0.0806 
    140 H140      -44.4127  -26.3426   10.2762 H         1 UNK         0.0806 
    141 H141      -45.9169  -27.2103    9.9592 H         1 UNK         0.0806 
    142 H142      -46.2489  -24.7474    9.4397 H         1 UNK         0.3061 
    143 H143      -48.0184  -21.6806    9.8924 H         1 UNK         0.0734 
    144 H144      -45.5771  -21.1263    9.7978 H         1 UNK         0.0832 
    145 H145      -45.3304  -22.3751    8.5841 H         1 UNK         0.0832 
    146 H146      -46.3338  -20.9717    8.2213 H         1 UNK         0.0832 
    147 H147      -47.4604  -23.2037    7.5409 H         1 UNK         0.3156 
    148 H148      -50.4399  -25.1866    7.5972 H         1 UNK         0.0589 
    149 H149      -49.4154  -22.8989    5.8380 H         1 UNK         0.0808 
    150 H150      -50.5854  -24.1276    5.3619 H         1 UNK         0.0808 
    151 H151      -50.9782  -22.9807    6.6325 H         1 UNK         0.0808 
    152 H152      -48.8524  -26.4571    6.8055 H         1 UNK         0.3098 
    153 H153      -46.2601  -26.1663    4.6108 H         1 UNK         0.0720 
    154 H154      -44.7161  -27.3490    6.1613 H         1 UNK         0.0791 
    155 H155      -45.6529  -26.8034    7.5514 H         1 UNK         0.0791 
    156 H156      -44.7841  -25.6416    6.5582 H         1 UNK         0.0791 
    157 H157      -47.1453  -28.3255    6.3238 H         1 UNK         0.3028 
@<TRIPOS>BOND
     1    1    2 1    
     2    1   82 1    
     3    1   83 1    
     4    1   84 1    
     5    2    3 2    
     6    2    4 am   BACKBONE|DICT|INTERRES
     7    4    5 1    
     8    4   85 1    
     9    5    6 1    
    10    5   80 1    
    11    5   86 1    
    12    6    7 1    
    13    6   87 1    
    14    6   88 1    
    15    7    8 1    
    16    8    9 1    
    17    8   89 1    
    18    8   90 1    
    19    9   10 ar   
    20    9   14 ar   
    21   10   11 ar   
    22   10   91 1    
    23   11   12 ar   
    24   11   58 1    
    25   12   13 ar   
    26   12   92 1    
    27   13   14 ar   
    28   13   15 1    
    29   14   93 1    
    30   15   16 1    
    31   15   94 1    
    32   15   95 1    
    33   16   17 1    
    34   17   18 1    
    35   17   96 1    
    36   17   97 1    
    37   18   19 1    
    38   18   22 1    
    39   18   98 1    
    40   19   20 am   BACKBONE|DICT|INTERRES
    41   19   21 2    
    42   20   99 1    
    43   20  100 1    
    44   22   23 am   BACKBONE|DICT|INTERRES
    45   22  101 1    
    46   23   24 2    
    47   23   25 1    
    48   25   26 1    
    49   25   27 1    
    50   25  102 1    
    51   26  103 1    
    52   26  104 1    
    53   26  105 1    
    54   27   28 am   BACKBONE|DICT|INTERRES
    55   27  106 1    
    56   28   29 2    
    57   28   30 1    
    58   30   31 1    
    59   30   32 1    
    60   30  107 1    
    61   31  108 1    
    62   31  109 1    
    63   31  110 1    
    64   32   33 am   BACKBONE|DICT|INTERRES
    65   32  111 1    
    66   33   34 2    
    67   33   35 1    
    68   35   36 1    
    69   35   37 1    
    70   35  112 1    
    71   36  113 1    
    72   36  114 1    
    73   36  115 1    
    74   37   38 am   BACKBONE|DICT|INTERRES
    75   37  116 1    
    76   38   39 2    
    77   38   40 1    
    78   40   41 1    
    79   40   42 1    
    80   40  117 1    
    81   41  118 1    
    82   41  119 1    
    83   41  120 1    
    84   42   43 am   BACKBONE|DICT|INTERRES
    85   42  121 1    
    86   43   44 2    
    87   43   45 1    
    88   45   46 1    
    89   45   47 1    
    90   45  122 1    
    91   46  123 1    
    92   46  124 1    
    93   46  125 1    
    94   47   48 am   BACKBONE|DICT|INTERRES
    95   47  126 1    
    96   48   49 2    
    97   48   50 1    
    98   50   51 1    
    99   50   52 1    
   100   50  127 1    
   101   51  128 1    
   102   51  129 1    
   103   51  130 1    
   104   52   53 am   BACKBONE|DICT|INTERRES
   105   52  131 1    
   106   53   54 2    
   107   53   55 1    
   108   55   56 1    
   109   55   59 1    
   110   55  132 1    
   111   56   57 1    
   112   56  133 1    
   113   56  134 1    
   114   57   58 1    
   115   58  135 1    
   116   58  136 1    
   117   59   60 am   BACKBONE|DICT|INTERRES
   118   59  137 1    
   119   60   61 2    
   120   60   62 1    
   121   62   63 1    
   122   62   64 1    
   123   62  138 1    
   124   63  139 1    
   125   63  140 1    
   126   63  141 1    
   127   64   65 am   BACKBONE|DICT|INTERRES
   128   64  142 1    
   129   65   66 2    
   130   65   67 1    
   131   67   68 1    
   132   67   69 1    
   133   67  143 1    
   134   68  144 1    
   135   68  145 1    
   136   68  146 1    
   137   69   70 am   BACKBONE|DICT|INTERRES
   138   69  147 1    
   139   70   71 2    
   140   70   72 1    
   141   72   73 1    
   142   72   74 1    
   143   72  148 1    
   144   73  149 1    
   145   73  150 1    
   146   73  151 1    
   147   74   75 am   BACKBONE|DICT|INTERRES
   148   74  152 1    
   149   75   76 2    
   150   75   77 1    
   151   77   78 1    
   152   77   79 1    
   153   77  153 1    
   154   78  154 1    
   155   78  155 1    
   156   78  156 1    
   157   79   80 am   BACKBONE|DICT|INTERRES
   158   79  157 1    
   159   80   81 2    
@<TRIPOS>SUBSTRUCTURE
     1 UNK         1 GROUP             0       ****    0 ROOT    
