@<TRIPOS>MOLECULE
3R207
157   159    1
SMALL
USER_CHARGES


@<TRIPOS>ATOM
      1 CA        -46.1948  -25.8666   10.4451 C.3       0 UNK        -0.1975 
      2 C         -46.2393  -26.4640    9.0478 C.2       0 UNK         0.4852 
      3 O         -45.9432  -25.7645    8.0778 O.2       0 UNK        -0.5216 
      4 N         -46.5812  -27.7575    8.9413 N.am      1 UNK        -0.4461 
      5 CA        -46.7960  -28.5121    7.6937 C.3       1 UNK         0.0864 
      6 C6        -48.1078  -28.1042    6.9685 C.3       14 UNK        -0.0898 
      7 S7        -49.5856  -28.3182    8.0119 S.3       14 UNK        -0.2598 
      8 C8        -50.8853  -28.5242    6.7531 C.3       14 UNK         0.0286 
      9 C9        -52.2007  -27.9253    7.2276 C.ar      14 UNK        -0.0844 
     10 C10       -52.7070  -26.7683    6.6277 C.ar      14 UNK        -0.0881 
     11 C11       -53.8952  -26.1910    7.0868 C.ar      14 UNK        -0.0643 
     12 C12       -54.5746  -26.7782    8.1587 C.ar      14 UNK        -0.0930 
     13 C13       -54.0865  -27.9436    8.7585 C.ar      14 UNK        -0.0827 
     14 C14       -52.9073  -28.5204    8.2766 C.ar      14 UNK        -0.1249 
     15 C15       -54.8392  -28.5793    9.9200 C.3       14 UNK         0.0141 
     16 S16       -53.8056  -28.6978   11.4143 S.3       14 UNK        -0.2313 
     17 C17       -55.0641  -28.9880   12.7013 C.3       14 UNK        -0.0915 
     18 CA        -55.0386  -27.8862   13.8007 C.3       13 UNK         0.0968 
     19 C         -55.8358  -26.5925   13.4375 C.2       13 UNK         0.5732 
     20 N         -56.3402  -25.8428   14.4116 N.am      13 UNK        -0.7310 
     21 O         -55.9908  -26.2454   12.2699 O.2       13 UNK        -0.5035 
     22 N         -55.3264  -28.4410   15.1332 N.am      13 UNK        -0.4233 
     23 C         -56.5106  -28.9076   15.5556 C.2       13 UNK         0.4989 
     24 O         -57.5285  -28.9373   14.8636 O.2       13 UNK        -0.4996 
     25 CA        -56.5776  -29.4239   17.0007 C.3       12 UNK         0.0216 
     26 CB        -56.3060  -30.9368   17.0396 C.3       12 UNK        -0.1964 
     27 N         -55.6109  -28.7445   17.8642 N.am      12 UNK        -0.4276 
     28 C         -55.8552  -27.6510   18.5991 C.2       12 UNK         0.5020 
     29 O         -56.9543  -27.0958   18.6337 O.2       12 UNK        -0.5489 
     30 CA        -54.6873  -27.0459   19.4122 C.3       11 UNK         0.0294 
     31 CB        -55.0868  -26.7626   20.8755 C.3       11 UNK        -0.2019 
     32 N         -53.4317  -27.8078   19.3356 N.am      11 UNK        -0.4493 
     33 C         -53.1843  -29.0462   19.7954 C.2       11 UNK         0.4932 
     34 O         -53.9710  -29.6824   20.4970 O.2       11 UNK        -0.5029 
     35 CA        -51.8618  -29.7107   19.3478 C.3       10 UNK         0.0280 
     36 CB        -51.9931  -31.2451   19.2402 C.3       10 UNK        -0.1976 
     37 N         -51.3021  -29.1667   18.1002 N.am      10 UNK        -0.4242 
     38 C         -51.9077  -29.0809   16.9059 C.2       10 UNK         0.5072 
     39 O         -53.0619  -29.4531   16.6797 O.2       10 UNK        -0.5224 
     40 CA        -51.1188  -28.3733   15.7938 C.3       9 UNK         0.0343 
     41 CB        -51.0128  -29.2678   14.5478 C.3       9 UNK        -0.2003 
     42 N         -51.7305  -27.0989   15.4092 N.am      9 UNK        -0.4272 
     43 C         -52.0904  -26.0931   16.2186 C.2       9 UNK         0.4988 
     44 O         -51.9414  -26.1083   17.4425 O.2       9 UNK        -0.5108 
     45 CA        -52.7105  -24.8596   15.5316 C.3       8 UNK         0.0248 
     46 CB        -53.1563  -23.7829   16.5386 C.3       8 UNK        -0.2001 
     47 N         -51.7996  -24.2552   14.5540 N.am      8 UNK        -0.4140 
     48 C         -51.5397  -24.7439   13.3343 C.2       8 UNK         0.5028 
     49 O         -52.0393  -25.7834   12.8971 O.2       8 UNK        -0.5428 
     50 CA        -50.5006  -23.9802   12.4979 C.3       7 UNK         0.0264 
     51 CB        -49.0861  -24.5085   12.7874 C.3       7 UNK        -0.1988 
     52 N         -50.7621  -24.0928   11.0629 N.am      7 UNK        -0.4454 
     53 C         -51.7859  -23.5200   10.4184 C.2       7 UNK         0.5027 
     54 O         -52.6022  -22.7771   10.9686 O.2       7 UNK        -0.5083 
     55 CA        -51.8730  -23.7781    8.8972 C.3       6 UNK         0.0844 
     56 C56       -53.1900  -23.2296    8.2847 C.3       14 UNK        -0.0967 
     57 S57       -53.3111  -23.5287    6.4874 S.3       14 UNK        -0.2604 
     58 C58       -54.4558  -24.9435    6.4153 C.3       14 UNK         0.0134 
     59 N         -50.6905  -23.2403    8.2139 N.am      6 UNK        -0.4116 
     60 C         -49.4904  -23.8290    8.1606 C.2       5 UNK         0.5034 
     61 O         -49.2218  -24.8884    8.7296 O.2       5 UNK        -0.5045 
     62 CA        -48.3926  -23.0826    7.3940 C.3       5 UNK         0.0224 
     63 CB        -47.3882  -22.4485    8.3705 C.3       5 UNK        -0.1978 
     64 N         -47.6793  -24.0077    6.5166 N.am      5 UNK        -0.4737 
     65 C         -47.9500  -24.1866    5.2168 C.2       4 UNK         0.5027 
     66 O         -48.8526  -23.5899    4.6271 O.2       4 UNK        -0.5211 
     67 CA        -47.0649  -25.1885    4.4422 C.3       4 UNK         0.0297 
     68 CB        -47.0305  -24.9106    2.9241 C.3       4 UNK        -0.1993 
     69 N         -45.7062  -25.3036    4.9876 N.am      4 UNK        -0.4486 
     70 C         -44.7789  -24.3356    5.0867 C.2       3 UNK         0.4961 
     71 O         -44.9134  -23.2080    4.6098 O.2       3 UNK        -0.5105 
     72 CA        -43.4921  -24.6552    5.8728 C.3       3 UNK         0.0299 
     73 CB        -43.3005  -23.6514    7.0242 C.3       3 UNK        -0.1972 
     74 N         -43.5132  -26.0057    6.4384 N.am      3 UNK        -0.4305 
     75 C         -42.8447  -27.0609    5.9523 C.2       2 UNK         0.5006 
     76 O         -42.0715  -26.9998    4.9956 O.2       2 UNK        -0.5106 
     77 CA        -43.0775  -28.4253    6.6341 C.3       2 UNK         0.0296 
     78 CB        -41.9382  -28.7302    7.6206 C.3       2 UNK        -0.2002 
     79 N         -44.3622  -28.5441    7.3337 N.am      2 UNK        -0.4032 
     80 C         -45.5689  -28.4679    6.7519 C.2       1 UNK         0.5000 
     81 O         -45.7216  -28.3068    5.5392 O.2       1 UNK        -0.5238 
     82 H82       -45.2333  -25.3845   10.6182 H         1 UNK         0.0889 
     83 H83       -46.3434  -26.6206   11.2175 H         1 UNK         0.0889 
     84 H84       -46.9775  -25.1165   10.5472 H         1 UNK         0.0889 
     85 H85       -46.8037  -28.2678    9.7845 H         1 UNK         0.3028 
     86 H86       -46.8964  -29.5589    7.9845 H         1 UNK         0.0864 
     87 H87       -48.0670  -27.0587    6.6625 H         1 UNK         0.0720 
     88 H88       -48.2419  -28.6954    6.0606 H         1 UNK         0.0720 
     89 H89       -51.0161  -29.5853    6.5366 H         1 UNK         0.0814 
     90 H90       -50.5738  -28.0530    5.8195 H         1 UNK         0.0814 
     91 H91       -52.1721  -26.3042    5.8101 H         1 UNK         0.1469 
     92 H92       -55.4896  -26.3311    8.5229 H         1 UNK         0.1381 
     93 H93       -52.5202  -29.4172    8.7412 H         1 UNK         0.1206 
     94 H94       -55.7359  -28.0019   10.1499 H         1 UNK         0.0813 
     95 H95       -55.1751  -29.5767    9.6337 H         1 UNK         0.0813 
     96 H96       -56.0596  -29.0904   12.2661 H         1 UNK         0.0638 
     97 H97       -54.8319  -29.9614   13.1363 H         1 UNK         0.0638 
     98 H98       -54.0093  -27.5420   13.8873 H         1 UNK         0.0568 
     99 H99       -56.8524  -25.0096   14.1703 H         1 UNK         0.3450 
    100 H100      -56.2559  -26.1228   15.3746 H         1 UNK         0.3450 
    101 H101      -54.5269  -28.5473   15.7488 H         1 UNK         0.2987 
    102 H102      -57.5891  -29.2490   17.3737 H         1 UNK         0.0766 
    103 H103      -57.0241  -31.4786   16.4225 H         1 UNK         0.0798 
    104 H104      -56.3901  -31.3274   18.0539 H         1 UNK         0.0798 
    105 H105      -55.3085  -31.1793   16.6699 H         1 UNK         0.0798 
    106 H106      -54.6629  -29.1071   17.8413 H         1 UNK         0.3198 
    107 H107      -54.4713  -26.0848   18.9432 H         1 UNK         0.0843 
    108 H108      -54.2619  -26.3211   21.4344 H         1 UNK         0.0831 
    109 H109      -55.4005  -27.6677   21.3958 H         1 UNK         0.0831 
    110 H110      -55.9203  -26.0608   20.9227 H         1 UNK         0.0831 
    111 H111      -52.7156  -27.3679   18.7617 H         1 UNK         0.3133 
    112 H112      -51.1345  -29.4923   20.1308 H         1 UNK         0.0566 
    113 H113      -51.0513  -31.7044   18.9400 H         1 UNK         0.0814 
    114 H114      -52.7536  -31.5348   18.5140 H         1 UNK         0.0814 
    115 H115      -52.2732  -31.6856   20.1979 H         1 UNK         0.0814 
    116 H116      -50.3731  -28.7760   18.1826 H         1 UNK         0.3091 
    117 H117      -50.1094  -28.1596   16.1502 H         1 UNK         0.0702 
    118 H118      -50.4052  -28.7999   13.7728 H         1 UNK         0.0785 
    119 H119      -51.9934  -29.4800   14.1186 H         1 UNK         0.0785 
    120 H120      -50.5491  -30.2248   14.7909 H         1 UNK         0.0785 
    121 H121      -51.8655  -26.9451   14.4126 H         1 UNK         0.2998 
    122 H122      -53.6023  -25.2014   15.0045 H         1 UNK         0.0697 
    123 H123      -52.3145  -23.3879   17.1089 H         1 UNK         0.0825 
    124 H124      -53.8728  -24.1888   17.2538 H         1 UNK         0.0825 
    125 H125      -53.6440  -22.9473   16.0362 H         1 UNK         0.0825 
    126 H126      -51.3112  -23.4242   14.8561 H         1 UNK         0.3029 
    127 H127      -50.5434  -22.9227   12.7681 H         1 UNK         0.0897 
    128 H128      -48.9792  -25.5542   12.4950 H         1 UNK         0.0792 
    129 H129      -48.8497  -24.4414   13.8503 H         1 UNK         0.0792 
    130 H130      -48.3320  -23.9302   12.2534 H         1 UNK         0.0792 
    131 H131      -50.1352  -24.6761   10.5172 H         1 UNK         0.3086 
    132 H132      -51.8794  -24.8627    8.7668 H         1 UNK         0.0583 
    133 H133      -54.0545  -23.6724    8.7834 H         1 UNK         0.1020 
    134 H134      -53.2699  -22.1531    8.4483 H         1 UNK         0.1020 
    135 H135      -55.4087  -24.6521    6.8601 H         1 UNK         0.0694 
    136 H136      -54.6642  -25.1717    5.3692 H         1 UNK         0.0694 
    137 H137      -50.8254  -22.3597    7.7397 H         1 UNK         0.2989 
    138 H138      -48.8438  -22.2826    6.8026 H         1 UNK         0.1055 
    139 H139      -46.6179  -21.8913    7.8368 H         1 UNK         0.0806 
    140 H140      -46.8892  -23.2000    8.9828 H         1 UNK         0.0806 
    141 H141      -47.8848  -21.7518    9.0471 H         1 UNK         0.0806 
    142 H142      -46.9818  -24.5987    6.9642 H         1 UNK         0.3061 
    143 H143      -47.5266  -26.1668    4.5770 H         1 UNK         0.0734 
    144 H144      -46.6522  -23.9124    2.7024 H         1 UNK         0.0832 
    145 H145      -46.4022  -25.6324    2.4026 H         1 UNK         0.0832 
    146 H146      -48.0292  -24.9809    2.4916 H         1 UNK         0.0832 
    147 H147      -45.4886  -26.2082    5.3901 H         1 UNK         0.3156 
    148 H148      -42.6542  -24.5443    5.1819 H         1 UNK         0.0589 
    149 H149      -42.3880  -23.8586    7.5834 H         1 UNK         0.0808 
    150 H150      -43.2225  -22.6307    6.6474 H         1 UNK         0.0808 
    151 H151      -44.1367  -23.6765    7.7244 H         1 UNK         0.0808 
    152 H152      -44.1660  -26.1417    7.2044 H         1 UNK         0.3098 
    153 H153      -43.0611  -29.1837    5.8486 H         1 UNK         0.0720 
    154 H154      -40.9679  -28.6811    7.1241 H         1 UNK         0.0791 
    155 H155      -42.0330  -29.7315    8.0411 H         1 UNK         0.0791 
    156 H156      -41.9176  -28.0177    8.4464 H         1 UNK         0.0791 
    157 H157      -44.3247  -28.6551    8.3370 H         1 UNK         0.3028 
@<TRIPOS>BOND
     1    1    2 1    
     2    1   82 1    
     3    1   83 1    
     4    1   84 1    
     5    2    3 2    
     6    2    4 am   BACKBONE|DICT|INTERRES
     7    4    5 1    
     8    4   85 1    
     9    5    6 1    
    10    5   80 1    
    11    5   86 1    
    12    6    7 1    
    13    6   87 1    
    14    6   88 1    
    15    7    8 1    
    16    8    9 1    
    17    8   89 1    
    18    8   90 1    
    19    9   10 ar   
    20    9   14 ar   
    21   10   11 ar   
    22   10   91 1    
    23   11   12 ar   
    24   11   58 1    
    25   12   13 ar   
    26   12   92 1    
    27   13   14 ar   
    28   13   15 1    
    29   14   93 1    
    30   15   16 1    
    31   15   94 1    
    32   15   95 1    
    33   16   17 1    
    34   17   18 1    
    35   17   96 1    
    36   17   97 1    
    37   18   19 1    
    38   18   22 1    
    39   18   98 1    
    40   19   20 am   BACKBONE|DICT|INTERRES
    41   19   21 2    
    42   20   99 1    
    43   20  100 1    
    44   22   23 am   BACKBONE|DICT|INTERRES
    45   22  101 1    
    46   23   24 2    
    47   23   25 1    
    48   25   26 1    
    49   25   27 1    
    50   25  102 1    
    51   26  103 1    
    52   26  104 1    
    53   26  105 1    
    54   27   28 am   BACKBONE|DICT|INTERRES
    55   27  106 1    
    56   28   29 2    
    57   28   30 1    
    58   30   31 1    
    59   30   32 1    
    60   30  107 1    
    61   31  108 1    
    62   31  109 1    
    63   31  110 1    
    64   32   33 am   BACKBONE|DICT|INTERRES
    65   32  111 1    
    66   33   34 2    
    67   33   35 1    
    68   35   36 1    
    69   35   37 1    
    70   35  112 1    
    71   36  113 1    
    72   36  114 1    
    73   36  115 1    
    74   37   38 am   BACKBONE|DICT|INTERRES
    75   37  116 1    
    76   38   39 2    
    77   38   40 1    
    78   40   41 1    
    79   40   42 1    
    80   40  117 1    
    81   41  118 1    
    82   41  119 1    
    83   41  120 1    
    84   42   43 am   BACKBONE|DICT|INTERRES
    85   42  121 1    
    86   43   44 2    
    87   43   45 1    
    88   45   46 1    
    89   45   47 1    
    90   45  122 1    
    91   46  123 1    
    92   46  124 1    
    93   46  125 1    
    94   47   48 am   BACKBONE|DICT|INTERRES
    95   47  126 1    
    96   48   49 2    
    97   48   50 1    
    98   50   51 1    
    99   50   52 1    
   100   50  127 1    
   101   51  128 1    
   102   51  129 1    
   103   51  130 1    
   104   52   53 am   BACKBONE|DICT|INTERRES
   105   52  131 1    
   106   53   54 2    
   107   53   55 1    
   108   55   56 1    
   109   55   59 1    
   110   55  132 1    
   111   56   57 1    
   112   56  133 1    
   113   56  134 1    
   114   57   58 1    
   115   58  135 1    
   116   58  136 1    
   117   59   60 am   BACKBONE|DICT|INTERRES
   118   59  137 1    
   119   60   61 2    
   120   60   62 1    
   121   62   63 1    
   122   62   64 1    
   123   62  138 1    
   124   63  139 1    
   125   63  140 1    
   126   63  141 1    
   127   64   65 am   BACKBONE|DICT|INTERRES
   128   64  142 1    
   129   65   66 2    
   130   65   67 1    
   131   67   68 1    
   132   67   69 1    
   133   67  143 1    
   134   68  144 1    
   135   68  145 1    
   136   68  146 1    
   137   69   70 am   BACKBONE|DICT|INTERRES
   138   69  147 1    
   139   70   71 2    
   140   70   72 1    
   141   72   73 1    
   142   72   74 1    
   143   72  148 1    
   144   73  149 1    
   145   73  150 1    
   146   73  151 1    
   147   74   75 am   BACKBONE|DICT|INTERRES
   148   74  152 1    
   149   75   76 2    
   150   75   77 1    
   151   77   78 1    
   152   77   79 1    
   153   77  153 1    
   154   78  154 1    
   155   78  155 1    
   156   78  156 1    
   157   79   80 am   BACKBONE|DICT|INTERRES
   158   79  157 1    
   159   80   81 2    
@<TRIPOS>SUBSTRUCTURE
     1 UNK         1 GROUP             0       ****    0 ROOT    
