@<TRIPOS>MOLECULE
3R207
157   159    1
SMALL
USER_CHARGES


@<TRIPOS>ATOM
      1 CA        -51.2003  -30.2258    2.0214 C.3       0 UNK        -0.1975 
      2 C         -50.3031  -29.8589    3.1946 C.2       0 UNK         0.4852 
      3 O         -49.0881  -30.0437    3.1115 O.2       0 UNK        -0.5216 
      4 N         -50.8971  -29.3459    4.2815 N.am      1 UNK        -0.4461 
      5 CA        -50.2269  -28.8865    5.5034 C.3       1 UNK         0.0864 
      6 C6        -49.5508  -30.0507    6.2883 C.3       14 UNK        -0.0898 
      7 S7        -49.0960  -29.6357    8.0087 S.3       14 UNK        -0.2598 
      8 C8        -50.4830  -30.3098    8.9813 C.3       14 UNK         0.0286 
      9 C9        -51.7994  -29.5461    8.8429 C.ar      14 UNK        -0.0844 
     10 C10       -51.8391  -28.1573    8.6550 C.ar      14 UNK        -0.0881 
     11 C11       -53.0620  -27.4862    8.5474 C.ar      14 UNK        -0.0643 
     12 C12       -54.2518  -28.2068    8.6748 C.ar      14 UNK        -0.0930 
     13 C13       -54.2284  -29.5869    8.8874 C.ar      14 UNK        -0.0827 
     14 C14       -53.0017  -30.2516    8.9549 C.ar      14 UNK        -0.1249 
     15 C15       -55.5339  -30.3516    9.0362 C.3       14 UNK         0.0141 
     16 S16       -56.2402  -30.1585   10.7034 S.3       14 UNK        -0.2313 
     17 C17       -55.2663  -31.3564   11.6836 C.3       14 UNK        -0.0915 
     18 CA        -54.4985  -30.7556   12.8930 C.3       13 UNK         0.0968 
     19 C         -53.1930  -30.0193   12.4828 C.2       13 UNK         0.5732 
     20 N         -52.1062  -30.7542   12.2884 N.am      13 UNK        -0.7310 
     21 O         -53.1541  -28.7983   12.3455 O.2       13 UNK        -0.5035 
     22 N         -55.3542  -29.8998   13.7211 N.am      13 UNK        -0.4233 
     23 C         -55.1129  -29.6174   15.0047 C.2       13 UNK         0.4989 
     24 O         -54.3026  -30.2276   15.7050 O.2       13 UNK        -0.4996 
     25 CA        -55.8609  -28.4002   15.5652 C.3       12 UNK         0.0216 
     26 CB        -55.8361  -28.3342   17.1035 C.3       12 UNK        -0.1964 
     27 N         -55.2398  -27.1949   15.0153 N.am      12 UNK        -0.4276 
     28 C         -55.5860  -26.6215   13.8527 C.2       12 UNK         0.5020 
     29 O         -56.5358  -27.0199   13.1752 O.2       12 UNK        -0.5489 
     30 CA        -54.7358  -25.4438   13.3249 C.3       11 UNK         0.0294 
     31 CB        -55.6053  -24.3123   12.7393 C.3       11 UNK        -0.2019 
     32 N         -53.7543  -24.9080   14.2752 N.am      11 UNK        -0.4493 
     33 C         -53.9735  -24.3378   15.4696 C.2       11 UNK         0.4932 
     34 O         -55.0938  -24.0973   15.9217 O.2       11 UNK        -0.5029 
     35 CA        -52.7176  -24.0317   16.3151 C.3       10 UNK         0.0280 
     36 CB        -53.0347  -23.8617   17.8155 C.3       10 UNK        -0.1976 
     37 N         -51.6400  -25.0149   16.1275 N.am      10 UNK        -0.4242 
     38 C         -51.7158  -26.3462   16.2931 C.2       10 UNK         0.5072 
     39 O         -52.7299  -26.9172   16.6942 O.2       10 UNK        -0.5224 
     40 CA        -50.4945  -27.2042   15.9050 C.3       9 UNK         0.0343 
     41 CB        -50.8626  -28.1722   14.7688 C.3       9 UNK        -0.2003 
     42 N         -49.3312  -26.4199   15.4871 N.am      9 UNK        -0.4272 
     43 C         -48.4676  -25.8254   16.3203 C.2       9 UNK         0.4988 
     44 O         -48.5129  -25.9315   17.5462 O.2       9 UNK        -0.5108 
     45 CA        -47.3952  -24.9264   15.6786 C.3       8 UNK         0.0248 
     46 CB        -46.1784  -25.7597   15.2464 C.3       8 UNK        -0.2001 
     47 N         -47.8960  -24.1472   14.5393 N.am      8 UNK        -0.4140 
     48 C         -48.8862  -23.2444   14.6139 C.2       8 UNK         0.5028 
     49 O         -49.4662  -22.9513   15.6593 O.2       8 UNK        -0.5428 
     50 CA        -49.3493  -22.5921   13.3026 C.3       7 UNK         0.0264 
     51 CB        -48.3819  -21.4781   12.8725 C.3       7 UNK        -0.1988 
     52 N         -49.5175  -23.5543   12.2126 N.am      7 UNK        -0.4454 
     53 C         -50.3963  -24.5693   12.2101 C.2       7 UNK         0.5027 
     54 O         -51.1819  -24.7984   13.1295 O.2       7 UNK        -0.5083 
     55 CA        -50.3563  -25.5138   10.9911 C.3       6 UNK         0.0844 
     56 C56       -51.0041  -24.8527    9.7490 C.3       14 UNK        -0.0967 
     57 S57       -52.8223  -24.9859    9.7481 S.3       14 UNK        -0.2604 
     58 C58       -53.1136  -25.9922    8.2595 C.3       14 UNK         0.0134 
     59 N         -48.9939  -25.9729   10.7101 N.am      6 UNK        -0.4116 
     60 C         -48.1957  -26.6204   11.5715 C.2       5 UNK         0.5034 
     61 O         -48.5401  -26.9887   12.6941 O.2       5 UNK        -0.5045 
     62 CA        -46.7399  -26.8305   11.1281 C.3       5 UNK         0.0224 
     63 CB        -46.6053  -28.0584   10.2165 C.3       5 UNK        -0.1978 
     64 N         -46.1982  -25.6503   10.4507 N.am      5 UNK        -0.4737 
     65 C         -45.9436  -24.4837   11.0590 C.2       4 UNK         0.5027 
     66 O         -46.0960  -24.2927   12.2648 O.2       4 UNK        -0.5211 
     67 CA        -45.4825  -23.3251   10.1601 C.3       4 UNK         0.0297 
     68 CB        -43.9788  -23.4340    9.8628 C.3       4 UNK        -0.1993 
     69 N         -46.2326  -23.2536    8.9028 N.am      4 UNK        -0.4486 
     70 C         -47.5411  -22.9739    8.8205 C.2       3 UNK         0.4961 
     71 O         -48.2516  -22.7262    9.7937 O.2       3 UNK        -0.5105 
     72 CA        -48.1769  -23.0182    7.4211 C.3       3 UNK         0.0299 
     73 CB        -47.9811  -21.6769    6.6972 C.3       3 UNK        -0.1972 
     74 N         -47.6859  -24.1135    6.5766 N.am      3 UNK        -0.4305 
     75 C         -47.7951  -25.4142    6.8778 C.2       2 UNK         0.5006 
     76 O         -48.2478  -25.8369    7.9443 O.2       2 UNK        -0.5106 
     77 CA        -47.2752  -26.4127    5.8340 C.3       2 UNK         0.0296 
     78 CB        -45.8406  -26.8451    6.1775 C.3       2 UNK        -0.2002 
     79 N         -48.1378  -27.5925    5.8041 N.am      2 UNK        -0.4032 
     80 C         -49.3423  -27.6455    5.2217 C.2       1 UNK         0.5000 
     81 O         -49.7866  -26.7433    4.5056 O.2       1 UNK        -0.5238 
     82 H82       -52.2504  -30.0225    2.2305 H         1 UNK         0.0889 
     83 H83       -51.1003  -31.2860    1.7902 H         1 UNK         0.0889 
     84 H84       -50.9140  -29.6556    1.1381 H         1 UNK         0.0889 
     85 H85       -51.8961  -29.1946    4.2634 H         1 UNK         0.3028 
     86 H86       -51.0387  -28.5103    6.1236 H         1 UNK         0.0864 
     87 H87       -50.2220  -30.9105    6.3155 H         1 UNK         0.0720 
     88 H88       -48.6556  -30.3973    5.7694 H         1 UNK         0.0720 
     89 H89       -50.1941  -30.2964   10.0323 H         1 UNK         0.0814 
     90 H90       -50.6184  -31.3591    8.7147 H         1 UNK         0.0814 
     91 H91       -50.9177  -27.5983    8.5792 H         1 UNK         0.1469 
     92 H92       -55.2016  -27.6936    8.6107 H         1 UNK         0.1381 
     93 H93       -52.9829  -31.3201    9.1201 H         1 UNK         0.1206 
     94 H94       -55.3976  -31.4099    8.8085 H         1 UNK         0.0813 
     95 H95       -56.2543  -29.9779    8.3071 H         1 UNK         0.0813 
     96 H96       -54.5836  -31.9055   11.0332 H         1 UNK         0.0638 
     97 H97       -55.9705  -32.1032   12.0526 H         1 UNK         0.0638 
     98 H98       -54.1932  -31.6012   13.5129 H         1 UNK         0.0568 
     99 H99       -51.2538  -30.2858   12.0319 H         1 UNK         0.3450 
    100 H100      -52.1188  -31.7546   12.4058 H         1 UNK         0.3450 
    101 H101      -55.9742  -29.2863   13.2070 H         1 UNK         0.2987 
    102 H102      -56.9056  -28.4636   15.2527 H         1 UNK         0.0766 
    103 H103      -56.3685  -27.4564   17.4699 H         1 UNK         0.0798 
    104 H104      -54.8200  -28.2950   17.4967 H         1 UNK         0.0798 
    105 H105      -56.3176  -29.2117   17.5366 H         1 UNK         0.0798 
    106 H106      -54.4118  -26.8631   15.5015 H         1 UNK         0.3198 
    107 H107      -54.1461  -25.8601   12.5060 H         1 UNK         0.0843 
    108 H108      -56.2649  -23.8775   13.4906 H         1 UNK         0.0831 
    109 H109      -56.2347  -24.6825   11.9291 H         1 UNK         0.0831 
    110 H110      -54.9889  -23.5139   12.3264 H         1 UNK         0.0831 
    111 H111      -52.7819  -25.0074   13.9813 H         1 UNK         0.3133 
    112 H112      -52.3281  -23.0816   15.9471 H         1 UNK         0.0566 
    113 H113      -52.1355  -23.6290   18.3858 H         1 UNK         0.0814 
    114 H114      -53.7399  -23.0456   17.9775 H         1 UNK         0.0814 
    115 H115      -53.4774  -24.7638   18.2392 H         1 UNK         0.0814 
    116 H116      -50.7692  -24.6282   15.7808 H         1 UNK         0.3091 
    117 H117      -50.2244  -27.7968   16.7813 H         1 UNK         0.0702 
    118 H118      -51.7023  -28.8102   15.0484 H         1 UNK         0.0785 
    119 H119      -50.0285  -28.8270   14.5168 H         1 UNK         0.0785 
    120 H120      -51.1491  -27.6346   13.8636 H         1 UNK         0.0785 
    121 H121      -49.1836  -26.3321   14.4855 H         1 UNK         0.2998 
    122 H122      -47.0658  -24.2151   16.4388 H         1 UNK         0.0697 
    123 H123      -46.4374  -26.4765   14.4669 H         1 UNK         0.0825 
    124 H124      -45.7724  -26.3238   16.0871 H         1 UNK         0.0825 
    125 H125      -45.3781  -25.1253   14.8650 H         1 UNK         0.0825 
    126 H126      -47.4306  -24.2930   13.6461 H         1 UNK         0.3029 
    127 H127      -50.3253  -22.1390   13.4896 H         1 UNK         0.0897 
    128 H128      -48.7535  -20.9489   11.9948 H         1 UNK         0.0792 
    129 H129      -48.2562  -20.7410   13.6668 H         1 UNK         0.0792 
    130 H130      -47.3938  -21.8707   12.6306 H         1 UNK         0.0792 
    131 H131      -48.9387  -23.4063   11.3877 H         1 UNK         0.3086 
    132 H132      -50.9268  -26.4098   11.2475 H         1 UNK         0.0583 
    133 H133      -50.7320  -23.7993    9.6609 H         1 UNK         0.1020 
    134 H134      -50.6230  -25.3131    8.8386 H         1 UNK         0.1020 
    135 H135      -54.0937  -25.7262    7.8606 H         1 UNK         0.0694 
    136 H136      -52.4002  -25.7351    7.4751 H         1 UNK         0.0694 
    137 H137      -48.6264  -25.7628    9.7854 H         1 UNK         0.2989 
    138 H138      -46.1468  -27.0092   12.0277 H         1 UNK         0.1055 
    139 H139      -47.0414  -28.9434   10.6822 H         1 UNK         0.0806 
    140 H140      -45.5597  -28.2837   10.0068 H         1 UNK         0.0806 
    141 H141      -47.1117  -27.9075    9.2641 H         1 UNK         0.0806 
    142 H142      -46.0942  -25.7047    9.4482 H         1 UNK         0.3061 
    143 H143      -45.6550  -22.3951   10.7065 H         1 UNK         0.0734 
    144 H144      -43.6222  -22.5723    9.2983 H         1 UNK         0.0832 
    145 H145      -43.4020  -23.4734   10.7881 H         1 UNK         0.0832 
    146 H146      -43.7400  -24.3326    9.2925 H         1 UNK         0.0832 
    147 H147      -45.7269  -23.4437    8.0500 H         1 UNK         0.3156 
    148 H148      -49.2493  -23.1725    7.5579 H         1 UNK         0.0589 
    149 H149      -46.9291  -21.4766    6.4899 H         1 UNK         0.0808 
    150 H150      -48.5211  -21.6535    5.7505 H         1 UNK         0.0808 
    151 H151      -48.3570  -20.8497    7.3015 H         1 UNK         0.0808 
    152 H152      -47.2885  -23.8535    5.6848 H         1 UNK         0.3098 
    153 H153      -47.2779  -25.9440    4.8476 H         1 UNK         0.0720 
    154 H154      -45.4539  -27.5500    5.4411 H         1 UNK         0.0791 
    155 H155      -45.7833  -27.3215    7.1571 H         1 UNK         0.0791 
    156 H156      -45.1649  -25.9890    6.1901 H         1 UNK         0.0791 
    157 H157      -47.9001  -28.3413    6.4412 H         1 UNK         0.3028 
@<TRIPOS>BOND
     1    1    2 1    
     2    1   82 1    
     3    1   83 1    
     4    1   84 1    
     5    2    3 2    
     6    2    4 am   BACKBONE|DICT|INTERRES
     7    4    5 1    
     8    4   85 1    
     9    5    6 1    
    10    5   80 1    
    11    5   86 1    
    12    6    7 1    
    13    6   87 1    
    14    6   88 1    
    15    7    8 1    
    16    8    9 1    
    17    8   89 1    
    18    8   90 1    
    19    9   10 ar   
    20    9   14 ar   
    21   10   11 ar   
    22   10   91 1    
    23   11   12 ar   
    24   11   58 1    
    25   12   13 ar   
    26   12   92 1    
    27   13   14 ar   
    28   13   15 1    
    29   14   93 1    
    30   15   16 1    
    31   15   94 1    
    32   15   95 1    
    33   16   17 1    
    34   17   18 1    
    35   17   96 1    
    36   17   97 1    
    37   18   19 1    
    38   18   22 1    
    39   18   98 1    
    40   19   20 am   BACKBONE|DICT|INTERRES
    41   19   21 2    
    42   20   99 1    
    43   20  100 1    
    44   22   23 am   BACKBONE|DICT|INTERRES
    45   22  101 1    
    46   23   24 2    
    47   23   25 1    
    48   25   26 1    
    49   25   27 1    
    50   25  102 1    
    51   26  103 1    
    52   26  104 1    
    53   26  105 1    
    54   27   28 am   BACKBONE|DICT|INTERRES
    55   27  106 1    
    56   28   29 2    
    57   28   30 1    
    58   30   31 1    
    59   30   32 1    
    60   30  107 1    
    61   31  108 1    
    62   31  109 1    
    63   31  110 1    
    64   32   33 am   BACKBONE|DICT|INTERRES
    65   32  111 1    
    66   33   34 2    
    67   33   35 1    
    68   35   36 1    
    69   35   37 1    
    70   35  112 1    
    71   36  113 1    
    72   36  114 1    
    73   36  115 1    
    74   37   38 am   BACKBONE|DICT|INTERRES
    75   37  116 1    
    76   38   39 2    
    77   38   40 1    
    78   40   41 1    
    79   40   42 1    
    80   40  117 1    
    81   41  118 1    
    82   41  119 1    
    83   41  120 1    
    84   42   43 am   BACKBONE|DICT|INTERRES
    85   42  121 1    
    86   43   44 2    
    87   43   45 1    
    88   45   46 1    
    89   45   47 1    
    90   45  122 1    
    91   46  123 1    
    92   46  124 1    
    93   46  125 1    
    94   47   48 am   BACKBONE|DICT|INTERRES
    95   47  126 1    
    96   48   49 2    
    97   48   50 1    
    98   50   51 1    
    99   50   52 1    
   100   50  127 1    
   101   51  128 1    
   102   51  129 1    
   103   51  130 1    
   104   52   53 am   BACKBONE|DICT|INTERRES
   105   52  131 1    
   106   53   54 2    
   107   53   55 1    
   108   55   56 1    
   109   55   59 1    
   110   55  132 1    
   111   56   57 1    
   112   56  133 1    
   113   56  134 1    
   114   57   58 1    
   115   58  135 1    
   116   58  136 1    
   117   59   60 am   BACKBONE|DICT|INTERRES
   118   59  137 1    
   119   60   61 2    
   120   60   62 1    
   121   62   63 1    
   122   62   64 1    
   123   62  138 1    
   124   63  139 1    
   125   63  140 1    
   126   63  141 1    
   127   64   65 am   BACKBONE|DICT|INTERRES
   128   64  142 1    
   129   65   66 2    
   130   65   67 1    
   131   67   68 1    
   132   67   69 1    
   133   67  143 1    
   134   68  144 1    
   135   68  145 1    
   136   68  146 1    
   137   69   70 am   BACKBONE|DICT|INTERRES
   138   69  147 1    
   139   70   71 2    
   140   70   72 1    
   141   72   73 1    
   142   72   74 1    
   143   72  148 1    
   144   73  149 1    
   145   73  150 1    
   146   73  151 1    
   147   74   75 am   BACKBONE|DICT|INTERRES
   148   74  152 1    
   149   75   76 2    
   150   75   77 1    
   151   77   78 1    
   152   77   79 1    
   153   77  153 1    
   154   78  154 1    
   155   78  155 1    
   156   78  156 1    
   157   79   80 am   BACKBONE|DICT|INTERRES
   158   79  157 1    
   159   80   81 2    
@<TRIPOS>SUBSTRUCTURE
     1 UNK         1 GROUP             0       ****    0 ROOT    
