@<TRIPOS>MOLECULE
3R207
157   159    1
SMALL
USER_CHARGES


@<TRIPOS>ATOM
      1 CA        -47.1727  -30.5122    1.5832 C.3       0 UNK        -0.1975 
      2 C         -48.4845  -30.1404    2.2572 C.2       0 UNK         0.4852 
      3 O         -49.4532  -29.8053    1.5745 O.2       0 UNK        -0.5216 
      4 N         -48.5229  -30.1749    3.5953 N.am      1 UNK        -0.4461 
      5 CA        -49.6791  -29.8871    4.4579 C.3       1 UNK         0.0864 
      6 C6        -49.5488  -30.5958    5.8372 C.3       14 UNK        -0.0898 
      7 S7        -47.8928  -30.5001    6.6173 S.3       14 UNK        -0.2598 
      8 C8        -48.0493  -29.1340    7.8093 C.3       14 UNK         0.0286 
      9 C9        -49.0026  -29.4522    8.9527 C.ar      14 UNK        -0.0844 
     10 C10       -48.5605  -30.1652   10.0713 C.ar      14 UNK        -0.0881 
     11 C11       -49.4381  -30.4435   11.1247 C.ar      14 UNK        -0.0643 
     12 C12       -50.7663  -30.0124   11.0503 C.ar      14 UNK        -0.0930 
     13 C13       -51.2110  -29.2822    9.9485 C.ar      14 UNK        -0.0827 
     14 C14       -50.3268  -29.0108    8.9035 C.ar      14 UNK        -0.1249 
     15 C15       -52.6460  -28.7920    9.8758 C.3       14 UNK         0.0141 
     16 S16       -52.8121  -27.1322   10.6062 S.3       14 UNK        -0.2313 
     17 C17       -54.1241  -26.4475    9.5404 C.3       14 UNK        -0.0915 
     18 CA        -55.0887  -25.4746   10.2653 C.3       13 UNK         0.0968 
     19 C         -56.0787  -24.8657    9.2278 C.2       13 UNK         0.5732 
     20 N         -57.3232  -25.3229    9.1524 N.am      13 UNK        -0.7310 
     21 O         -55.7055  -23.9673    8.4774 O.2       13 UNK        -0.5035 
     22 N         -55.7092  -26.1021   11.4460 N.am      13 UNK        -0.4233 
     23 C         -56.5306  -25.4904   12.3108 C.2       13 UNK         0.4989 
     24 O         -56.8894  -24.3159   12.2173 O.2       13 UNK        -0.4996 
     25 CA        -57.0293  -26.3345   13.4971 C.3       12 UNK         0.0216 
     26 CB        -58.1515  -27.2888   13.0544 C.3       12 UNK        -0.1964 
     27 N         -55.9704  -27.0934   14.1736 N.am      12 UNK        -0.4276 
     28 C         -54.9166  -26.5395   14.7890 C.2       12 UNK         0.5020 
     29 O         -54.6894  -25.3267   14.7973 O.2       12 UNK        -0.5489 
     30 CA        -53.9544  -27.5047   15.5098 C.3       11 UNK         0.0294 
     31 CB        -53.0229  -28.1878   14.4957 C.3       11 UNK        -0.2019 
     32 N         -53.1627  -26.7906   16.5217 N.am      11 UNK        -0.4493 
     33 C         -53.6895  -26.3310   17.6682 C.2       11 UNK         0.4932 
     34 O         -54.7938  -26.6846   18.0880 O.2       11 UNK        -0.5029 
     35 CA        -52.9030  -25.2553   18.4430 C.3       10 UNK         0.0280 
     36 CB        -53.3189  -25.1458   19.9270 C.3       10 UNK        -0.1976 
     37 N         -51.4475  -25.3347   18.2968 N.am      10 UNK        -0.4242 
     38 C         -50.6189  -26.2655   18.7965 C.2       10 UNK         0.5072 
     39 O         -50.9991  -27.2438   19.4417 O.2       10 UNK        -0.5224 
     40 CA        -49.1073  -26.0683   18.5508 C.3       9 UNK         0.0343 
     41 CB        -48.4086  -27.3967   18.2044 C.3       9 UNK        -0.2003 
     42 N         -48.8563  -25.1080   17.4741 N.am      9 UNK        -0.4272 
     43 C         -48.4883  -23.8277   17.6257 C.2       9 UNK         0.4988 
     44 O         -48.2278  -23.3162   18.7147 O.2       9 UNK        -0.5108 
     45 CA        -48.4162  -22.9563   16.3534 C.3       8 UNK         0.0248 
     46 CB        -46.9573  -22.7990   15.8952 C.3       8 UNK        -0.2001 
     47 N         -49.2126  -23.4722   15.2348 N.am      8 UNK        -0.4140 
     48 C         -50.5510  -23.5720   15.2185 C.2       8 UNK         0.5028 
     49 O         -51.2757  -23.1523   16.1205 O.2       8 UNK        -0.5428 
     50 CA        -51.1713  -24.3677   14.0529 C.3       7 UNK         0.0264 
     51 CB        -51.5616  -23.4367   12.8961 C.3       7 UNK        -0.1988 
     52 N         -50.2914  -25.4444   13.5710 N.am      7 UNK        -0.4454 
     53 C         -49.9055  -26.4750   14.3443 C.2       7 UNK         0.5027 
     54 O         -50.3454  -26.6332   15.4832 O.2       7 UNK        -0.5083 
     55 CA        -48.8439  -27.4706   13.8322 C.3       6 UNK         0.0844 
     56 C56       -49.3078  -28.9363   14.0144 C.3       14 UNK        -0.0967 
     57 S57       -48.0357  -30.1442   13.5010 S.3       14 UNK        -0.2604 
     58 C58       -48.9548  -31.2101   12.3457 C.3       14 UNK         0.0134 
     59 N         -48.3723  -27.1643   12.4784 N.am      6 UNK        -0.4116 
     60 C         -47.4367  -26.2427   12.2145 C.2       5 UNK         0.5034 
     61 O         -46.9115  -25.5342   13.0750 O.2       5 UNK        -0.5045 
     62 CA        -47.0348  -26.0528   10.7433 C.3       5 UNK         0.0224 
     63 CB        -45.9529  -27.0711   10.3495 C.3       5 UNK        -0.1978 
     64 N         -48.1369  -26.1110    9.7756 N.am      5 UNK        -0.4737 
     65 C         -49.2521  -25.3665    9.8096 C.2       4 UNK         0.5027 
     66 O         -49.5762  -24.6771   10.7761 O.2       4 UNK        -0.5211 
     67 CA        -50.1238  -25.3723    8.5344 C.3       4 UNK         0.0297 
     68 CB        -51.1104  -24.1866    8.4865 C.3       4 UNK        -0.1993 
     69 N         -49.3400  -25.4458    7.2889 N.am      4 UNK        -0.4486 
     70 C         -48.3876  -24.5833    6.8867 C.2       3 UNK         0.4961 
     71 O         -48.0406  -23.5903    7.5267 O.2       3 UNK        -0.5105 
     72 CA        -47.6769  -24.8740    5.5498 C.3       3 UNK         0.0299 
     73 CB        -46.3495  -25.6080    5.8050 C.3       3 UNK        -0.1972 
     74 N         -48.4781  -25.6547    4.6066 N.am      3 UNK        -0.4305 
     75 C         -49.6251  -25.2519    4.0419 C.2       2 UNK         0.5006 
     76 O         -50.0873  -24.1176    4.1716 O.2       2 UNK        -0.5106 
     77 CA        -50.4038  -26.2831    3.2002 C.3       2 UNK         0.0296 
     78 CB        -50.2880  -25.9479    1.7038 C.3       2 UNK        -0.2002 
     79 N         -50.0265  -27.6898    3.3974 N.am      2 UNK        -0.4032 
     80 C         -50.0307  -28.3788    4.5478 C.2       1 UNK         0.5000 
     81 O         -50.2875  -27.8567    5.6347 O.2       1 UNK        -0.5238 
     82 H82       -47.3214  -31.3627    0.9185 H         1 UNK         0.0889 
     83 H83       -46.4034  -30.7785    2.3079 H         1 UNK         0.0889 
     84 H84       -46.8053  -29.6754    0.9898 H         1 UNK         0.0889 
     85 H85       -47.6884  -30.4350    4.1038 H         1 UNK         0.3028 
     86 H86       -50.5510  -30.3327    3.9737 H         1 UNK         0.0864 
     87 H87       -50.3266  -30.2777    6.5301 H         1 UNK         0.0720 
     88 H88       -49.7425  -31.6591    5.6888 H         1 UNK         0.0720 
     89 H89       -48.3586  -28.2298    7.2877 H         1 UNK         0.0814 
     90 H90       -47.0583  -28.9215    8.2110 H         1 UNK         0.0814 
     91 H91       -47.5346  -30.5034   10.1242 H         1 UNK         0.1469 
     92 H92       -51.4542  -30.2334   11.8548 H         1 UNK         0.1381 
     93 H93       -50.6780  -28.4607    8.0435 H         1 UNK         0.1206 
     94 H94       -53.3157  -29.4824   10.3907 H         1 UNK         0.0813 
     95 H95       -52.9623  -28.7792    8.8316 H         1 UNK         0.0813 
     96 H96       -53.6311  -25.9483    8.7039 H         1 UNK         0.0638 
     97 H97       -54.6984  -27.2687    9.1074 H         1 UNK         0.0638 
     98 H98       -54.4938  -24.6402   10.6415 H         1 UNK         0.0568 
     99 H99       -57.6364  -26.0596    9.7632 H         1 UNK         0.3450 
    100 H100      -57.9558  -24.9210    8.4790 H         1 UNK         0.3450 
    101 H101      -55.4543  -27.0626   11.6168 H         1 UNK         0.2987 
    102 H102      -57.4490  -25.6427   14.2308 H         1 UNK         0.0766 
    103 H103      -58.5935  -27.8039   13.9076 H         1 UNK         0.0798 
    104 H104      -57.7925  -28.0450   12.3552 H         1 UNK         0.0798 
    105 H105      -58.9556  -26.7422   12.5592 H         1 UNK         0.0798 
    106 H106      -56.0825  -28.0967   14.2097 H         1 UNK         0.3198 
    107 H107      -54.5414  -28.2754   16.0145 H         1 UNK         0.0843 
    108 H108      -52.5333  -27.4619   13.8468 H         1 UNK         0.0831 
    109 H109      -53.5797  -28.8658   13.8480 H         1 UNK         0.0831 
    110 H110      -52.2543  -28.7771   14.9954 H         1 UNK         0.0831 
    111 H111      -52.2344  -26.4889   16.2454 H         1 UNK         0.3133 
    112 H112      -53.1798  -24.3119   17.9702 H         1 UNK         0.0566 
    113 H113      -52.7614  -24.3620   20.4398 H         1 UNK         0.0814 
    114 H114      -54.3774  -24.8994   20.0193 H         1 UNK         0.0814 
    115 H115      -53.1581  -26.0807   20.4644 H         1 UNK         0.0814 
    116 H116      -51.0419  -24.5867   17.7463 H         1 UNK         0.3091 
    117 H117      -48.6810  -25.6989   19.4854 H         1 UNK         0.0702 
    118 H118      -47.3452  -27.2482   18.0165 H         1 UNK         0.0785 
    119 H119      -48.8433  -27.8655   17.3213 H         1 UNK         0.0785 
    120 H120      -48.4935  -28.1099   19.0252 H         1 UNK         0.0785 
    121 H121      -49.1109  -25.4365   16.5502 H         1 UNK         0.2998 
    122 H122      -48.8043  -21.9691   16.6126 H         1 UNK         0.0697 
    123 H123      -46.5234  -23.7536   15.5937 H         1 UNK         0.0825 
    124 H124      -46.3362  -22.3968   16.6970 H         1 UNK         0.0825 
    125 H125      -46.8774  -22.1131   15.0516 H         1 UNK         0.0825 
    126 H126      -48.6985  -23.8522   14.4515 H         1 UNK         0.3029 
    127 H127      -52.0850  -24.8325   14.4276 H         1 UNK         0.0897 
    128 H128      -52.0398  -23.9910   12.0878 H         1 UNK         0.0792 
    129 H129      -50.6954  -22.9187   12.4830 H         1 UNK         0.0792 
    130 H130      -52.2691  -22.6771   13.2308 H         1 UNK         0.0792 
    131 H131      -49.9230  -25.3442   12.6281 H         1 UNK         0.3086 
    132 H132      -47.9951  -27.3462   14.5085 H         1 UNK         0.0583 
    133 H133      -49.5297  -29.1333   15.0653 H         1 UNK         0.1020 
    134 H134      -50.2429  -29.1077   13.4861 H         1 UNK         0.1020 
    135 H135      -49.7934  -31.6710   12.8703 H         1 UNK         0.0694 
    136 H136      -48.3069  -32.0288   12.0290 H         1 UNK         0.0694 
    137 H137      -48.7665  -27.7023   11.7193 H         1 UNK         0.2989 
    138 H138      -46.6033  -25.0527   10.6616 H         1 UNK         0.1055 
    139 H139      -46.3211  -28.0955   10.4109 H         1 UNK         0.0806 
    140 H140      -45.0910  -26.9984   11.0146 H         1 UNK         0.0806 
    141 H141      -45.5905  -26.8994    9.3357 H         1 UNK         0.0806 
    142 H142      -47.9686  -26.6455    8.9383 H         1 UNK         0.3061 
    143 H143      -50.7233  -26.2790    8.5782 H         1 UNK         0.0734 
    144 H144      -51.7356  -24.2262    7.5947 H         1 UNK         0.0832 
    145 H145      -51.7773  -24.1988    9.3497 H         1 UNK         0.0832 
    146 H146      -50.5909  -23.2280    8.4920 H         1 UNK         0.0832 
    147 H147      -49.5720  -26.2212    6.6739 H         1 UNK         0.3156 
    148 H148      -47.4535  -23.9133    5.0811 H         1 UNK         0.0589 
    149 H149      -46.5077  -26.5935    6.2446 H         1 UNK         0.0808 
    150 H150      -45.7838  -25.7383    4.8822 H         1 UNK         0.0808 
    151 H151      -45.7171  -25.0433    6.4919 H         1 UNK         0.0808 
    152 H152      -48.1771  -26.6012    4.4289 H         1 UNK         0.3098 
    153 H153      -51.4526  -26.1930    3.4899 H         1 UNK         0.0720 
    154 H154      -50.9237  -26.5966    1.1007 H         1 UNK         0.0791 
    155 H155      -49.2631  -26.0556    1.3462 H         1 UNK         0.0791 
    156 H156      -50.5972  -24.9206    1.5054 H         1 UNK         0.0791 
    157 H157      -49.8194  -28.2257    2.5581 H         1 UNK         0.3028 
@<TRIPOS>BOND
     1    1    2 1    
     2    1   82 1    
     3    1   83 1    
     4    1   84 1    
     5    2    3 2    
     6    2    4 am   BACKBONE|DICT|INTERRES
     7    4    5 1    
     8    4   85 1    
     9    5    6 1    
    10    5   80 1    
    11    5   86 1    
    12    6    7 1    
    13    6   87 1    
    14    6   88 1    
    15    7    8 1    
    16    8    9 1    
    17    8   89 1    
    18    8   90 1    
    19    9   10 ar   
    20    9   14 ar   
    21   10   11 ar   
    22   10   91 1    
    23   11   12 ar   
    24   11   58 1    
    25   12   13 ar   
    26   12   92 1    
    27   13   14 ar   
    28   13   15 1    
    29   14   93 1    
    30   15   16 1    
    31   15   94 1    
    32   15   95 1    
    33   16   17 1    
    34   17   18 1    
    35   17   96 1    
    36   17   97 1    
    37   18   19 1    
    38   18   22 1    
    39   18   98 1    
    40   19   20 am   BACKBONE|DICT|INTERRES
    41   19   21 2    
    42   20   99 1    
    43   20  100 1    
    44   22   23 am   BACKBONE|DICT|INTERRES
    45   22  101 1    
    46   23   24 2    
    47   23   25 1    
    48   25   26 1    
    49   25   27 1    
    50   25  102 1    
    51   26  103 1    
    52   26  104 1    
    53   26  105 1    
    54   27   28 am   BACKBONE|DICT|INTERRES
    55   27  106 1    
    56   28   29 2    
    57   28   30 1    
    58   30   31 1    
    59   30   32 1    
    60   30  107 1    
    61   31  108 1    
    62   31  109 1    
    63   31  110 1    
    64   32   33 am   BACKBONE|DICT|INTERRES
    65   32  111 1    
    66   33   34 2    
    67   33   35 1    
    68   35   36 1    
    69   35   37 1    
    70   35  112 1    
    71   36  113 1    
    72   36  114 1    
    73   36  115 1    
    74   37   38 am   BACKBONE|DICT|INTERRES
    75   37  116 1    
    76   38   39 2    
    77   38   40 1    
    78   40   41 1    
    79   40   42 1    
    80   40  117 1    
    81   41  118 1    
    82   41  119 1    
    83   41  120 1    
    84   42   43 am   BACKBONE|DICT|INTERRES
    85   42  121 1    
    86   43   44 2    
    87   43   45 1    
    88   45   46 1    
    89   45   47 1    
    90   45  122 1    
    91   46  123 1    
    92   46  124 1    
    93   46  125 1    
    94   47   48 am   BACKBONE|DICT|INTERRES
    95   47  126 1    
    96   48   49 2    
    97   48   50 1    
    98   50   51 1    
    99   50   52 1    
   100   50  127 1    
   101   51  128 1    
   102   51  129 1    
   103   51  130 1    
   104   52   53 am   BACKBONE|DICT|INTERRES
   105   52  131 1    
   106   53   54 2    
   107   53   55 1    
   108   55   56 1    
   109   55   59 1    
   110   55  132 1    
   111   56   57 1    
   112   56  133 1    
   113   56  134 1    
   114   57   58 1    
   115   58  135 1    
   116   58  136 1    
   117   59   60 am   BACKBONE|DICT|INTERRES
   118   59  137 1    
   119   60   61 2    
   120   60   62 1    
   121   62   63 1    
   122   62   64 1    
   123   62  138 1    
   124   63  139 1    
   125   63  140 1    
   126   63  141 1    
   127   64   65 am   BACKBONE|DICT|INTERRES
   128   64  142 1    
   129   65   66 2    
   130   65   67 1    
   131   67   68 1    
   132   67   69 1    
   133   67  143 1    
   134   68  144 1    
   135   68  145 1    
   136   68  146 1    
   137   69   70 am   BACKBONE|DICT|INTERRES
   138   69  147 1    
   139   70   71 2    
   140   70   72 1    
   141   72   73 1    
   142   72   74 1    
   143   72  148 1    
   144   73  149 1    
   145   73  150 1    
   146   73  151 1    
   147   74   75 am   BACKBONE|DICT|INTERRES
   148   74  152 1    
   149   75   76 2    
   150   75   77 1    
   151   77   78 1    
   152   77   79 1    
   153   77  153 1    
   154   78  154 1    
   155   78  155 1    
   156   78  156 1    
   157   79   80 am   BACKBONE|DICT|INTERRES
   158   79  157 1    
   159   80   81 2    
@<TRIPOS>SUBSTRUCTURE
     1 UNK         1 GROUP             0       ****    0 ROOT    
