@<TRIPOS>MOLECULE
3R207
157   159    1
SMALL
USER_CHARGES


@<TRIPOS>ATOM
      1 CA        -46.9430  -26.3228    3.0209 C.3       0 UNK        -0.1975 
      2 C         -47.6441  -25.9473    4.3178 C.2       0 UNK         0.4852 
      3 O         -47.9962  -24.7834    4.5086 O.2       0 UNK        -0.5216 
      4 N         -47.8383  -26.9193    5.2133 N.am      1 UNK        -0.4461 
      5 CA        -48.4733  -26.7545    6.5187 C.3       1 UNK         0.0864 
      6 C6        -50.0158  -26.6093    6.4520 C.3       14 UNK        -0.0898 
      7 S7        -50.8752  -27.9267    5.5167 S.3       14 UNK        -0.2598 
      8 C8        -51.5114  -29.0066    6.8489 C.3       14 UNK         0.0286 
      9 C9        -52.6489  -28.4431    7.7060 C.ar      14 UNK        -0.0844 
     10 C10       -53.1173  -27.1279    7.5964 C.ar      14 UNK        -0.0881 
     11 C11       -54.1166  -26.6445    8.4448 C.ar      14 UNK        -0.0643 
     12 C12       -54.6922  -27.5033    9.3863 C.ar      14 UNK        -0.0930 
     13 C13       -54.2676  -28.8325    9.4830 C.ar      14 UNK        -0.0827 
     14 C14       -53.2425  -29.2879    8.6477 C.ar      14 UNK        -0.1249 
     15 C15       -54.9460  -29.7952   10.4485 C.3       14 UNK         0.0141 
     16 S16       -53.7725  -30.5259   11.6331 S.3       14 UNK        -0.2313 
     17 C17       -54.8330  -31.7644   12.4565 C.3       14 UNK        -0.0915 
     18 CA        -55.1466  -31.4522   13.9444 C.3       13 UNK         0.0968 
     19 C         -53.9860  -31.8349   14.9092 C.2       13 UNK         0.5732 
     20 N         -53.4324  -30.9182   15.6949 N.am      13 UNK        -0.7310 
     21 O         -53.5989  -32.9998   14.9671 O.2       13 UNK        -0.5035 
     22 N         -55.6639  -30.0879   14.1154 N.am      13 UNK        -0.4233 
     23 C         -56.5266  -29.7103   15.0649 C.2       13 UNK         0.4989 
     24 O         -57.0335  -30.4903   15.8731 O.2       13 UNK        -0.4996 
     25 CA        -56.8933  -28.2190   15.1266 C.3       12 UNK         0.0216 
     26 CB        -56.9584  -27.7150   16.5806 C.3       12 UNK        -0.1964 
     27 N         -55.9405  -27.3841   14.3904 N.am      12 UNK        -0.4276 
     28 C         -56.2542  -26.5220   13.4126 C.2       12 UNK         0.5020 
     29 O         -57.3716  -26.4574   12.8974 O.2       12 UNK        -0.5489 
     30 CA        -55.1415  -25.5590   12.9338 C.3       11 UNK         0.0294 
     31 CB        -55.7078  -24.2109   12.4396 C.3       11 UNK        -0.2019 
     32 N         -54.0825  -25.3412   13.9292 N.am      11 UNK        -0.4493 
     33 C         -54.2278  -24.8998   15.1902 C.2       11 UNK         0.4932 
     34 O         -55.2688  -24.4060   15.6250 O.2       11 UNK        -0.5029 
     35 CA        -53.0298  -25.0898   16.1453 C.3       10 UNK         0.0280 
     36 CB        -53.4850  -25.4654   17.5708 C.3       10 UNK        -0.1976 
     37 N         -52.0148  -26.0449   15.6762 N.am      10 UNK        -0.4242 
     38 C         -52.1721  -27.3397   15.3446 C.2       10 UNK         0.5072 
     39 O         -53.2547  -27.9314   15.4030 O.2       10 UNK        -0.5224 
     40 CA        -50.9340  -28.0831   14.8019 C.3       9 UNK         0.0343 
     41 CB        -51.2783  -28.9084   13.5534 C.3       9 UNK        -0.2003 
     42 N         -49.8639  -27.1503   14.4472 N.am      9 UNK        -0.4272 
     43 C         -48.6879  -27.0363   15.0787 C.2       9 UNK         0.4988 
     44 O         -48.3130  -27.7936   15.9741 O.2       9 UNK        -0.5108 
     45 CA        -47.7835  -25.8545   14.6745 C.3       8 UNK         0.0248 
     46 CB        -46.6056  -26.3221   13.8086 C.3       8 UNK        -0.2001 
     47 N         -48.4911  -24.7623   13.9943 N.am      8 UNK        -0.4140 
     48 C         -49.4140  -23.9882   14.5819 C.2       8 UNK         0.5028 
     49 O         -49.7499  -24.1073   15.7599 O.2       8 UNK        -0.5428 
     50 CA        -50.1313  -22.9485   13.7081 C.3       7 UNK         0.0264 
     51 CB        -49.3818  -21.6073   13.7519 C.3       7 UNK        -0.1988 
     52 N         -50.3379  -23.3392   12.3096 N.am      7 UNK        -0.4454 
     53 C         -50.9836  -24.4309   11.8671 C.2       7 UNK         0.5027 
     54 O         -51.3788  -25.3388   12.6017 O.2       7 UNK        -0.5083 
     55 CA        -51.2755  -24.4950   10.3501 C.3       6 UNK         0.0844 
     56 C56       -52.7377  -24.0416   10.1079 C.3       14 UNK        -0.0967 
     57 S57       -53.2258  -23.9979    8.3515 S.3       14 UNK        -0.2604 
     58 C58       -54.5957  -25.2044    8.3097 C.3       14 UNK         0.0134 
     59 N         -50.3151  -23.7066    9.5638 N.am      6 UNK        -0.4116 
     60 C         -49.0356  -24.0408    9.3599 C.2       5 UNK         0.5034 
     61 O         -48.5234  -25.0921    9.7635 O.2       5 UNK        -0.5045 
     62 CA        -48.1756  -23.0249    8.5966 C.3       5 UNK         0.0224 
     63 CB        -47.8399  -21.8110    9.4840 C.3       5 UNK        -0.1978 
     64 N         -46.9492  -23.7003    8.1924 N.am      5 UNK        -0.4737 
     65 C         -46.0953  -23.3430    7.2294 C.2       4 UNK         0.5027 
     66 O         -46.2104  -22.3102    6.5691 O.2       4 UNK        -0.5211 
     67 CA        -44.9355  -24.3202    6.9281 C.3       4 UNK         0.0297 
     68 CB        -43.5964  -23.5832    6.7142 C.3       4 UNK        -0.1993 
     69 N         -44.7906  -25.4243    7.8966 N.am      4 UNK        -0.4486 
     70 C         -44.4344  -25.3408    9.1885 C.2       3 UNK         0.4961 
     71 O         -44.1614  -24.2877    9.7641 O.2       3 UNK        -0.5105 
     72 CA        -44.4824  -26.6577    9.9756 C.3       3 UNK         0.0299 
     73 CB        -43.9038  -26.5401   11.3985 C.3       3 UNK        -0.1972 
     74 N         -45.8743  -27.1046   10.0175 N.am      3 UNK        -0.4305 
     75 C         -46.2826  -28.3796   10.0573 C.2       2 UNK         0.5006 
     76 O         -45.5321  -29.3420   10.2182 O.2       2 UNK        -0.5106 
     77 CA        -47.7825  -28.6171    9.8069 C.3       2 UNK         0.0296 
     78 CB        -48.6136  -28.4015   11.0823 C.3       2 UNK        -0.2002 
     79 N         -48.2854  -27.7403    8.7480 N.am      2 UNK        -0.4032 
     80 C         -48.0125  -27.8911    7.4449 C.2       1 UNK         0.5000 
     81 O         -47.4056  -28.8581    6.9744 O.2       1 UNK        -0.5238 
     82 H82       -46.0252  -25.7461    2.9098 H         1 UNK         0.0889 
     83 H83       -47.5882  -26.1052    2.1701 H         1 UNK         0.0889 
     84 H84       -46.6853  -27.3814    2.9888 H         1 UNK         0.0889 
     85 H85       -47.5049  -27.8613    5.0449 H         1 UNK         0.3028 
     86 H86       -48.0739  -25.8384    6.9532 H         1 UNK         0.0864 
     87 H87       -50.4321  -26.5265    7.4568 H         1 UNK         0.0720 
     88 H88       -50.2617  -25.6632    5.9677 H         1 UNK         0.0720 
     89 H89       -50.6844  -29.2880    7.5019 H         1 UNK         0.0814 
     90 H90       -51.8579  -29.9305    6.3835 H         1 UNK         0.0814 
     91 H91       -52.7064  -26.4544    6.8597 H         1 UNK         0.1469 
     92 H92       -55.4892  -27.1450   10.0231 H         1 UNK         0.1381 
     93 H93       -52.9085  -30.3135    8.7305 H         1 UNK         0.1206 
     94 H94       -55.4156  -30.5909    9.8684 H         1 UNK         0.0813 
     95 H95       -55.7458  -29.2978   10.9995 H         1 UNK         0.0813 
     96 H96       -54.3614  -32.7433   12.3537 H         1 UNK         0.0638 
     97 H97       -55.7727  -31.8443   11.9083 H         1 UNK         0.0638 
     98 H98       -55.9526  -32.1346   14.2212 H         1 UNK         0.0568 
     99 H99       -52.6981  -31.1980   16.3241 H         1 UNK         0.3450 
    100 H100      -53.6944  -29.9426   15.6296 H         1 UNK         0.3450 
    101 H101      -55.2712  -29.3886   13.5040 H         1 UNK         0.2987 
    102 H102      -57.8906  -28.1311   14.6916 H         1 UNK         0.0766 
    103 H103      -57.7208  -28.2473   17.1508 H         1 UNK         0.0798 
    104 H104      -57.2073  -26.6542   16.6214 H         1 UNK         0.0798 
    105 H105      -56.0068  -27.8545   17.0950 H         1 UNK         0.0798 
    106 H106      -54.9823  -27.4043   14.7358 H         1 UNK         0.3198 
    107 H107      -54.6613  -26.0564   12.0911 H         1 UNK         0.0843 
    108 H108      -56.3143  -23.7262   13.2053 H         1 UNK         0.0831 
    109 H109      -56.3431  -24.3509   11.5643 H         1 UNK         0.0831 
    110 H110      -54.9152  -23.5184   12.1592 H         1 UNK         0.0831 
    111 H111      -53.1583  -25.6606   13.6563 H         1 UNK         0.3133 
    112 H112      -52.5328  -24.1205   16.1993 H         1 UNK         0.0566 
    113 H113      -52.6342  -25.5612   18.2453 H         1 UNK         0.0814 
    114 H114      -54.0306  -26.4092   17.5843 H         1 UNK         0.0814 
    115 H115      -54.1424  -24.7031   17.9906 H         1 UNK         0.0814 
    116 H116      -51.0826  -25.6505   15.6039 H         1 UNK         0.3091 
    117 H117      -50.6081  -28.7677   15.5872 H         1 UNK         0.0702 
    118 H118      -50.4097  -29.4566   13.1910 H         1 UNK         0.0785 
    119 H119      -51.6489  -28.2820   12.7406 H         1 UNK         0.0785 
    120 H120      -52.0446  -29.6481   13.7736 H         1 UNK         0.0785 
    121 H121      -50.1021  -26.4762   13.7267 H         1 UNK         0.2998 
    122 H122      -47.3705  -25.4503   15.6014 H         1 UNK         0.0697 
    123 H123      -46.9241  -26.6445   12.8188 H         1 UNK         0.0825 
    124 H124      -46.0812  -27.1588   14.2725 H         1 UNK         0.0825 
    125 H125      -45.8811  -25.5180   13.6866 H         1 UNK         0.0825 
    126 H126      -48.2814  -24.6088   13.0185 H         1 UNK         0.3029 
    127 H127      -51.1211  -22.7980   14.1448 H         1 UNK         0.0897 
    128 H128      -48.3996  -21.6769   13.2825 H         1 UNK         0.0792 
    129 H129      -49.2284  -21.2783   14.7810 H         1 UNK         0.0792 
    130 H130      -49.9420  -20.8211   13.2453 H         1 UNK         0.0792 
    131 H131      -50.0603  -22.6571   11.6203 H         1 UNK         0.3086 
    132 H132      -51.1872  -25.5401   10.0443 H         1 UNK         0.0583 
    133 H133      -53.4175  -24.7059   10.6407 H         1 UNK         0.1020 
    134 H134      -52.9088  -23.0440   10.5183 H         1 UNK         0.1020 
    135 H135      -55.3193  -24.9542    9.0872 H         1 UNK         0.0694 
    136 H136      -55.1197  -25.1025    7.3585 H         1 UNK         0.0694 
    137 H137      -50.6724  -22.8521    9.1607 H         1 UNK         0.2989 
    138 H138      -48.7170  -22.7033    7.7039 H         1 UNK         0.1055 
    139 H139      -47.2129  -21.0937    8.9541 H         1 UNK         0.0806 
    140 H140      -47.3086  -22.1089   10.3892 H         1 UNK         0.0806 
    141 H141      -48.7411  -21.2790    9.7903 H         1 UNK         0.0806 
    142 H142      -46.7759  -24.5564    8.6971 H         1 UNK         0.3061 
    143 H143      -45.1961  -24.7936    5.9803 H         1 UNK         0.0734 
    144 H144      -43.3004  -23.0135    7.5954 H         1 UNK         0.0832 
    145 H145      -42.7921  -24.2795    6.4773 H         1 UNK         0.0832 
    146 H146      -43.6665  -22.8784    5.8848 H         1 UNK         0.0832 
    147 H147      -44.9900  -26.3456    7.5304 H         1 UNK         0.3156 
    148 H148      -43.8863  -27.3872    9.4228 H         1 UNK         0.0589 
    149 H149      -43.9967  -27.4762   11.9491 H         1 UNK         0.0808 
    150 H150      -44.4021  -25.7598   11.9715 H         1 UNK         0.0808 
    151 H151      -42.8437  -26.2866   11.3639 H         1 UNK         0.0808 
    152 H152      -46.5781  -26.3831    9.9342 H         1 UNK         0.3098 
    153 H153      -47.9076  -29.6551    9.4907 H         1 UNK         0.0720 
    154 H154      -48.6292  -27.3564   11.3910 H         1 UNK         0.0791 
    155 H155      -48.2191  -28.9868   11.9140 H         1 UNK         0.0791 
    156 H156      -49.6472  -28.7119   10.9277 H         1 UNK         0.0791 
    157 H157      -48.7382  -26.8871    9.0606 H         1 UNK         0.3028 
@<TRIPOS>BOND
     1    1    2 1    
     2    1   82 1    
     3    1   83 1    
     4    1   84 1    
     5    2    3 2    
     6    2    4 am   BACKBONE|DICT|INTERRES
     7    4    5 1    
     8    4   85 1    
     9    5    6 1    
    10    5   80 1    
    11    5   86 1    
    12    6    7 1    
    13    6   87 1    
    14    6   88 1    
    15    7    8 1    
    16    8    9 1    
    17    8   89 1    
    18    8   90 1    
    19    9   10 ar   
    20    9   14 ar   
    21   10   11 ar   
    22   10   91 1    
    23   11   12 ar   
    24   11   58 1    
    25   12   13 ar   
    26   12   92 1    
    27   13   14 ar   
    28   13   15 1    
    29   14   93 1    
    30   15   16 1    
    31   15   94 1    
    32   15   95 1    
    33   16   17 1    
    34   17   18 1    
    35   17   96 1    
    36   17   97 1    
    37   18   19 1    
    38   18   22 1    
    39   18   98 1    
    40   19   20 am   BACKBONE|DICT|INTERRES
    41   19   21 2    
    42   20   99 1    
    43   20  100 1    
    44   22   23 am   BACKBONE|DICT|INTERRES
    45   22  101 1    
    46   23   24 2    
    47   23   25 1    
    48   25   26 1    
    49   25   27 1    
    50   25  102 1    
    51   26  103 1    
    52   26  104 1    
    53   26  105 1    
    54   27   28 am   BACKBONE|DICT|INTERRES
    55   27  106 1    
    56   28   29 2    
    57   28   30 1    
    58   30   31 1    
    59   30   32 1    
    60   30  107 1    
    61   31  108 1    
    62   31  109 1    
    63   31  110 1    
    64   32   33 am   BACKBONE|DICT|INTERRES
    65   32  111 1    
    66   33   34 2    
    67   33   35 1    
    68   35   36 1    
    69   35   37 1    
    70   35  112 1    
    71   36  113 1    
    72   36  114 1    
    73   36  115 1    
    74   37   38 am   BACKBONE|DICT|INTERRES
    75   37  116 1    
    76   38   39 2    
    77   38   40 1    
    78   40   41 1    
    79   40   42 1    
    80   40  117 1    
    81   41  118 1    
    82   41  119 1    
    83   41  120 1    
    84   42   43 am   BACKBONE|DICT|INTERRES
    85   42  121 1    
    86   43   44 2    
    87   43   45 1    
    88   45   46 1    
    89   45   47 1    
    90   45  122 1    
    91   46  123 1    
    92   46  124 1    
    93   46  125 1    
    94   47   48 am   BACKBONE|DICT|INTERRES
    95   47  126 1    
    96   48   49 2    
    97   48   50 1    
    98   50   51 1    
    99   50   52 1    
   100   50  127 1    
   101   51  128 1    
   102   51  129 1    
   103   51  130 1    
   104   52   53 am   BACKBONE|DICT|INTERRES
   105   52  131 1    
   106   53   54 2    
   107   53   55 1    
   108   55   56 1    
   109   55   59 1    
   110   55  132 1    
   111   56   57 1    
   112   56  133 1    
   113   56  134 1    
   114   57   58 1    
   115   58  135 1    
   116   58  136 1    
   117   59   60 am   BACKBONE|DICT|INTERRES
   118   59  137 1    
   119   60   61 2    
   120   60   62 1    
   121   62   63 1    
   122   62   64 1    
   123   62  138 1    
   124   63  139 1    
   125   63  140 1    
   126   63  141 1    
   127   64   65 am   BACKBONE|DICT|INTERRES
   128   64  142 1    
   129   65   66 2    
   130   65   67 1    
   131   67   68 1    
   132   67   69 1    
   133   67  143 1    
   134   68  144 1    
   135   68  145 1    
   136   68  146 1    
   137   69   70 am   BACKBONE|DICT|INTERRES
   138   69  147 1    
   139   70   71 2    
   140   70   72 1    
   141   72   73 1    
   142   72   74 1    
   143   72  148 1    
   144   73  149 1    
   145   73  150 1    
   146   73  151 1    
   147   74   75 am   BACKBONE|DICT|INTERRES
   148   74  152 1    
   149   75   76 2    
   150   75   77 1    
   151   77   78 1    
   152   77   79 1    
   153   77  153 1    
   154   78  154 1    
   155   78  155 1    
   156   78  156 1    
   157   79   80 am   BACKBONE|DICT|INTERRES
   158   79  157 1    
   159   80   81 2    
@<TRIPOS>SUBSTRUCTURE
     1 UNK         1 GROUP             0       ****    0 ROOT    
