@<TRIPOS>MOLECULE
3R207
157   159    1
SMALL
USER_CHARGES


@<TRIPOS>ATOM
      1 CA        -47.0911  -32.5826    6.0792 C.3       0 UNK        -0.1975 
      2 C         -47.5023  -31.3823    5.2393 C.2       0 UNK         0.4852 
      3 O         -47.0070  -31.2185    4.1238 O.2       0 UNK        -0.5216 
      4 N         -48.4041  -30.5425    5.7675 N.am      1 UNK        -0.4461 
      5 CA        -48.9060  -29.3266    5.1119 C.3       1 UNK         0.0864 
      6 C6        -50.1932  -28.8146    5.8071 C.3       14 UNK        -0.0898 
      7 S7        -51.2714  -27.8638    4.6842 S.3       14 UNK        -0.2598 
      8 C8        -52.9010  -28.1067    5.4601 C.3       14 UNK         0.0286 
      9 C9        -52.9535  -27.4997    6.8542 C.ar      14 UNK        -0.0844 
     10 C10       -53.0516  -26.1137    7.0111 C.ar      14 UNK        -0.0881 
     11 C11       -53.0740  -25.5437    8.2875 C.ar      14 UNK        -0.0643 
     12 C12       -53.0336  -26.3774    9.4098 C.ar      14 UNK        -0.0930 
     13 C13       -52.9247  -27.7618    9.2665 C.ar      14 UNK        -0.0827 
     14 C14       -52.8897  -28.3197    7.9856 C.ar      14 UNK        -0.1249 
     15 C15       -52.8271  -28.6452   10.4994 C.3       14 UNK         0.0141 
     16 S16       -54.4692  -28.9536   11.2085 S.3       14 UNK        -0.2313 
     17 C17       -54.0251  -30.0677   12.5797 C.3       14 UNK        -0.0915 
     18 CA        -55.2444  -30.3856   13.4857 C.3       13 UNK         0.0968 
     19 C         -54.9515  -31.5425   14.4886 C.2       13 UNK         0.5732 
     20 N         -55.3939  -31.4823   15.7397 N.am      13 UNK        -0.7310 
     21 O         -54.3197  -32.5314   14.1242 O.2       13 UNK        -0.5035 
     22 N         -55.7644  -29.1680   14.1279 N.am      13 UNK        -0.4233 
     23 C         -57.0551  -28.9248   14.3781 C.2       13 UNK         0.4989 
     24 O         -57.9764  -29.6576   14.0113 O.2       13 UNK        -0.4996 
     25 CA        -57.3490  -27.6734   15.2301 C.3       12 UNK         0.0216 
     26 CB        -58.8584  -27.4315   15.4424 C.3       12 UNK        -0.1964 
     27 N         -56.6512  -27.7065   16.5239 N.am      12 UNK        -0.4276 
     28 C         -56.6845  -28.6788   17.4488 C.2       12 UNK         0.5020 
     29 O         -57.3442  -29.7134   17.3385 O.2       12 UNK        -0.5489 
     30 CA        -55.7578  -28.4930   18.6655 C.3       11 UNK         0.0294 
     31 CB        -55.9357  -29.5970   19.7250 C.3       11 UNK        -0.2019 
     32 N         -54.3601  -28.4729   18.2301 N.am      11 UNK        -0.4493 
     33 C         -53.7434  -27.4071   17.7071 C.2       11 UNK         0.4932 
     34 O         -54.2660  -26.2903   17.6590 O.2       11 UNK        -0.5029 
     35 CA        -52.3337  -27.6240   17.1198 C.3       10 UNK         0.0280 
     36 CB        -52.0692  -29.0770   16.6592 C.3       10 UNK        -0.1976 
     37 N         -52.0532  -26.6828   16.0307 N.am      10 UNK        -0.4242 
     38 C         -52.7174  -26.5457   14.8745 C.2       10 UNK         0.5072 
     39 O         -53.6643  -27.2636   14.5453 O.2       10 UNK        -0.5224 
     40 CA        -52.2680  -25.4265   13.9107 C.3       9 UNK         0.0343 
     41 CB        -53.2373  -24.2316   13.9762 C.3       9 UNK        -0.2003 
     42 N         -50.8709  -24.9742   14.0340 N.am      9 UNK        -0.4272 
     43 C         -50.2562  -24.3696   15.0628 C.2       9 UNK         0.4988 
     44 O         -50.7904  -24.1452   16.1489 O.2       9 UNK        -0.5108 
     45 CA        -48.7833  -23.9766   14.8607 C.3       8 UNK         0.0248 
     46 CB        -47.8718  -25.2109   14.9587 C.3       8 UNK        -0.2001 
     47 N         -48.5498  -23.2815   13.5930 N.am      8 UNK        -0.4140 
     48 C         -49.0041  -22.0516   13.3079 C.2       8 UNK         0.5028 
     49 O         -49.6132  -21.3413   14.1093 O.2       8 UNK        -0.5428 
     50 CA        -48.7466  -21.5213   11.8859 C.3       7 UNK         0.0264 
     51 CB        -47.3348  -20.9244   11.7722 C.3       7 UNK        -0.1988 
     52 N         -48.9390  -22.5426   10.8531 N.am      7 UNK        -0.4454 
     53 C         -50.1154  -23.1248   10.5764 C.2       7 UNK         0.5027 
     54 O         -51.1742  -22.8020   11.1159 O.2       7 UNK        -0.5083 
     55 CA        -50.1074  -24.3009    9.5782 C.3       6 UNK         0.0844 
     56 C56       -50.2346  -23.8546    8.1006 C.3       14 UNK        -0.0967 
     57 S57       -51.8294  -23.1219    7.5710 S.3       14 UNK        -0.2604 
     58 C58       -53.1397  -24.0310    8.4685 C.3       14 UNK         0.0134 
     59 N         -48.9580  -25.1858    9.7699 N.am      6 UNK        -0.4116 
     60 C         -48.7569  -25.9492   10.8523 C.2       5 UNK         0.5034 
     61 O         -49.5428  -26.0300   11.7950 O.2       5 UNK        -0.5045 
     62 CA        -47.4269  -26.7136   10.9178 C.3       5 UNK         0.0224 
     63 CB        -47.5114  -28.0348   10.1356 C.3       5 UNK        -0.1978 
     64 N         -46.3078  -25.9036   10.4285 N.am      5 UNK        -0.4737 
     65 C         -45.8406  -24.8147   11.0569 C.2       4 UNK         0.5027 
     66 O         -46.2729  -24.4129   12.1361 O.2       4 UNK        -0.5211 
     67 CA        -44.7393  -24.0162   10.3400 C.3       4 UNK         0.0297 
     68 CB        -43.3591  -24.6327   10.6162 C.3       4 UNK        -0.1993 
     69 N         -44.9573  -23.9225    8.8941 N.am      4 UNK        -0.4486 
     70 C         -45.9847  -23.2793    8.3198 C.2       3 UNK         0.4961 
     71 O         -46.8408  -22.6573    8.9458 O.2       3 UNK        -0.5105 
     72 CA        -46.1122  -23.4031    6.7919 C.3       3 UNK         0.0299 
     73 CB        -45.2415  -22.3507    6.0879 C.3       3 UNK        -0.1972 
     74 N         -45.7743  -24.7418    6.2962 N.am      3 UNK        -0.4305 
     75 C         -46.4270  -25.8604    6.6394 C.2       2 UNK         0.5006 
     76 O         -47.3911  -25.8823    7.4092 O.2       2 UNK        -0.5106 
     77 CA        -45.8536  -27.1778    6.0962 C.3       2 UNK         0.0296 
     78 CB        -44.7533  -27.7050    7.0330 C.3       2 UNK        -0.2002 
     79 N         -46.8937  -28.1972    5.9697 N.am      2 UNK        -0.4032 
     80 C         -47.8350  -28.2145    5.0150 C.2       1 UNK         0.5000 
     81 O         -47.8674  -27.4138    4.0777 O.2       1 UNK        -0.5238 
     82 H82       -47.6080  -32.6071    7.0384 H         1 UNK         0.0889 
     83 H83       -46.0190  -32.5554    6.2723 H         1 UNK         0.0889 
     84 H84       -47.3184  -33.5068    5.5485 H         1 UNK         0.0889 
     85 H85       -48.7856  -30.7406    6.6819 H         1 UNK         0.3028 
     86 H86       -49.1609  -29.6102    4.0880 H         1 UNK         0.0864 
     87 H87       -49.9658  -28.2109    6.6888 H         1 UNK         0.0720 
     88 H88       -50.7766  -29.6629    6.1687 H         1 UNK         0.0720 
     89 H89       -53.6646  -27.6438    4.8334 H         1 UNK         0.0814 
     90 H90       -53.1363  -29.1718    5.4894 H         1 UNK         0.0814 
     91 H91       -53.0861  -25.4759    6.1383 H         1 UNK         0.1469 
     92 H92       -53.0635  -25.9486   10.4024 H         1 UNK         0.1381 
     93 H93       -52.8062  -29.3917    7.8699 H         1 UNK         0.1206 
     94 H94       -52.3539  -29.5962   10.2497 H         1 UNK         0.0813 
     95 H95       -52.1909  -28.1686   11.2477 H         1 UNK         0.0813 
     96 H96       -53.2198  -29.6190   13.1640 H         1 UNK         0.0638 
     97 H97       -53.6185  -30.9788   12.1372 H         1 UNK         0.0638 
     98 H98       -56.0208  -30.7860   12.8316 H         1 UNK         0.0568 
     99 H99       -55.9991  -30.7326   16.0481 H         1 UNK         0.3450 
    100 H100      -55.1980  -32.2522   16.3587 H         1 UNK         0.3450 
    101 H101      -55.0597  -28.4952   14.4237 H         1 UNK         0.2987 
    102 H102      -56.9481  -26.8213   14.6785 H         1 UNK         0.0766 
    103 H103      -59.3768  -27.3359   14.4875 H         1 UNK         0.0798 
    104 H104      -59.0378  -26.5131   16.0013 H         1 UNK         0.0798 
    105 H105      -59.3275  -28.2518   15.9871 H         1 UNK         0.0798 
    106 H106      -56.0088  -26.9396   16.6992 H         1 UNK         0.3198 
    107 H107      -56.0120  -27.5388   19.1329 H         1 UNK         0.0843 
    108 H108      -56.9665  -29.6328   20.0802 H         1 UNK         0.0831 
    109 H109      -55.3014  -29.4191   20.5935 H         1 UNK         0.0831 
    110 H110      -55.6935  -30.5841   19.3288 H         1 UNK         0.0831 
    111 H111      -53.8809  -29.3618   18.2116 H         1 UNK         0.3133 
    112 H112      -51.6265  -27.3876   17.9157 H         1 UNK         0.0566 
    113 H113      -51.0980  -29.1627   16.1716 H         1 UNK         0.0814 
    114 H114      -52.0582  -29.7690   17.5017 H         1 UNK         0.0814 
    115 H115      -52.8231  -29.4260   15.9522 H         1 UNK         0.0814 
    116 H116      -51.3893  -25.9447   16.2454 H         1 UNK         0.3091 
    117 H117      -52.3408  -25.8511   12.9083 H         1 UNK         0.0702 
    118 H118      -53.2285  -23.7557   14.9573 H         1 UNK         0.0785 
    119 H119      -54.2619  -24.5497   13.7786 H         1 UNK         0.0785 
    120 H120      -52.9826  -23.4757   13.2330 H         1 UNK         0.0785 
    121 H121      -50.3014  -25.1898   13.2167 H         1 UNK         0.2998 
    122 H122      -48.5096  -23.2943   15.6683 H         1 UNK         0.0697 
    123 H123      -48.0702  -25.9276   14.1615 H         1 UNK         0.0825 
    124 H124      -48.0160  -25.7293   15.9076 H         1 UNK         0.0825 
    125 H125      -46.8199  -24.9309   14.8994 H         1 UNK         0.0825 
    126 H126      -47.9781  -23.7627   12.9045 H         1 UNK         0.3029 
    127 H127      -49.4676  -20.7228   11.6978 H         1 UNK         0.0897 
    128 H128      -47.1696  -20.4814   10.7898 H         1 UNK         0.0792 
    129 H129      -47.1831  -20.1379   12.5126 H         1 UNK         0.0792 
    130 H130      -46.5630  -21.6773   11.9330 H         1 UNK         0.0792 
    131 H131      -48.1213  -22.7977   10.3031 H         1 UNK         0.3086 
    132 H132      -50.9681  -24.9081    9.8334 H         1 UNK         0.0583 
    133 H133      -49.4366  -23.1539    7.8487 H         1 UNK         0.1020 
    134 H134      -50.0715  -24.7196    7.4544 H         1 UNK         0.1020 
    135 H135      -53.1014  -23.7611    9.5243 H         1 UNK         0.0694 
    136 H136      -54.1081  -23.6828    8.1072 H         1 UNK         0.0694 
    137 H137      -48.2814  -25.2324    9.0134 H         1 UNK         0.2989 
    138 H138      -47.2360  -26.9525   11.9665 H         1 UNK         0.1055 
    139 H139      -48.3090  -28.6661   10.5300 H         1 UNK         0.0806 
    140 H140      -46.5838  -28.6021   10.2125 H         1 UNK         0.0806 
    141 H141      -47.7222  -27.8738    9.0786 H         1 UNK         0.0806 
    142 H142      -45.9335  -26.1367    9.5212 H         1 UNK         0.3061 
    143 H143      -44.7476  -23.0025   10.7463 H         1 UNK         0.0734 
    144 H144      -43.1695  -24.6953   11.6888 H         1 UNK         0.0832 
    145 H145      -43.2756  -25.6424   10.2120 H         1 UNK         0.0832 
    146 H146      -42.5607  -24.0295   10.1836 H         1 UNK         0.0832 
    147 H147      -44.2978  -24.4002    8.2978 H         1 UNK         0.3156 
    148 H148      -47.1552  -23.2094    6.5324 H         1 UNK         0.0589 
    149 H149      -44.1792  -22.5058    6.2808 H         1 UNK         0.0808 
    150 H150      -45.3935  -22.3673    5.0085 H         1 UNK         0.0808 
    151 H151      -45.4915  -21.3459    6.4321 H         1 UNK         0.0808 
    152 H152      -44.9887  -24.8087    5.6644 H         1 UNK         0.3098 
    153 H153      -45.4212  -26.9964    5.1098 H         1 UNK         0.0720 
    154 H154      -44.3164  -28.6269    6.6484 H         1 UNK         0.0791 
    155 H155      -45.1343  -27.9094    8.0342 H         1 UNK         0.0791 
    156 H156      -43.9408  -26.9841    7.1331 H         1 UNK         0.0791 
    157 H157      -46.9506  -28.8839    6.7059 H         1 UNK         0.3028 
@<TRIPOS>BOND
     1    1    2 1    
     2    1   82 1    
     3    1   83 1    
     4    1   84 1    
     5    2    3 2    
     6    2    4 am   BACKBONE|DICT|INTERRES
     7    4    5 1    
     8    4   85 1    
     9    5    6 1    
    10    5   80 1    
    11    5   86 1    
    12    6    7 1    
    13    6   87 1    
    14    6   88 1    
    15    7    8 1    
    16    8    9 1    
    17    8   89 1    
    18    8   90 1    
    19    9   10 ar   
    20    9   14 ar   
    21   10   11 ar   
    22   10   91 1    
    23   11   12 ar   
    24   11   58 1    
    25   12   13 ar   
    26   12   92 1    
    27   13   14 ar   
    28   13   15 1    
    29   14   93 1    
    30   15   16 1    
    31   15   94 1    
    32   15   95 1    
    33   16   17 1    
    34   17   18 1    
    35   17   96 1    
    36   17   97 1    
    37   18   19 1    
    38   18   22 1    
    39   18   98 1    
    40   19   20 am   BACKBONE|DICT|INTERRES
    41   19   21 2    
    42   20   99 1    
    43   20  100 1    
    44   22   23 am   BACKBONE|DICT|INTERRES
    45   22  101 1    
    46   23   24 2    
    47   23   25 1    
    48   25   26 1    
    49   25   27 1    
    50   25  102 1    
    51   26  103 1    
    52   26  104 1    
    53   26  105 1    
    54   27   28 am   BACKBONE|DICT|INTERRES
    55   27  106 1    
    56   28   29 2    
    57   28   30 1    
    58   30   31 1    
    59   30   32 1    
    60   30  107 1    
    61   31  108 1    
    62   31  109 1    
    63   31  110 1    
    64   32   33 am   BACKBONE|DICT|INTERRES
    65   32  111 1    
    66   33   34 2    
    67   33   35 1    
    68   35   36 1    
    69   35   37 1    
    70   35  112 1    
    71   36  113 1    
    72   36  114 1    
    73   36  115 1    
    74   37   38 am   BACKBONE|DICT|INTERRES
    75   37  116 1    
    76   38   39 2    
    77   38   40 1    
    78   40   41 1    
    79   40   42 1    
    80   40  117 1    
    81   41  118 1    
    82   41  119 1    
    83   41  120 1    
    84   42   43 am   BACKBONE|DICT|INTERRES
    85   42  121 1    
    86   43   44 2    
    87   43   45 1    
    88   45   46 1    
    89   45   47 1    
    90   45  122 1    
    91   46  123 1    
    92   46  124 1    
    93   46  125 1    
    94   47   48 am   BACKBONE|DICT|INTERRES
    95   47  126 1    
    96   48   49 2    
    97   48   50 1    
    98   50   51 1    
    99   50   52 1    
   100   50  127 1    
   101   51  128 1    
   102   51  129 1    
   103   51  130 1    
   104   52   53 am   BACKBONE|DICT|INTERRES
   105   52  131 1    
   106   53   54 2    
   107   53   55 1    
   108   55   56 1    
   109   55   59 1    
   110   55  132 1    
   111   56   57 1    
   112   56  133 1    
   113   56  134 1    
   114   57   58 1    
   115   58  135 1    
   116   58  136 1    
   117   59   60 am   BACKBONE|DICT|INTERRES
   118   59  137 1    
   119   60   61 2    
   120   60   62 1    
   121   62   63 1    
   122   62   64 1    
   123   62  138 1    
   124   63  139 1    
   125   63  140 1    
   126   63  141 1    
   127   64   65 am   BACKBONE|DICT|INTERRES
   128   64  142 1    
   129   65   66 2    
   130   65   67 1    
   131   67   68 1    
   132   67   69 1    
   133   67  143 1    
   134   68  144 1    
   135   68  145 1    
   136   68  146 1    
   137   69   70 am   BACKBONE|DICT|INTERRES
   138   69  147 1    
   139   70   71 2    
   140   70   72 1    
   141   72   73 1    
   142   72   74 1    
   143   72  148 1    
   144   73  149 1    
   145   73  150 1    
   146   73  151 1    
   147   74   75 am   BACKBONE|DICT|INTERRES
   148   74  152 1    
   149   75   76 2    
   150   75   77 1    
   151   77   78 1    
   152   77   79 1    
   153   77  153 1    
   154   78  154 1    
   155   78  155 1    
   156   78  156 1    
   157   79   80 am   BACKBONE|DICT|INTERRES
   158   79  157 1    
   159   80   81 2    
@<TRIPOS>SUBSTRUCTURE
     1 UNK         1 GROUP             0       ****    0 ROOT    
