@<TRIPOS>MOLECULE
3R207
157   159    1
SMALL
USER_CHARGES


@<TRIPOS>ATOM
      1 CA        -46.3594  -31.2111    3.5003 C.3       0 UNK        -0.1975 
      2 C         -47.5062  -30.2244    3.6620 C.2       0 UNK         0.4852 
      3 O         -48.0937  -29.8013    2.6658 O.2       0 UNK        -0.5216 
      4 N         -47.8282  -29.8558    4.9097 N.am      1 UNK        -0.4461 
      5 CA        -48.9088  -28.9245    5.2623 C.3       1 UNK         0.0864 
      6 C6        -49.2243  -28.9596    6.7758 C.3       14 UNK        -0.0898 
      7 S7        -49.8521  -30.5837    7.3217 S.3       14 UNK        -0.2598 
      8 C8        -51.6358  -30.2575    7.5222 C.3       14 UNK         0.0286 
      9 C9        -51.9157  -29.3384    8.7033 C.ar      14 UNK        -0.0844 
     10 C10       -52.2303  -27.9929    8.4956 C.ar      14 UNK        -0.0881 
     11 C11       -52.4331  -27.1264    9.5736 C.ar      14 UNK        -0.0643 
     12 C12       -52.3531  -27.6393   10.8776 C.ar      14 UNK        -0.0930 
     13 C13       -52.0420  -28.9846   11.1018 C.ar      14 UNK        -0.0827 
     14 C14       -51.8284  -29.8283   10.0077 C.ar      14 UNK        -0.1249 
     15 C15       -51.8258  -29.4978   12.5213 C.3       14 UNK         0.0141 
     16 S16       -52.7661  -31.0173   12.8839 S.3       14 UNK        -0.2313 
     17 C17       -53.9577  -30.4791   14.1544 C.3       14 UNK        -0.0915 
     18 CA        -55.3701  -30.2511   13.5608 C.3       13 UNK         0.0968 
     19 C         -56.4541  -30.2358   14.6724 C.2       13 UNK         0.5732 
     20 N         -56.9222  -31.4037   15.0919 N.am      13 UNK        -0.7310 
     21 O         -56.8460  -29.1911   15.1866 O.2       13 UNK        -0.5035 
     22 N         -55.4088  -29.0437   12.7267 N.am      13 UNK        -0.4233 
     23 C         -56.3483  -28.7959   11.8051 C.2       13 UNK         0.4989 
     24 O         -57.2396  -29.5953   11.5101 O.2       13 UNK        -0.4996 
     25 CA        -56.2671  -27.4396   11.0751 C.3       12 UNK         0.0216 
     26 CB        -57.5818  -27.0518   10.3651 C.3       12 UNK        -0.1964 
     27 N         -55.7938  -26.3477   11.9321 N.am      12 UNK        -0.4276 
     28 C         -56.3572  -25.8750   13.0519 C.2       12 UNK         0.5020 
     29 O         -57.4359  -26.2551   13.5110 O.2       12 UNK        -0.5489 
     30 CA        -55.5547  -24.7944   13.7986 C.3       11 UNK         0.0294 
     31 CB        -56.4212  -23.5590   14.0970 C.3       11 UNK        -0.2019 
     32 N         -54.9844  -25.3027   15.0474 N.am      11 UNK        -0.4493 
     33 C         -54.1057  -26.3094   15.1471 C.2       11 UNK         0.4932 
     34 O         -53.6816  -26.9543   14.1852 O.2       11 UNK        -0.5029 
     35 CA        -53.6567  -26.6635   16.5771 C.3       10 UNK         0.0280 
     36 CB        -54.6387  -27.6513   17.2263 C.3       10 UNK        -0.1976 
     37 N         -52.3078  -27.2321   16.6355 N.am      10 UNK        -0.4242 
     38 C         -51.1803  -26.5772   16.3288 C.2       10 UNK         0.5072 
     39 O         -51.1513  -25.3951   15.9803 O.2       10 UNK        -0.5224 
     40 CA        -49.8669  -27.3619   16.4970 C.3       9 UNK         0.0343 
     41 CB        -49.9276  -28.7743   15.8820 C.3       9 UNK        -0.2003 
     42 N         -48.7705  -26.6223   15.8754 N.am      9 UNK        -0.4272 
     43 C         -47.5754  -26.3807   16.4249 C.2       9 UNK         0.4988 
     44 O         -47.2364  -26.7866   17.5377 O.2       9 UNK        -0.5108 
     45 CA        -46.5732  -25.5579   15.5949 C.3       8 UNK         0.0248 
     46 CB        -45.7376  -26.4828   14.6954 C.3       8 UNK        -0.2001 
     47 N         -47.1977  -24.5198   14.7710 N.am      8 UNK        -0.4140 
     48 C         -47.7711  -23.4043   15.2474 C.2       8 UNK         0.5028 
     49 O         -47.8286  -23.1193   16.4442 O.2       8 UNK        -0.5428 
     50 CA        -48.3823  -22.4428   14.2162 C.3       7 UNK         0.0264 
     51 CB        -47.2968  -21.5725   13.5600 C.3       7 UNK        -0.1988 
     52 N         -49.1111  -23.1896   13.1891 N.am      7 UNK        -0.4454 
     53 C         -50.4383  -23.3865   13.2022 C.2       7 UNK         0.5027 
     54 O         -51.1945  -22.8109   13.9862 O.2       7 UNK        -0.5083 
     55 CA        -51.0496  -24.3718   12.1783 C.3       6 UNK         0.0844 
     56 C56       -51.9889  -23.6376   11.1831 C.3       14 UNK        -0.0967 
     57 S57       -53.3858  -24.6668   10.6258 S.3       14 UNK        -0.2604 
     58 C58       -52.6752  -25.6466    9.2639 C.3       14 UNK         0.0134 
     59 N         -50.0266  -25.1598   11.4778 N.am      6 UNK        -0.4116 
     60 C         -49.3951  -26.2240   11.9976 C.2       5 UNK         0.5034 
     61 O         -49.6444  -26.6855   13.1082 O.2       5 UNK        -0.5045 
     62 CA        -48.2433  -26.8459   11.1821 C.3       5 UNK         0.0224 
     63 CB        -48.7317  -28.0276   10.3355 C.3       5 UNK        -0.1978 
     64 N         -47.5489  -25.8900   10.3179 N.am      5 UNK        -0.4737 
     65 C         -46.8934  -24.8098   10.7581 C.2       4 UNK         0.5027 
     66 O         -46.7666  -24.5408   11.9524 O.2       4 UNK        -0.5211 
     67 CA        -46.3424  -23.8381    9.7016 C.3       4 UNK         0.0297 
     68 CB        -44.8565  -24.1263    9.4399 C.3       4 UNK        -0.1993 
     69 N         -47.0657  -23.8335    8.4231 N.am      4 UNK        -0.4486 
     70 C         -48.3743  -23.6131    8.2421 C.2       3 UNK         0.4961 
     71 O         -49.1756  -23.4860    9.1679 O.2       3 UNK        -0.5105 
     72 CA        -48.8938  -23.5265    6.7942 C.3       3 UNK         0.0299 
     73 CB        -48.7450  -22.0917    6.2543 C.3       3 UNK        -0.1972 
     74 N         -48.3406  -24.5071    5.8460 N.am      3 UNK        -0.4305 
     75 C         -47.0844  -24.6709    5.4073 C.2       2 UNK         0.5006 
     76 O         -46.1259  -24.0163    5.8220 O.2       2 UNK        -0.5106 
     77 CA        -46.8664  -25.7614    4.3353 C.3       2 UNK         0.0296 
     78 CB        -45.3914  -25.8826    3.9069 C.3       2 UNK        -0.2002 
     79 N         -47.3441  -27.0847    4.7509 N.am      2 UNK        -0.4032 
     80 C         -48.6262  -27.4729    4.8209 C.2       1 UNK         0.5000 
     81 O         -49.5737  -26.7243    4.5718 O.2       1 UNK        -0.5238 
     82 H82       -46.7082  -32.1112    2.9948 H         1 UNK         0.0889 
     83 H83       -45.9349  -31.5047    4.4602 H         1 UNK         0.0889 
     84 H84       -45.5656  -30.7683    2.8993 H         1 UNK         0.0889 
     85 H85       -47.3335  -30.2640    5.6906 H         1 UNK         0.3028 
     86 H86       -49.8045  -29.2410    4.7228 H         1 UNK         0.0864 
     87 H87       -48.3288  -28.7305    7.3557 H         1 UNK         0.0720 
     88 H88       -49.9492  -28.1884    7.0352 H         1 UNK         0.0720 
     89 H89       -52.1526  -31.2060    7.6750 H         1 UNK         0.0814 
     90 H90       -52.0353  -29.8385    6.5973 H         1 UNK         0.0814 
     91 H91       -52.2846  -27.6081    7.4862 H         1 UNK         0.1469 
     92 H92       -52.4801  -26.9894   11.7305 H         1 UNK         0.1381 
     93 H93       -51.5587  -30.8626   10.1717 H         1 UNK         0.1206 
     94 H94       -52.0512  -28.7224   13.2523 H         1 UNK         0.0813 
     95 H95       -50.7651  -29.7188   12.6431 H         1 UNK         0.0813 
     96 H96       -53.5957  -29.5915   14.6737 H         1 UNK         0.0638 
     97 H97       -53.9818  -31.2714   14.9050 H         1 UNK         0.0638 
     98 H98       -55.5990  -31.1006   12.9136 H         1 UNK         0.0568 
     99 H99       -56.6019  -32.2707   14.6893 H         1 UNK         0.3450 
    100 H100      -57.6159  -31.4170   15.8229 H         1 UNK         0.3450 
    101 H101      -54.7479  -28.3154   12.9710 H         1 UNK         0.2987 
    102 H102      -55.5050  -27.5652   10.3041 H         1 UNK         0.0766 
    103 H103      -57.8617  -27.8004    9.6229 H         1 UNK         0.0798 
    104 H104      -57.4840  -26.1005    9.8421 H         1 UNK         0.0798 
    105 H105      -58.4108  -26.9655   11.0682 H         1 UNK         0.0798 
    106 H106      -54.9043  -25.9477   11.6553 H         1 UNK         0.3198 
    107 H107      -54.7219  -24.4692   13.1737 H         1 UNK         0.0843 
    108 H108      -57.2485  -23.7963   14.7672 H         1 UNK         0.0831 
    109 H109      -56.8519  -23.1570   13.1789 H         1 UNK         0.0831 
    110 H110      -55.8345  -22.7620   14.5541 H         1 UNK         0.0831 
    111 H111      -55.3068  -24.8613   15.8962 H         1 UNK         0.3133 
    112 H112      -53.6517  -25.7453   17.1684 H         1 UNK         0.0566 
    113 H113      -54.6256  -28.6195   16.7260 H         1 UNK         0.0814 
    114 H114      -55.6631  -27.2787   17.1804 H         1 UNK         0.0814 
    115 H115      -54.4020  -27.8144   18.2779 H         1 UNK         0.0814 
    116 H116      -52.2413  -28.2029   16.9008 H         1 UNK         0.3091 
    117 H117      -49.6940  -27.4533   17.5711 H         1 UNK         0.0702 
    118 H118      -48.9716  -29.2878   15.9851 H         1 UNK         0.0785 
    119 H119      -50.1664  -28.7344   14.8200 H         1 UNK         0.0785 
    120 H120      -50.6766  -29.3999   16.3676 H         1 UNK         0.0785 
    121 H121      -48.9862  -26.2508   14.9552 H         1 UNK         0.2998 
    122 H122      -45.8950  -25.0633   16.2935 H         1 UNK         0.0697 
    123 H123      -44.9883  -25.9232   14.1349 H         1 UNK         0.0825 
    124 H124      -46.3613  -27.0181   13.9795 H         1 UNK         0.0825 
    125 H125      -45.2087  -27.2298   15.2888 H         1 UNK         0.0825 
    126 H126      -47.1205  -24.6320   13.7627 H         1 UNK         0.3029 
    127 H127      -49.0614  -21.7741   14.7500 H         1 UNK         0.0897 
    128 H128      -46.5466  -22.1685   13.0403 H         1 UNK         0.0792 
    129 H129      -46.7738  -20.9771   14.3095 H         1 UNK         0.0792 
    130 H130      -47.7296  -20.8782   12.8396 H         1 UNK         0.0792 
    131 H131      -48.5453  -23.6921   12.5154 H         1 UNK         0.3086 
    132 H132      -51.6559  -25.0548   12.7780 H         1 UNK         0.0583 
    133 H133      -52.4492  -22.7638   11.6493 H         1 UNK         0.1020 
    134 H134      -51.4448  -23.2430   10.3251 H         1 UNK         0.1020 
    135 H135      -53.3617  -25.5707    8.4192 H         1 UNK         0.0694 
    136 H136      -51.7370  -25.1976    8.9353 H         1 UNK         0.0694 
    137 H137      -49.7263  -24.7984   10.5777 H         1 UNK         0.2989 
    138 H138      -47.5141  -27.2277   11.8989 H         1 UNK         0.1055 
    139 H139      -47.9083  -28.5089    9.8084 H         1 UNK         0.0806 
    140 H140      -49.4719  -27.7178    9.5980 H         1 UNK         0.0806 
    141 H141      -49.1932  -28.7892   10.9635 H         1 UNK         0.0806 
    142 H142      -47.6168  -26.0311    9.3208 H         1 UNK         0.3061 
    143 H143      -46.4274  -22.8334   10.1206 H         1 UNK         0.0734 
    144 H144      -44.7107  -25.1055    8.9820 H         1 UNK         0.0832 
    145 H145      -44.4171  -23.3785    8.7794 H         1 UNK         0.0832 
    146 H146      -44.2851  -24.1113   10.3694 H         1 UNK         0.0832 
    147 H147      -46.5043  -23.9106    7.5758 H         1 UNK         0.3156 
    148 H148      -49.9618  -23.7456    6.8411 H         1 UNK         0.0589 
    149 H149      -49.2052  -21.9884    5.2716 H         1 UNK         0.0808 
    150 H150      -47.6993  -21.7945    6.1676 H         1 UNK         0.0808 
    151 H151      -49.2317  -21.3738    6.9161 H         1 UNK         0.0808 
    152 H152      -49.0238  -25.1482    5.4468 H         1 UNK         0.3098 
    153 H153      -47.4377  -25.4545    3.4566 H         1 UNK         0.0720 
    154 H154      -45.0110  -24.9292    3.5373 H         1 UNK         0.0791 
    155 H155      -45.2698  -26.6090    3.1030 H         1 UNK         0.0791 
    156 H156      -44.7532  -26.1889    4.7367 H         1 UNK         0.0791 
    157 H157      -46.6352  -27.7598    4.9979 H         1 UNK         0.3028 
@<TRIPOS>BOND
     1    1    2 1    
     2    1   82 1    
     3    1   83 1    
     4    1   84 1    
     5    2    3 2    
     6    2    4 am   BACKBONE|DICT|INTERRES
     7    4    5 1    
     8    4   85 1    
     9    5    6 1    
    10    5   80 1    
    11    5   86 1    
    12    6    7 1    
    13    6   87 1    
    14    6   88 1    
    15    7    8 1    
    16    8    9 1    
    17    8   89 1    
    18    8   90 1    
    19    9   10 ar   
    20    9   14 ar   
    21   10   11 ar   
    22   10   91 1    
    23   11   12 ar   
    24   11   58 1    
    25   12   13 ar   
    26   12   92 1    
    27   13   14 ar   
    28   13   15 1    
    29   14   93 1    
    30   15   16 1    
    31   15   94 1    
    32   15   95 1    
    33   16   17 1    
    34   17   18 1    
    35   17   96 1    
    36   17   97 1    
    37   18   19 1    
    38   18   22 1    
    39   18   98 1    
    40   19   20 am   BACKBONE|DICT|INTERRES
    41   19   21 2    
    42   20   99 1    
    43   20  100 1    
    44   22   23 am   BACKBONE|DICT|INTERRES
    45   22  101 1    
    46   23   24 2    
    47   23   25 1    
    48   25   26 1    
    49   25   27 1    
    50   25  102 1    
    51   26  103 1    
    52   26  104 1    
    53   26  105 1    
    54   27   28 am   BACKBONE|DICT|INTERRES
    55   27  106 1    
    56   28   29 2    
    57   28   30 1    
    58   30   31 1    
    59   30   32 1    
    60   30  107 1    
    61   31  108 1    
    62   31  109 1    
    63   31  110 1    
    64   32   33 am   BACKBONE|DICT|INTERRES
    65   32  111 1    
    66   33   34 2    
    67   33   35 1    
    68   35   36 1    
    69   35   37 1    
    70   35  112 1    
    71   36  113 1    
    72   36  114 1    
    73   36  115 1    
    74   37   38 am   BACKBONE|DICT|INTERRES
    75   37  116 1    
    76   38   39 2    
    77   38   40 1    
    78   40   41 1    
    79   40   42 1    
    80   40  117 1    
    81   41  118 1    
    82   41  119 1    
    83   41  120 1    
    84   42   43 am   BACKBONE|DICT|INTERRES
    85   42  121 1    
    86   43   44 2    
    87   43   45 1    
    88   45   46 1    
    89   45   47 1    
    90   45  122 1    
    91   46  123 1    
    92   46  124 1    
    93   46  125 1    
    94   47   48 am   BACKBONE|DICT|INTERRES
    95   47  126 1    
    96   48   49 2    
    97   48   50 1    
    98   50   51 1    
    99   50   52 1    
   100   50  127 1    
   101   51  128 1    
   102   51  129 1    
   103   51  130 1    
   104   52   53 am   BACKBONE|DICT|INTERRES
   105   52  131 1    
   106   53   54 2    
   107   53   55 1    
   108   55   56 1    
   109   55   59 1    
   110   55  132 1    
   111   56   57 1    
   112   56  133 1    
   113   56  134 1    
   114   57   58 1    
   115   58  135 1    
   116   58  136 1    
   117   59   60 am   BACKBONE|DICT|INTERRES
   118   59  137 1    
   119   60   61 2    
   120   60   62 1    
   121   62   63 1    
   122   62   64 1    
   123   62  138 1    
   124   63  139 1    
   125   63  140 1    
   126   63  141 1    
   127   64   65 am   BACKBONE|DICT|INTERRES
   128   64  142 1    
   129   65   66 2    
   130   65   67 1    
   131   67   68 1    
   132   67   69 1    
   133   67  143 1    
   134   68  144 1    
   135   68  145 1    
   136   68  146 1    
   137   69   70 am   BACKBONE|DICT|INTERRES
   138   69  147 1    
   139   70   71 2    
   140   70   72 1    
   141   72   73 1    
   142   72   74 1    
   143   72  148 1    
   144   73  149 1    
   145   73  150 1    
   146   73  151 1    
   147   74   75 am   BACKBONE|DICT|INTERRES
   148   74  152 1    
   149   75   76 2    
   150   75   77 1    
   151   77   78 1    
   152   77   79 1    
   153   77  153 1    
   154   78  154 1    
   155   78  155 1    
   156   78  156 1    
   157   79   80 am   BACKBONE|DICT|INTERRES
   158   79  157 1    
   159   80   81 2    
@<TRIPOS>SUBSTRUCTURE
     1 UNK         1 GROUP             0       ****    0 ROOT    
