@<TRIPOS>MOLECULE
3R207
157   159    1
SMALL
USER_CHARGES


@<TRIPOS>ATOM
      1 CA        -49.9988  -27.4182   11.0368 C.3       0 UNK        -0.1975 
      2 C         -49.0785  -27.4432    9.8279 C.2       0 UNK         0.4852 
      3 O         -48.8336  -26.3985    9.2217 O.2       0 UNK        -0.5216 
      4 N         -48.5573  -28.6335    9.4987 N.am      1 UNK        -0.4461 
      5 CA        -47.7420  -28.9533    8.3164 C.3       1 UNK         0.0864 
      6 C6        -48.5455  -28.8629    6.9889 C.3       14 UNK        -0.0898 
      7 S7        -49.8268  -30.1579    6.9138 S.3       14 UNK        -0.2598 
      8 C8        -51.1698  -29.3185    6.0106 C.3       14 UNK         0.0286 
      9 C9        -51.9623  -28.3186    6.8490 C.ar      14 UNK        -0.0844 
     10 C10       -52.3777  -27.1144    6.2725 C.ar      14 UNK        -0.0881 
     11 C11       -53.1647  -26.2112    6.9932 C.ar      14 UNK        -0.0643 
     12 C12       -53.5285  -26.5111    8.3093 C.ar      14 UNK        -0.0930 
     13 C13       -53.1202  -27.7105    8.8988 C.ar      14 UNK        -0.0827 
     14 C14       -52.3432  -28.6107    8.1640 C.ar      14 UNK        -0.1249 
     15 C15       -53.5233  -28.0413   10.3262 C.3       14 UNK         0.0141 
     16 S16       -55.0721  -28.9921   10.3717 S.3       14 UNK        -0.2313 
     17 C17       -55.1962  -29.3467   12.1556 C.3       14 UNK        -0.0915 
     18 CA        -56.3470  -28.5658   12.8504 C.3       13 UNK         0.0968 
     19 C         -57.6950  -29.3480   12.7842 C.2       13 UNK         0.5732 
     20 N         -58.2048  -29.8972   13.8824 N.am      13 UNK        -0.7310 
     21 O         -58.2954  -29.4506   11.7174 O.2       13 UNK        -0.5035 
     22 N         -55.9461  -28.1625   14.2038 N.am      13 UNK        -0.4233 
     23 C         -56.5887  -27.2789   14.9778 C.2       13 UNK         0.4989 
     24 O         -57.5206  -26.5755   14.5839 O.2       13 UNK        -0.4996 
     25 CA        -56.1099  -27.1755   16.4416 C.3       12 UNK         0.0216 
     26 CB        -57.2470  -26.7822   17.4083 C.3       12 UNK        -0.1964 
     27 N         -55.4117  -28.3790   16.9230 N.am      12 UNK        -0.4276 
     28 C         -55.8992  -29.6300   17.0022 C.2       12 UNK         0.5020 
     29 O         -57.0449  -29.9316   16.6634 O.2       12 UNK        -0.5489 
     30 CA        -54.9483  -30.7540   17.4638 C.3       11 UNK         0.0294 
     31 CB        -54.7246  -31.7646   16.3248 C.3       11 UNK        -0.2019 
     32 N         -53.6430  -30.2737   17.9241 N.am      11 UNK        -0.4493 
     33 C         -53.4063  -29.7052   19.1139 C.2       11 UNK         0.4932 
     34 O         -54.2539  -29.5949   19.9997 O.2       11 UNK        -0.5029 
     35 CA        -51.9928  -29.1353   19.3462 C.3       10 UNK         0.0280 
     36 CB        -51.1371  -30.1382   20.1370 C.3       10 UNK        -0.1976 
     37 N         -51.2732  -28.7420   18.1248 N.am      10 UNK        -0.4242 
     38 C         -51.6908  -27.8285   17.2366 C.2       10 UNK         0.5072 
     39 O         -52.7880  -27.2678   17.2954 O.2       10 UNK        -0.5224 
     40 CA        -50.7522  -27.5439   16.0508 C.3       9 UNK         0.0343 
     41 CB        -51.0293  -28.5292   14.9025 C.3       9 UNK        -0.2003 
     42 N         -50.9101  -26.1792   15.5454 N.am      9 UNK        -0.4272 
     43 C         -50.6211  -25.0597   16.2192 C.2       9 UNK         0.4988 
     44 O         -50.0656  -25.0459   17.3199 O.2       9 UNK        -0.5108 
     45 CA        -51.0040  -23.7368   15.5269 C.3       8 UNK         0.0248 
     46 CB        -50.9338  -22.5302   16.4823 C.3       8 UNK        -0.2001 
     47 N         -50.1655  -23.4649   14.3570 N.am      8 UNK        -0.4140 
     48 C         -50.2561  -24.0867   13.1745 C.2       8 UNK         0.5028 
     49 O         -51.0656  -24.9873   12.9354 O.2       8 UNK        -0.5428 
     50 CA        -49.2461  -23.6392   12.1025 C.3       7 UNK         0.0264 
     51 CB        -47.8614  -24.2614   12.3526 C.3       7 UNK        -0.1988 
     52 N         -49.6695  -23.9678   10.7406 N.am      7 UNK        -0.4454 
     53 C         -50.7120  -23.4213   10.0997 C.2       7 UNK         0.5027 
     54 O         -51.4636  -22.5805   10.5992 O.2       7 UNK        -0.5083 
     55 CA        -50.8784  -23.8449    8.6246 C.3       6 UNK         0.0844 
     56 C56       -52.1099  -23.1852    7.9417 C.3       14 UNK        -0.0967 
     57 S57       -52.3178  -23.6929    6.2009 S.3       14 UNK        -0.2604 
     58 C58       -53.6457  -24.9281    6.3323 C.3       14 UNK         0.0134 
     59 N         -49.6083  -23.6448    7.9135 N.am      6 UNK        -0.4116 
     60 C         -49.0187  -22.4678    7.6540 C.2       5 UNK         0.5034 
     61 O         -49.5268  -21.3723    7.8974 O.2       5 UNK        -0.5045 
     62 CA        -47.6037  -22.4954    7.0534 C.3       5 UNK         0.0224 
     63 CB        -46.5809  -21.9817    8.0810 C.3       5 UNK        -0.1978 
     64 N         -47.1762  -23.8149    6.5803 N.am      5 UNK        -0.4737 
     65 C         -47.5344  -24.3486    5.4025 C.2       4 UNK         0.5027 
     66 O         -48.3479  -23.8200    4.6438 O.2       4 UNK        -0.5211 
     67 CA        -46.8623  -25.6799    4.9965 C.3       4 UNK         0.0297 
     68 CB        -46.8394  -25.8984    3.4695 C.3       4 UNK        -0.1993 
     69 N         -45.5203  -25.8535    5.5675 N.am      4 UNK        -0.4486 
     70 C         -44.4605  -25.0375    5.4344 C.2       3 UNK         0.4961 
     71 O         -44.4278  -24.0825    4.6567 O.2       3 UNK        -0.5105 
     72 CA        -43.2394  -25.3124    6.3430 C.3       3 UNK         0.0299 
     73 CB        -42.5201  -24.0101    6.7550 C.3       3 UNK        -0.1972 
     74 N         -43.5397  -26.1248    7.5326 N.am      3 UNK        -0.4305 
     75 C         -44.4298  -25.8558    8.5009 C.2       2 UNK         0.5006 
     76 O         -45.1251  -24.8401    8.5452 O.2       2 UNK        -0.5106 
     77 CA        -44.6386  -26.9601    9.5510 C.3       2 UNK         0.0296 
     78 CB        -44.5682  -26.3861   10.9764 C.3       2 UNK        -0.2002 
     79 N         -45.9177  -27.6581    9.3779 N.am      2 UNK        -0.4032 
     80 C         -46.3793  -28.2230    8.2500 C.2       1 UNK         0.5000 
     81 O         -45.7499  -28.2244    7.1894 O.2       1 UNK        -0.5238 
     82 H82       -50.3651  -28.4134   11.2861 H         1 UNK         0.0889 
     83 H83       -50.8600  -26.7808   10.8390 H         1 UNK         0.0889 
     84 H84       -49.4763  -27.0235   11.9059 H         1 UNK         0.0889 
     85 H85       -48.7946  -29.4352   10.0664 H         1 UNK         0.3028 
     86 H86       -47.4574  -29.9990    8.4443 H         1 UNK         0.0864 
     87 H87       -49.0001  -27.8771    6.8785 H         1 UNK         0.0720 
     88 H88       -47.9056  -29.0071    6.1167 H         1 UNK         0.0720 
     89 H89       -51.8631  -30.0768    5.6448 H         1 UNK         0.0814 
     90 H90       -50.7483  -28.8375    5.1265 H         1 UNK         0.0814 
     91 H91       -52.1057  -26.8818    5.2518 H         1 UNK         0.1469 
     92 H92       -54.1409  -25.8190    8.8707 H         1 UNK         0.1381 
     93 H93       -52.0459  -29.5474    8.6150 H         1 UNK         0.1206 
     94 H94       -53.6365  -27.1277   10.9125 H         1 UNK         0.0813 
     95 H95       -52.7347  -28.6226   10.8048 H         1 UNK         0.0813 
     96 H96       -54.2367  -29.1003   12.6134 H         1 UNK         0.0638 
     97 H97       -55.3042  -30.4245   12.2932 H         1 UNK         0.0638 
     98 H98       -56.5108  -27.6356   12.3027 H         1 UNK         0.0568 
     99 H99       -59.0790  -30.3933   13.8183 H         1 UNK         0.3450 
    100 H100      -57.7372  -29.8213   14.7798 H         1 UNK         0.3450 
    101 H101      -55.1996  -28.6947   14.6219 H         1 UNK         0.2987 
    102 H102      -55.3711  -26.3728   16.4577 H         1 UNK         0.0766 
    103 H103      -57.6732  -25.8145   17.1412 H         1 UNK         0.0798 
    104 H104      -56.8850  -26.7024   18.4334 H         1 UNK         0.0798 
    105 H105      -58.0593  -27.5097   17.3949 H         1 UNK         0.0798 
    106 H106      -54.4448  -28.2157   17.1972 H         1 UNK         0.3198 
    107 H107      -55.4409  -31.2720   18.2896 H         1 UNK         0.0843 
    108 H108      -54.2406  -31.3048   15.4623 H         1 UNK         0.0831 
    109 H109      -55.6713  -32.1837   15.9804 H         1 UNK         0.0831 
    110 H110      -54.1062  -32.6007   16.6518 H         1 UNK         0.0831 
    111 H111      -52.8781  -30.3339   17.2681 H         1 UNK         0.3133 
    112 H112      -52.1083  -28.2354   19.9539 H         1 UNK         0.0566 
    113 H113      -50.1719  -29.7108   20.4096 H         1 UNK         0.0814 
    114 H114      -50.9536  -31.0504   19.5677 H         1 UNK         0.0814 
    115 H115      -51.6322  -30.4283   21.0651 H         1 UNK         0.0814 
    116 H116      -50.3680  -29.1683   17.9840 H         1 UNK         0.3091 
    117 H117      -49.7187  -27.6637   16.3824 H         1 UNK         0.0702 
    118 H118      -50.3487  -28.3634   14.0673 H         1 UNK         0.0785 
    119 H119      -52.0489  -28.4338   14.5261 H         1 UNK         0.0785 
    120 H120      -50.8946  -29.5620   15.2263 H         1 UNK         0.0785 
    121 H121      -51.3022  -26.0700   14.6154 H         1 UNK         0.2998 
    122 H122      -52.0404  -23.8330   15.1951 H         1 UNK         0.0697 
    123 H123      -49.9178  -22.3509   16.8367 H         1 UNK         0.0825 
    124 H124      -51.5611  -22.6915   17.3601 H         1 UNK         0.0825 
    125 H125      -51.2864  -21.6192   15.9983 H         1 UNK         0.0825 
    126 H126      -49.4465  -22.7664   14.4802 H         1 UNK         0.3029 
    127 H127      -49.1538  -22.5524   12.1622 H         1 UNK         0.0897 
    128 H128      -47.8845  -25.3489   12.2880 H         1 UNK         0.0792 
    129 H129      -47.4838  -24.0034   13.3428 H         1 UNK         0.0792 
    130 H130      -47.1313  -23.9002   11.6276 H         1 UNK         0.0792 
    131 H131      -49.1462  -24.6903   10.2559 H         1 UNK         0.3086 
    132 H132      -51.0505  -24.9219    8.6365 H         1 UNK         0.0583 
    133 H133      -53.0193  -23.4217    8.4966 H         1 UNK         0.1020 
    134 H134      -52.0298  -22.0974    7.9657 H         1 UNK         0.1020 
    135 H135      -54.4930  -24.5021    6.8720 H         1 UNK         0.0694 
    136 H136      -54.0105  -25.1566    5.3298 H         1 UNK         0.0694 
    137 H137      -49.0898  -24.4880    7.7085 H         1 UNK         0.2989 
    138 H138      -47.6035  -21.8084    6.2040 H         1 UNK         0.1055 
    139 H139      -46.5722  -22.5971    8.9817 H         1 UNK         0.0806 
    140 H140      -46.8118  -20.9606    8.3877 H         1 UNK         0.0806 
    141 H141      -45.5713  -21.9758    7.6694 H         1 UNK         0.0806 
    142 H142      -46.4929  -24.2991    7.1571 H         1 UNK         0.3061 
    143 H143      -47.4776  -26.4679    5.4314 H         1 UNK         0.0734 
    144 H144      -46.2901  -25.1084    2.9566 H         1 UNK         0.0832 
    145 H145      -46.3772  -26.8513    3.2121 H         1 UNK         0.0832 
    146 H146      -47.8502  -25.9095    3.0601 H         1 UNK         0.0832 
    147 H147      -45.4326  -26.6377    6.2114 H         1 UNK         0.3156 
    148 H148      -42.5442  -25.8998    5.7417 H         1 UNK         0.0589 
    149 H149      -41.6538  -24.2161    7.3834 H         1 UNK         0.0808 
    150 H150      -42.1606  -23.4650    5.8813 H         1 UNK         0.0808 
    151 H151      -43.1824  -23.3407    7.3052 H         1 UNK         0.0808 
    152 H152      -43.0690  -27.0191    7.5678 H         1 UNK         0.3098 
    153 H153      -43.8437  -27.7011    9.4461 H         1 UNK         0.0720 
    154 H154      -43.6259  -25.8614   11.1394 H         1 UNK         0.0791 
    155 H155      -44.6338  -27.1735   11.7275 H         1 UNK         0.0791 
    156 H156      -45.3729  -25.6744   11.1642 H         1 UNK         0.0791 
    157 H157      -46.5216  -27.6891   10.1851 H         1 UNK         0.3028 
@<TRIPOS>BOND
     1    1    2 1    
     2    1   82 1    
     3    1   83 1    
     4    1   84 1    
     5    2    3 2    
     6    2    4 am   BACKBONE|DICT|INTERRES
     7    4    5 1    
     8    4   85 1    
     9    5    6 1    
    10    5   80 1    
    11    5   86 1    
    12    6    7 1    
    13    6   87 1    
    14    6   88 1    
    15    7    8 1    
    16    8    9 1    
    17    8   89 1    
    18    8   90 1    
    19    9   10 ar   
    20    9   14 ar   
    21   10   11 ar   
    22   10   91 1    
    23   11   12 ar   
    24   11   58 1    
    25   12   13 ar   
    26   12   92 1    
    27   13   14 ar   
    28   13   15 1    
    29   14   93 1    
    30   15   16 1    
    31   15   94 1    
    32   15   95 1    
    33   16   17 1    
    34   17   18 1    
    35   17   96 1    
    36   17   97 1    
    37   18   19 1    
    38   18   22 1    
    39   18   98 1    
    40   19   20 am   BACKBONE|DICT|INTERRES
    41   19   21 2    
    42   20   99 1    
    43   20  100 1    
    44   22   23 am   BACKBONE|DICT|INTERRES
    45   22  101 1    
    46   23   24 2    
    47   23   25 1    
    48   25   26 1    
    49   25   27 1    
    50   25  102 1    
    51   26  103 1    
    52   26  104 1    
    53   26  105 1    
    54   27   28 am   BACKBONE|DICT|INTERRES
    55   27  106 1    
    56   28   29 2    
    57   28   30 1    
    58   30   31 1    
    59   30   32 1    
    60   30  107 1    
    61   31  108 1    
    62   31  109 1    
    63   31  110 1    
    64   32   33 am   BACKBONE|DICT|INTERRES
    65   32  111 1    
    66   33   34 2    
    67   33   35 1    
    68   35   36 1    
    69   35   37 1    
    70   35  112 1    
    71   36  113 1    
    72   36  114 1    
    73   36  115 1    
    74   37   38 am   BACKBONE|DICT|INTERRES
    75   37  116 1    
    76   38   39 2    
    77   38   40 1    
    78   40   41 1    
    79   40   42 1    
    80   40  117 1    
    81   41  118 1    
    82   41  119 1    
    83   41  120 1    
    84   42   43 am   BACKBONE|DICT|INTERRES
    85   42  121 1    
    86   43   44 2    
    87   43   45 1    
    88   45   46 1    
    89   45   47 1    
    90   45  122 1    
    91   46  123 1    
    92   46  124 1    
    93   46  125 1    
    94   47   48 am   BACKBONE|DICT|INTERRES
    95   47  126 1    
    96   48   49 2    
    97   48   50 1    
    98   50   51 1    
    99   50   52 1    
   100   50  127 1    
   101   51  128 1    
   102   51  129 1    
   103   51  130 1    
   104   52   53 am   BACKBONE|DICT|INTERRES
   105   52  131 1    
   106   53   54 2    
   107   53   55 1    
   108   55   56 1    
   109   55   59 1    
   110   55  132 1    
   111   56   57 1    
   112   56  133 1    
   113   56  134 1    
   114   57   58 1    
   115   58  135 1    
   116   58  136 1    
   117   59   60 am   BACKBONE|DICT|INTERRES
   118   59  137 1    
   119   60   61 2    
   120   60   62 1    
   121   62   63 1    
   122   62   64 1    
   123   62  138 1    
   124   63  139 1    
   125   63  140 1    
   126   63  141 1    
   127   64   65 am   BACKBONE|DICT|INTERRES
   128   64  142 1    
   129   65   66 2    
   130   65   67 1    
   131   67   68 1    
   132   67   69 1    
   133   67  143 1    
   134   68  144 1    
   135   68  145 1    
   136   68  146 1    
   137   69   70 am   BACKBONE|DICT|INTERRES
   138   69  147 1    
   139   70   71 2    
   140   70   72 1    
   141   72   73 1    
   142   72   74 1    
   143   72  148 1    
   144   73  149 1    
   145   73  150 1    
   146   73  151 1    
   147   74   75 am   BACKBONE|DICT|INTERRES
   148   74  152 1    
   149   75   76 2    
   150   75   77 1    
   151   77   78 1    
   152   77   79 1    
   153   77  153 1    
   154   78  154 1    
   155   78  155 1    
   156   78  156 1    
   157   79   80 am   BACKBONE|DICT|INTERRES
   158   79  157 1    
   159   80   81 2    
@<TRIPOS>SUBSTRUCTURE
     1 UNK         1 GROUP             0       ****    0 ROOT    
